#------------------------------------------------------------------------------
#$Date: 2021-07-04 04:44:05 +0300 (Sun, 04 Jul 2021) $
#$Revision: 266969 $
#$URL: file:///home/coder/svn-repositories/cod/cif/4/13/56/4135635.cif $
#------------------------------------------------------------------------------
#
# This file is available in the Crystallography Open Database (COD),
# http://www.crystallography.net/
#
# All data on this site have been placed in the public domain by the
# contributors.
#
data_4135635
loop_
_publ_author_name
'Geng, Shubo'
'Lin, En'
'Li, Xia'
'Liu, Wansheng'
'Wang, Ting'
'Wang, Zhifang'
'Sensharma, Debobroto'
'Darwish, Shaza'
'Andaloussi, Yassin H.'
'Pham, Tony'
'Cheng, Peng'
'Zaworotko, Michael J.'
'Chen, Yao'
'Zhang, Zhenjie'
_publ_section_title
;
 Scalable Room-Temperature Synthesis of Highly Robust Ethane-Selective
 Metal-Organic Frameworks for Efficient Ethylene Purification.
;
_journal_issue                   23
_journal_name_full               'Journal of the American Chemical Society'
_journal_page_first              8654
_journal_page_last               8660
_journal_paper_doi               10.1021/jacs.1c02108
_journal_volume                  143
_journal_year                    2021
_chemical_formula_moiety         'Br0.5 C2.5 Cu0.5 N2'
_chemical_formula_sum            'C2.5 Br0.5 Cu0.5 N2'
_chemical_formula_weight         129.77
_chemical_name_systematic        Br
_space_group_crystal_system      orthorhombic
_space_group_IT_number           52
_space_group_name_Hall           '-P 2a 2bc'
_space_group_name_H-M_alt        'P n n a'
_audit_creation_date             2020-12-21
_audit_creation_method
;
Olex2 1.3
(compiled 2020.11.12 svn.r5f609507 for OlexSys, GUI svn.r6226)
;
_cell_angle_alpha                90
_cell_angle_beta                 90
_cell_angle_gamma                90
_cell_formula_units_Z            8
_cell_length_a                   11.0306(13)
_cell_length_b                   8.6572(14)
_cell_length_c                   10.0114(19)
_cell_measurement_reflns_used    2537
_cell_measurement_temperature    120(3)
_cell_measurement_theta_max      25.1810
_cell_measurement_theta_min      3.6020
_cell_volume                     956.0(3)
_computing_cell_refinement       'CrysAlisPro 1.171.40.53 (Rigaku OD, 2019)'
_computing_data_collection       'CrysAlisPro 1.171.40.53 (Rigaku OD, 2019)'
_computing_data_reduction        'CrysAlisPro 1.171.40.53 (Rigaku OD, 2019)'
_computing_molecular_graphics    'Olex2 1.3 (Dolomanov et al., 2009)'
_computing_publication_material  'Olex2 1.3 (Dolomanov et al., 2009)'
_computing_structure_refinement  'SHELXL 2018/3 (Sheldrick, 2015)'
_computing_structure_solution    'SHELXT 2014/5 (Sheldrick, 2014)'
_diffrn_ambient_environment      air
_diffrn_ambient_temperature      120(3)
_diffrn_detector                 'CCD plate'
_diffrn_detector_area_resol_mean 16.2116
_diffrn_detector_type            Eos
_diffrn_measured_fraction_theta_full 0.999
_diffrn_measured_fraction_theta_max 0.999
_diffrn_measurement_details
;
List of Runs (angles in degrees, time in seconds):

  # Type    Start    End  Width  t~exp~   \w     \q     \k     \f   Frames
--------------------------------------------------------------------------
  1  \w    -11.00  34.00   1.00    5.00    --   18.63  81.00 171.00   45
  2  \w    -93.00 -57.00   1.00    5.00    --  -19.56-178.00-150.00   36
  3  \w    -40.00  49.00   1.00    5.00    --  -19.56  57.00 150.00   89
  4  \w    -37.00   1.00   1.00    5.00    --  -19.56 -81.00  48.00   38
  5  \w    -26.00   0.00   1.00    5.00    --  -19.56 -57.00-120.00   26
  6  \w    -49.00  51.00   1.00    5.00    --  -19.56  77.00-120.00  100
  7  \w    -41.00  37.00   1.00    5.00    --  -19.56  57.00  30.00   78
;
_diffrn_measurement_device       'four-circle diffractometer'
_diffrn_measurement_device_type  'SuperNova, Single source at offset/far, Eos'
_diffrn_measurement_method       '\w scans'
_diffrn_orient_matrix_type
'CrysAlisPro convention (1999,Acta A55,543-557)'
_diffrn_orient_matrix_UB_11      0.0196518000
_diffrn_orient_matrix_UB_12      0.0147314000
_diffrn_orient_matrix_UB_13      -0.0663297000
_diffrn_orient_matrix_UB_21      -0.0522754000
_diffrn_orient_matrix_UB_22      0.0458067000
_diffrn_orient_matrix_UB_23      -0.0112698000
_diffrn_orient_matrix_UB_31      0.0317492000
_diffrn_orient_matrix_UB_32      0.0662778000
_diffrn_orient_matrix_UB_33      0.0224972000
_diffrn_radiation_monochromator  mirror
_diffrn_radiation_probe          x-ray
_diffrn_radiation_type           'Mo K\a'
_diffrn_radiation_wavelength     0.71073
_diffrn_reflns_av_R_equivalents  0.0595
_diffrn_reflns_av_unetI/netI     0.0343
_diffrn_reflns_Laue_measured_fraction_full 0.999
_diffrn_reflns_Laue_measured_fraction_max 0.999
_diffrn_reflns_limit_h_max       13
_diffrn_reflns_limit_h_min       -13
_diffrn_reflns_limit_k_max       10
_diffrn_reflns_limit_k_min       -10
_diffrn_reflns_limit_l_max       12
_diffrn_reflns_limit_l_min       -12
_diffrn_reflns_number            6084
_diffrn_reflns_point_group_measured_fraction_full 0.999
_diffrn_reflns_point_group_measured_fraction_max 0.999
_diffrn_reflns_theta_full        25.242
_diffrn_reflns_theta_max         25.318
_diffrn_reflns_theta_min         3.111
_diffrn_source                   'micro-focus sealed X-ray tube'
_diffrn_source_type              'SuperNova (Mo) X-ray Source'
_exptl_absorpt_coefficient_mu    6.408
_exptl_absorpt_correction_T_max  1.00000
_exptl_absorpt_correction_T_min  0.69579
_exptl_absorpt_correction_type   multi-scan
_exptl_absorpt_process_details
;
CrysAlisPro 1.171.40.53 (Rigaku Oxford Diffraction, 2019)
Empirical absorption correction using spherical harmonics,
 implemented in SCALE3 ABSPACK scaling algorithm.
;
_exptl_crystal_colour            'clear light green'
_exptl_crystal_colour_lustre     clear
_exptl_crystal_colour_modifier   light
_exptl_crystal_colour_primary    green
_exptl_crystal_density_diffrn    1.803
_exptl_crystal_description       prism
_exptl_crystal_F_000             488
_exptl_crystal_size_max          0.2
_exptl_crystal_size_mid          0.2
_exptl_crystal_size_min          0.2
_refine_diff_density_max         0.789
_refine_diff_density_min         -0.807
_refine_diff_density_rms         0.097
_refine_ls_extinction_method     none
_refine_ls_goodness_of_fit_ref   1.098
_refine_ls_hydrogen_treatment    undef
_refine_ls_matrix_type           full
_refine_ls_number_parameters     52
_refine_ls_number_reflns         873
_refine_ls_number_restraints     0
_refine_ls_restrained_S_all      1.098
_refine_ls_R_factor_all          0.0371
_refine_ls_R_factor_gt           0.0344
_refine_ls_shift/su_max          0.000
_refine_ls_shift/su_mean         0.000
_refine_ls_structure_factor_coef Fsqd
_refine_ls_weighting_details
'w=1/[\s^2^(Fo^2^)+(0.0307P)^2^+1.4491P] where P=(Fo^2^+2Fc^2^)/3'
_refine_ls_weighting_scheme      calc
_refine_ls_wR_factor_gt          0.0800
_refine_ls_wR_factor_ref         0.0817
_reflns_Friedel_coverage         0.000
_reflns_number_gt                799
_reflns_number_total             873
_reflns_threshold_expression     'I > 2\s(I)'
_cod_data_source_file            ja1c02108_si_004.cif
_cod_data_source_block           a
_cod_depositor_comments
'Adding full bibliography for 4135632--4135635.cif.'
_cod_original_formula_sum        'C2.50 Br0.50 Cu0.50 N2'
_cod_database_code               4135635
_shelx_shelxl_version_number     2018/3
_shelx_space_group_comment
;
The symmetry employed for this shelxl refinement is uniquely defined
by the following loop, which should always be used as a source of
symmetry information in preference to the above space-group names.
They are only intended as comments.
;
_shelx_estimated_absorpt_t_max   0.361
_shelx_estimated_absorpt_t_min   0.361
_reflns_odcompleteness_completeness 89.15
_reflns_odcompleteness_iscentric 1
_reflns_odcompleteness_theta     26.32
_olex2_refinement_description
;
;
_smtbx_masks_void_probe_radius   1.2
_smtbx_masks_void_truncation_radius 1.2
_shelx_res_file
;
TITL a_a.res in Pnna
    a.res
    created by SHELXL-2018/3 at 10:27:53 on 21-Dec-2020
REM Old TITL A in Pnna #52
REM SHELXT solution in Pnna
REM R1 0.223, Rweak 0.267, Alpha 0.054, Orientation as input
REM Formula found by SHELXT: C5 N4 Cu2
CELL 0.71073 11.0306 8.6572 10.0114 90 90 90
ZERR 8 0.0013 0.0014 0.0019 0 0 0
LATT 1
SYMM 0.5-X,-Y,+Z
SYMM 0.5-X,0.5+Y,0.5-Z
SYMM +X,0.5-Y,0.5-Z
SFAC Br C Cu N
UNIT 4 20 4 16

L.S. 5 0 0
PLAN  2
SIZE 0.2 0.2 0.2
CONF
list 4
fmap 2 53
acta
MORE -1
ABIN
REM <olex2.extras>
REM <HklSrc "%.\\A.hkl">
REM </olex2.extras>

WGHT    0.030700    1.449100
FVAR       0.38216
CU1   3    0.250000    0.500000    0.468110    10.50000    0.01649    0.03126 =
         0.02564    0.00000    0.00000    0.00140
BR1   1    0.917409    0.250000    0.750000    10.50000    0.01428    0.07913 =
         0.08306    0.05057    0.00000    0.00000
N1    4    0.685212    0.335681    0.663742    11.00000    0.01611    0.03211 =
         0.03189    0.00900    0.00105   -0.00027
N2    4    0.383072    0.416970    0.577383    11.00000    0.02015    0.04277 =
         0.03477    0.00945   -0.00336    0.00017
C2    2    0.567859    0.302769    0.698266    11.00000    0.01442    0.02949 =
         0.02427    0.00461    0.00113    0.00246
C3    2    0.465968    0.367333    0.631039    11.00000    0.01967    0.03484 =
         0.02638    0.00290    0.00453   -0.00331
C1    2    0.748542    0.250000    0.750000    10.50000    0.00768    0.04447 =
         0.03518    0.01102    0.00000    0.00000
HKLF 4




REM  a_a.res in Pnna
REM wR2 = 0.0817, GooF = S = 1.098, Restrained GooF = 1.098 for all data
REM R1 = 0.0344 for 799 Fo > 4sig(Fo) and 0.0371 for all 873 data
REM 52 parameters refined using 0 restraints

END

WGHT      0.0305      1.4526

REM Highest difference peak  0.789,  deepest hole -0.807,  1-sigma level  0.097
Q1    1   0.8811  0.1953  0.6989  11.00000  0.05    0.79
Q2    1   0.2638  0.5819  0.5274  11.00000  0.05    0.41
;
_shelx_res_checksum              73892
_shelx_hkl_file
;
   0   0   2  562.40   18.50
   0   0  -2  583.32   19.13
   0   0  -3    0.85    0.26
   0   0   3    0.59    0.75
   0   0  -4 1721.73   45.99
   0   0   4 1607.23   44.07
   0   0   5    0.72    1.38
   0   0   6  102.46   13.73
   0   0   7    0.11    1.60
   0   0  -7   -0.81    0.52
   0   0   8   60.31   11.85
   0   0  -8   66.18   11.05
   0   0  -9   -0.87    1.28
   0   0   9    1.52    2.44
   0   0 -10  135.32   18.33
   0   0  10  140.65   21.22
   0   0  11    3.03    2.81
   0   0 -11    0.07    1.43
   0   0  11    1.45    2.33
   0   0  12   12.92    7.14
   0   0  12   13.10    7.47
   0  -1   1 2751.72   27.01
   0  -1  -2    0.68    0.51
   0   1   2    0.28    0.62
   0   1  -2    0.53    0.31
   0   1  -2    0.27    0.58
   0   1   2    0.69    0.75
   0  -1  -2    0.26    0.57
   0  -1  -2    0.54    0.89
   0  -1   2    2.81    1.27
   0   1   2    1.49    1.41
   0   1  -3  268.06    8.37
   0  -1   3  232.57   13.97
   0   1   3  341.97   20.16
   0   1   3  233.51   15.62
   0  -1  -3  311.95   19.71
   0  -1  -3  277.78   17.02
   0   1   3  258.79   15.78
   0   1  -3  257.55   14.80
   0   1  -4    0.61    1.13
   0   1   4    0.68    1.01
   0  -1   4    0.84    1.01
   0   1   4    2.11    1.58
   0  -1  -4   -0.31    0.94
   0  -1   5   82.35   10.72
   0   1  -5   79.30   10.86
   0   1   5   90.35   12.23
   0  -1   6    2.83    2.30
   0   1   6    1.63    0.88
   0   1   6    1.67    1.85
   0  -1   7   34.49    8.15
   0   1   7   44.76   10.77
   0  -1  -7   17.67    4.90
   0   1  -7   25.96    6.77
   0   1   8   -2.16    3.62
   0  -1   8   -0.47    3.41
   0  -1  -8    0.07    1.15
   0   1  -8    1.54    2.43
   0   1   8    0.74    3.18
   0   1  -9   42.83   10.16
   0  -1  -9   48.37    9.49
   0  -1   9   46.27   11.01
   0   1   9   44.86   11.79
   0   1   9   70.27   14.89
   0   1  10    2.24    0.34
   0   1  10    2.45    2.81
   0   1 -10    2.87    3.33
   0  -1  10    2.68    4.02
   0  -1 -10   -0.48    1.78
   0   1 -11   22.08    8.27
   0   1  11   29.94   10.83
   0   1  11   18.44    7.84
   0  -1  11   26.45    8.59
   0   1  12   -0.86    2.17
   0   1 -12   -0.81    1.91
   0   2   0  227.73   13.13
   0  -2   0  253.26   14.09
   0  -2  -1    0.61    1.15
   0   2  -1   -0.09    0.55
   0   2   1    0.39    0.41
   0  -2   1    0.03    0.86
   0   2   1    0.32    0.24
   0  -2   1    0.66    1.12
   0  -2  -1    0.41    0.47
   0   2  -1    0.25    0.34
   0  -2  -1   -0.34    0.97
   0  -2  -2 9936.56   95.02
   0   2  -2 9999.00   93.74
   0  -2   2 9588.21   71.71
   0   2   2 9881.88   96.34
   0  -2   2 9877.75   82.09
   0  -2  -2 9937.18   97.50
   0  -2   3    0.92    0.79
   0  -2   3   -0.41    0.61
   0  -2  -3    1.19    1.24
   0  -2  -3    0.05    1.08
   0   2   3    0.83    1.45
   0   2   3    0.82    1.42
   0   2   4  131.15   13.52
   0  -2  -4  146.16   16.20
   0  -2   4  127.48   11.67
   0   2  -4  133.90   11.85
   0   2   4  132.37   14.73
   0   2   5    0.87    2.18
   0  -2  -5    0.26    1.06
   0   2   5   -0.45    1.76
   0   2  -5    0.71    1.57
   0  -2   5   -1.18    1.38
   0  -2  -6  357.36   29.68
   0  -2   6  460.26   27.36
   0   2  -6  421.60   27.82
   0   2   6  387.31   28.68
   0   2   6  426.53   30.88
   0  -2  -7   -0.15    0.83
   0   2   7    0.86    2.43
   0   2  -7    0.37    1.24
   0  -2   7    0.42    1.13
   0   2   7    2.61    3.53
   0   2  -8  135.30   18.33
   0   2   8  161.39   21.68
   0   2   8  150.84   21.38
   0  -2   8  152.24   18.00
   0  -2  -8  129.81   13.15
   0  -2  -9    0.45    1.00
   0   2   9   -2.25    3.05
   0  -2   9   -2.81    4.19
   0   2  -9   -0.03    2.39
   0   2   9    0.02    3.29
   0   2  10    0.97    2.79
   0   2 -10    5.26    5.10
   0  -2  10    4.32    3.56
   0   2  10    6.48    5.69
   0   2  11   -3.85    5.85
   0   2 -11   -0.71    1.95
   0   2  11    4.66    6.45
   0   3   0    0.12    0.39
   0  -3   0   -0.09    0.39
   0   3   0    0.64    0.49
   0   3  -1  365.58   19.04
   0  -3   1  227.21   16.54
   0   3   1  230.25   16.30
   0  -3  -1  232.66   16.47
   0  -3   1  280.88   17.41
   0   3   1  329.91   13.24
   0   3  -2   -0.21    1.16
   0   3   2    1.29    0.09
   0   3   2   -0.21    0.22
   0  -3   2    1.86    1.62
   0  -3   3 1663.88   40.43
   0   3  -3 1732.77   49.23
   0   3   3 1517.12   46.90
   0  -3   3 1453.69   35.12
   0  -3  -3 1437.00   47.86
   0   3   4   -0.20    0.53
   0  -3   4    0.40    0.77
   0  -3  -4    1.13    0.55
   0  -3   4    0.05    0.74
   0   3  -4    0.42    0.35
   0   3   5  251.89   23.98
   0  -3   5  216.18   17.31
   0   3  -5  200.84   19.53
   0  -3   6   -1.13    2.14
   0   3   6   -0.32    2.19
   0   3  -6    0.96    1.29
   0  -3  -6    0.12    0.56
   0  -3  -6    1.33    2.99
   0   3   6    0.76    0.65
   0   3   7   50.73   12.46
   0   3  -7   28.45    8.42
   0  -3  -7   34.40    5.29
   0  -3   7   41.56    8.75
   0  -3  -8    0.11    0.76
   0   3   8    0.37    2.86
   0  -3   8    3.56    2.47
   0   3  -8    0.16    1.82
   0   3   8    0.96    3.39
   0   3   9   29.53    9.95
   0  -3   9   16.68    6.14
   0   3  -9    9.95    5.36
   0   3  10   -2.76    1.91
   0   3 -10   -0.37    2.54
   0   3 -11   50.02   14.07
   0   3  11   73.76   17.56
   0   4   0 2232.90   48.49
   0  -4   0 2136.31   53.08
   0   4   1    1.12    1.12
   0   4  -1    0.27    0.97
   0  -4   1    1.13    1.83
   0   4   1   -0.03    0.38
   0   4   2   20.60    3.39
   0  -4   2   39.79    7.71
   0   4   2   50.19    8.84
   0   4  -2   25.65    6.24
   0   4  -3   -0.83    1.45
   0  -4  -3   -1.34    0.42
   0  -4  -4 2647.83   75.28
   0   4  -4 2555.55   72.21
   0  -4   4 2663.86   60.17
   0  -4   4 2630.84   54.25
   0   4   4 2559.19   70.30
   0  -4  -5    1.44    1.85
   0  -4   5    0.23    0.57
   0   4   5    1.75    2.57
   0  -4   5   -0.02    0.99
   0   4  -5    4.07    4.04
   0  -4  -6  146.10   20.92
   0   4   6  113.79   16.76
   0   4  -6  115.14   17.27
   0  -4   6  121.19   14.28
   0  -4  -7    0.35    1.89
   0   4  -7   -2.14    2.79
   0  -4   7   -2.92    2.90
   0   4   7   -1.12    1.45
   0  -4   8   84.76   13.41
   0  -4  -8   50.32   13.92
   0   4  -8   80.09   15.98
   0   4   8   52.11   13.11
   0   4  -9   -1.34    1.14
   0   4   9   -1.40    1.42
   0   4 -10   70.36   16.40
   0   4  10   83.20   18.96
   0   4 -11   -3.91    4.03
   0   4  11   -1.00    4.15
   0  -5   0   -0.43    1.51
   0   5   0    1.74    1.89
   0   5   0   -0.61    1.61
   0   5  -1  339.23   23.63
   0   5   1  303.06   17.99
   0  -5   1  295.53   22.57
   0  -5   2    0.89    1.19
   0   5   2   -0.16    1.98
   0   5  -2    1.83    0.45
   0   5   2    0.26    0.57
   0   5  -3  317.08   26.06
   0  -5   3  293.83   24.47
   0   5   3  333.09   26.57
   0  -5  -3  328.36   26.63
   0   5  -4    2.10    2.42
   0  -5  -4    2.30    2.13
   0  -5   4    1.32    2.40
   0   5   4    1.56    2.79
   0  -5   5  154.53   16.62
   0   5  -5  133.54   19.11
   0   5   5  124.15   17.99
   0  -5  -5  111.33   18.01
   0   5   6   -3.08    3.18
   0   5  -6    3.40    4.23
   0  -5   6   -0.02    1.26
   0  -5  -6   -2.43    3.80
   0  -5   7   88.83   12.99
   0  -5  -7  135.10   22.07
   0   5  -7   86.69   17.05
   0   5   7  105.04   18.10
   0   5  -8   -2.59    3.31
   0  -5  -8   -2.20    1.24
   0   5   8   -0.76    3.16
   0   5   9   89.70   19.17
   0   5  -9   55.20   15.12
   0  -5  -9  108.30   22.16
   0   5 -10   -1.73    4.41
   0   5  10   -3.45    5.13
   0   6   0   51.18    9.01
   0  -6   0   63.96   11.50
   0  -6   1    0.76    1.89
   0   6  -1   -0.94    1.36
   0   6   1    0.43    2.74
   0   6   1    0.04    0.60
   0   6   2  834.22   29.63
   0  -6   2  857.38   43.65
   0   6   2  872.99   46.10
   0   6  -2  866.98   44.21
   0   6   3   -0.41    0.80
   0  -6   3   -1.77    2.78
   0  -6  -3    0.79    1.59
   0   6   3    2.66    2.25
   0   6  -3    0.88    1.18
   0  -6   4   22.18    6.63
   0   6  -4   14.63    6.09
   0   6  -5    4.52    4.99
   0  -6   5    1.48    2.03
   0  -6  -5   -1.71    2.66
   0   6   5    0.54    1.87
   0  -6   6  639.17   36.85
   0   6   6  588.39   43.08
   0   6  -6  576.71   45.31
   0  -6  -6  637.08   47.37
   0  -6  -7    1.19    4.05
   0   6  -7   -4.25    4.85
   0   6   7    1.72    3.33
   0  -6  -8   78.13   18.16
   0   6   8   75.64   16.88
   0   6  -8   63.52   16.24
   0  -6  -9   -0.42    4.53
   0   6  -9    1.33    1.93
   0   6   9   -3.71    2.96
   0  -7   0   -2.03    3.49
   0   7   0   -1.38    2.06
   0  -7   1  298.26   27.57
   0   7   1  295.48   21.77
   0   7   1  293.16   29.35
   0   7  -1  293.29   25.64
   0  -7  -1  310.25   27.50
   0   7   2   -1.88    2.40
   0   7   2   -0.53    1.56
   0  -7   2    3.38    2.97
   0   7  -2   -2.80    2.87
   0   7   3   19.90    7.78
   0   7  -3   26.92    8.94
   0  -7   3   24.99    8.43
   0  -7  -4   -0.03    2.95
   0   7  -4   -3.28    4.58
   0   7   4    4.37    4.22
   0   7   5  157.68   22.96
   0  -7  -5  153.75   23.04
   0  -7   5  159.85   19.07
   0   7  -5  143.95   22.97
   0   7  -6   -0.79    3.89
   0  -7  -6    0.15    0.51
   0   7   6    3.62    3.55
   0   7  -7    2.10    3.54
   0  -7  -7   -0.06    2.76
   0   7   8   -0.09    2.53
   0   7  -8    4.36    2.40
   0  -7  -8    1.95    0.95
   0  -8   0  392.72   33.77
   0   8   0  367.25   28.64
   0  -8  -1    0.02    1.13
   0  -8   1   -2.35    4.03
   0   8  -1   -1.02    1.82
   0   8   1   -1.77    1.17
   0   8   1   -0.55    0.37
   0  -8   2   38.80   10.48
   0   8  -2   24.81    8.19
   0   8   2   49.31   12.72
   0  -8   3    0.65    1.01
   0   8   3    1.27    2.83
   0   8  -3    0.22    2.91
   0  -8  -4  280.67   32.88
   0   8  -4  246.96   30.06
   0   8   4  227.00   29.04
   0   8  -5    2.48    3.51
   0   8   5    3.27    4.59
   0  -8  -5    1.28    3.51
   0  -8  -6   21.17    9.49
   0   8  -6    7.96    5.65
   0   8   6   23.47    9.25
   0   8   7   -0.80   10.32
   0  -8  -7    3.02    5.91
   0   8  -7    5.54    5.00
   0  -9   0    0.05    2.68
   0   9  -1   76.18   14.90
   0  -9   1   72.50   16.43
   0  -9  -1   51.69   12.83
   0  -9  -2   -2.91    1.43
   0   9  -2   -5.82    5.38
   0   9   2    2.36    3.85
   0  -9   2   -0.67    2.29
   0   9  -3  140.25   22.93
   0  -9   3  141.92   22.70
   0   9   3  154.31   24.95
   0   9  -4   -5.15    5.67
   0  -9  -4   -4.71    4.93
   0   9   4   -1.49    0.61
   0   9  -5   -2.34    1.21
   0   9   5   -3.05    4.99
   0  -9  -5    2.82    2.94
   0   9   6    2.93    4.08
   0  -9  -6    4.44    5.84
   0   9  -6   -0.26    2.24
   0 -10   0   28.96   10.40
   0 -10  -1   -1.31    4.47
   0 -10   1   -1.05    2.92
   0  10  -2  112.44   20.80
   0 -10  -2  124.32   21.92
   0 -10   2  117.45   22.39
   0 -10  -3   -1.02    4.60
   0 -10   3    3.32    4.07
   0  10  -3   -3.43    2.80
   0 -10  -3    0.46    2.55
   0  10   3    4.56    5.12
   1   0  -2    8.40    2.32
  -1   0  -2    2.39    1.55
   1   0   2    2.26    1.42
   1   0  -2    6.55    1.84
  -1   0   2    5.73    1.91
  -1   0   2    0.91    0.89
   1   0  -3  418.23   18.33
   1   0  -3  485.20   19.04
  -1   0  -3  459.83   22.85
   1   0   3  434.33   22.50
  -1   0   3  487.93   18.34
  -1   0   4    9.20    3.27
   1   0   4    6.51    3.52
   1   0  -4    0.74    0.57
   1   0  -4    3.90    2.77
  -1   0   5  806.36   31.90
   1   0   5  803.67   37.78
   1   0  -5  851.87   32.62
  -1   0   6   19.55    5.75
   1   0  -6    2.34    2.63
   1   0   6   15.53    6.27
   1   0   7  360.59   29.22
  -1   0  -7  381.17   13.71
  -1   0   7  338.72   25.14
   1   0  -7  344.43   24.77
   1   0   8    2.03    2.17
   1   0  -8   -1.31    0.14
   1   0   9  459.91   37.81
   1   0  -9  436.56   32.06
  -1   0   9  441.98   33.18
   1   0 -10   -1.66    2.26
   1   0  10    7.06    4.54
  -1   0 -10    1.20    2.42
  -1   0  10    5.14    4.64
  -1   0 -11   21.59    7.14
   1   0  11   32.52   11.18
  -1   0  11   28.47    9.76
   1   0 -11   26.65    8.78
   1   0  11   34.36   11.12
  -1   0  11   23.52   10.13
   1   0  12    1.01    3.95
  -1  -1   0   -0.04    0.23
   1   1  -1  161.60    8.48
  -1  -1  -1  187.47   10.16
   1  -1  -1  156.46    9.54
  -1   1  -1  156.62    8.33
   1  -1  -1  181.73    9.98
  -1  -1   1  158.43    9.65
   1  -1   1  161.60   10.14
  -1  -1  -1  164.14    6.96
  -1  -1  -1  159.48    7.44
  -1  -1  -1  171.55    9.16
  -1  -1  -1  151.41    8.01
   1   1   1  161.22   10.05
  -1  -1  -1  154.59    9.98
  -1  -1   1  179.45    9.86
  -1   1   1  144.85    9.54
   1   1  -1  159.23    9.81
   1   1  -1  161.58    9.05
   1   1  -2  225.96    8.26
  -1   1   2  563.68   21.77
   1  -1  -2  272.20   13.82
   1   1   2  236.54   14.95
   1  -1  -2  355.42   17.05
  -1  -1  -2  249.70   15.65
   1  -1  -2  199.60    8.04
  -1   1  -2  219.50   13.37
   1   1  -2  199.59   12.93
   1  -1  -2  548.27   21.66
  -1  -1   2  189.29   12.01
  -1   1   2  201.70    7.66
  -1  -1   2  237.76    7.91
  -1  -1  -2  565.57   21.91
  -1   1   2  337.42   16.95
   1  -1   2  213.64   13.61
  -1  -1  -2  323.17   12.98
   1   1   2  349.47   13.32
   1   1   2  571.86   21.90
   1   1   3 1449.62   42.88
   1   1   3 1278.15   40.58
  -1   1   3 1388.86   39.90
   1  -1   3 1469.15   40.48
   1  -1  -3 1324.39   40.35
  -1  -1   3 1439.28   27.88
  -1   1   3 1295.74   39.64
   1   1  -3 1464.67   29.76
  -1   1  -3 1604.29   43.00
  -1  -1  -3 1570.96   44.62
   1   1   3 1371.26   32.91
   1  -1  -3 1526.29   27.66
   1  -1  -3 1486.91   37.00
  -1  -1  -3 1300.22   39.95
   1   1  -3 1498.87   39.98
   1   1  -4  172.02   14.92
   1   1  -4  191.79   13.09
   1   1   4  195.62   17.74
   1   1   4  240.32   16.28
   1  -1  -4  175.08   11.46
  -1   1   4  210.26   15.92
  -1  -1   4  196.90   12.77
   1  -1   4  186.47   16.09
  -1   1   4  238.16   18.38
  -1   1  -4  200.20   17.08
   1  -1   5  783.07   36.19
   1   1   5  742.91   37.96
  -1  -1   5  786.35   29.52
   1   1  -5  815.46   35.45
  -1   1   5  743.01   36.36
   1   1  -5  819.85   31.60
  -1   1   5  776.42   34.19
   1  -1  -5  847.10   28.91
   1   1   5  735.89   32.37
   1   1   6  525.57   34.47
  -1  -1   6  517.02   26.78
   1   1   6  519.14   30.33
   1  -1  -6  522.62   25.34
  -1   1   6  531.69   30.72
   1  -1   6  509.71   32.14
  -1   1   6  518.72   33.20
   1   1  -6  469.97   29.12
   1   1  -7  241.85   22.53
  -1  -1   7  241.76   19.91
   1  -1   7  250.97   23.91
  -1   1   7  238.81   22.75
   1   1   7  210.40   20.93
   1   1   7  245.45   24.97
  -1   1   7  213.33   23.10
   1  -1  -7  249.93   19.25
   1   1   8  497.85   35.26
  -1  -1   8  499.03   30.91
   1   1   8  486.51   37.53
   1  -1   8  527.03   36.78
   1  -1  -8  466.77   28.67
  -1   1   8  494.43   37.83
   1   1  -8  486.23   34.00
  -1   1   8  511.90   35.42
   1   1   9   52.46   12.82
   1   1   9   85.00   16.59
  -1  -1   9   78.93   13.30
   1  -1   9   81.90   15.39
   1   1  -9   76.02   14.16
  -1   1   9   74.18   15.82
   1  -1  -9   83.15   12.77
  -1   1   9   81.19   15.08
   1   1 -10  115.58   18.68
  -1  -1  10  131.05   18.25
   1   1  10  115.84   20.75
  -1   1  10  140.03   21.17
  -1   1  10  104.66   20.59
   1  -1  10  117.14   19.32
   1   1  10   99.98   18.83
  -1   1 -10   97.10   15.80
   1  -1 -10  104.59   15.07
  -1  -1 -10   90.71   13.62
   1   1  11   16.92    8.10
   1   1  11   15.87    7.53
  -1   1 -11   24.31    8.44
  -1   1  11    9.92    5.13
   1  -1  11   21.55    8.59
   1   1 -11   24.63    8.61
  -1  -2   0    0.36    1.05
  -1  -2   0    0.74    0.59
   1  -2   0    0.37    0.61
  -1  -2   0    0.00    0.30
  -1   2   0   -0.36    0.73
   1   2   0    0.78    0.99
  -1  -2   0    0.05    0.64
   1  -2   1 1201.94   29.41
  -1  -2  -1 1171.76   25.56
  -1  -2  -1 1183.55   30.28
   1   2   1 1249.47   29.41
   1   2   1 1148.90   24.97
   1   2  -1 1253.58   30.87
  -1   2   1 1195.82   33.08
   1   2  -1 1155.17   31.60
  -1  -2  -1 1242.42   29.00
  -1  -2   1 1201.29   31.78
  -1  -2   1 1189.63   29.71
   1   2   1 1180.31   30.60
   1   2  -1 1215.95   29.08
   1  -2  -1 1243.14   34.03
  -1  -2   1 1270.09   30.34
   1  -2   1 1256.35   32.31
  -1   2  -1 1196.61   28.82
  -1  -2  -2 1252.22   37.25
   1  -2  -2 1087.86   33.54
  -1  -2   2 1231.80   30.12
   1  -2  -2 1241.71   36.60
  -1   2  -2 1126.91   31.30
  -1  -2  -2 1078.60   20.12
  -1  -2   2 1078.87   20.03
   1  -2   2 1015.97   31.39
   1   2   2 1079.82   29.67
  -1  -2   2 1062.30   32.19
  -1  -2  -2 1158.08   30.49
   1   2  -2 1141.67   28.96
  -1  -2  -2 1042.92   24.22
   1   2  -2 1111.74   35.28
  -1   2   2 1087.37   35.00
   1   2   2 1063.27   34.40
  -1  -2  -2 1109.66   34.31
   1   2  -2 1133.19   31.44
   1  -2  -3 1038.04   39.12
   1   2   3 1116.32   33.23
  -1   2   3 1148.78   39.24
   1   2  -3 1088.76   28.51
   1  -2   3 1303.89   39.16
   1   2   3 1255.72   24.27
   1   2   3 1243.71   41.81
   1   2  -3 1334.32   42.77
  -1  -2  -3 1084.32   39.48
  -1  -2   3 1234.42   25.51
  -1  -2  -3 1161.29   33.77
   1   2   4   89.20   10.59
   1  -2   4   52.38    8.65
   1   2   4   51.23    9.55
  -1  -2   4   45.71    5.94
   1   2  -4  118.00    9.36
  -1  -2  -4  140.75   15.81
   1   2  -4   49.52    6.20
  -1   2   4   88.39   11.67
   1  -2  -4   43.72    4.41
  -1   2  -4   49.00    8.29
   1  -2  -4  145.75   15.99
   1   2  -4   43.52    8.33
  -1  -2   5   79.37    8.92
  -1   2   5   64.15   11.33
   1  -2  -5   88.68    7.68
   1   2  -5   58.72    6.67
   1   2   5   68.44   10.23
   1   2   5   77.23   12.54
   1   2  -5   86.15    9.82
   1  -2  -5   67.97   12.20
   1  -2   5   82.86   11.57
  -1  -2  -5   56.08   11.16
   1   2  -5   93.32   13.23
   1  -2  -6   80.32   13.70
  -1  -2   6   11.81    3.92
   1   2  -6    5.84    3.26
   1  -2   6   11.15    4.14
   1   2  -6    9.32    3.76
   1  -2  -6    7.94    2.78
   1   2  -6   53.90    6.20
  -1  -2  -6   82.70   13.98
   1   2   6   31.60    7.33
  -1   2   6   38.57    9.05
   1   2   6   19.45    7.04
   1  -2  -7  700.56   28.55
   1  -2   7  705.73   39.80
   1   2   7  693.05   39.07
   1   2  -7  663.51   21.70
  -1  -2   7  723.82   33.01
  -1   2   7  687.46   42.15
   1   2   7  711.29   44.65
   1   2  -7  705.68   41.16
   1  -2  -8    9.36    3.43
   1   2  -8   16.31    6.85
   1   2   8   17.89    7.58
   1   2   8   41.18    9.95
  -1  -2   8   18.37    5.54
  -1   2   8   33.94   10.05
   1  -2   8   19.84    7.04
  -1   2   9  112.61   19.99
  -1  -2   9  105.40   14.63
   1  -2   9  132.04   19.26
   1   2  -9   96.05   16.98
   1   2   9  109.96   20.32
   1  -2  -9   94.80   12.12
   1   2   9   95.67   16.99
  -1   2  -9   90.40   15.33
   1   2  10   13.06    6.44
  -1   2 -10    4.15    3.32
  -1   2  10    8.57    2.91
   1   2 -10    4.13    4.59
   1   2  10    6.72    5.58
   1  -2  10    8.51    5.52
   1  -2  11  148.93   22.39
   1   2  11  149.05   25.85
   1   2 -11  135.80   22.27
   1   2  11  134.87   22.80
  -1   2  11  139.45   25.25
  -1   2 -11  120.38   20.25
   1   3   0    0.04    0.54
  -1   3   0    1.11    1.59
  -1  -3   0   -0.35    0.68
  -1  -3   0    0.67    0.91
   1   3   0    0.39    1.24
   1  -3   0    0.31    0.29
  -1  -3   0    0.58    0.85
   1   3  -1 1174.10   36.27
   1   3   1 1184.94   29.56
  -1  -3   1 1151.49   34.23
   1   3   1 1140.00   34.97
  -1  -3   1 1158.88   36.83
  -1  -3  -1 1169.34   34.29
  -1   3   1 1103.26   36.97
  -1   3  -1 1139.52   37.42
  -1  -3   1 1238.82   35.82
  -1  -3  -1 1158.51   34.71
  -1  -3  -1 1186.19   28.73
   1  -3   1 1194.71   35.34
  -1  -3   1 1221.25   36.37
   1  -3   2   36.50    7.21
  -1  -3  -2   21.49    3.54
  -1  -3  -2   40.74    6.81
   1   3   2   44.77    7.12
   1   3   2   19.71    3.51
  -1  -3   2   34.95    7.19
  -1  -3  -2   28.90    3.40
   1   3  -2   26.40    6.37
  -1  -3   2   51.13    7.19
  -1   3   2   44.61    7.88
   1   3   2   30.33    6.69
   1  -3   3  177.10   15.19
  -1  -3   3  211.34   14.63
   1   3   3  166.35   16.65
   1   3  -3  158.08   16.19
  -1  -3  -3  206.37   18.17
  -1   3   3  192.28   17.49
  -1  -3  -3  170.36    9.88
   1  -3  -3  213.96   18.58
  -1  -3   3  169.64   10.80
   1   3   3  186.09   15.55
   1  -3   4  805.93   22.68
   1   3   4  797.52   20.80
  -1  -3  -4  744.74   22.70
   1   3   4  733.00   38.21
   1   3   4  800.31   34.79
  -1  -3  -4  894.38   41.84
   1  -3  -4  903.43   42.05
  -1   3   4  811.20   38.58
   1  -3   4  710.79   33.42
  -1  -3   4  709.05   24.59
   1   3  -4  704.97   37.10
   1  -3  -5  337.71   28.17
   1   3   5  329.51   24.20
   1   3   5  379.95   29.67
   1  -3   5  372.14   25.54
  -1  -3   5  365.37   19.03
   1   3  -5  399.96   29.44
  -1   3   5  343.08   27.18
  -1  -3  -5  333.91   28.03
   1   3   5  387.12   16.23
  -1  -3  -6  593.08   40.11
   1   3  -6  478.31   34.41
  -1  -3   6  484.86   24.55
   1   3   6  548.39   22.33
   1  -3   6  465.18   29.89
   1   3   6  508.67   32.34
  -1   3   6  521.43   35.38
   1   3   6  525.26   37.52
   1  -3  -6  619.20   40.93
   1  -3  -6  478.82   16.07
  -1  -3   7  224.54   17.94
  -1  -3  -7  190.37   24.50
  -1   3   7  211.92   24.10
   1   3   7  197.57   21.48
   1  -3   7  245.86   23.36
   1  -3  -7  183.35   24.04
   1  -3  -7  221.59   13.09
   1   3   7  227.34   26.59
   1   3  -7  233.03   25.31
   1   3   8  120.22   18.24
   1   3  -8  116.55   18.84
  -1  -3   8  132.30   14.85
   1   3   8  115.22   20.34
   1  -3   8  124.59   17.76
  -1   3   8  126.58   19.97
   1   3  -9   57.27   14.09
   1   3   9   47.24   12.05
  -1   3  -9   56.07   13.00
   1  -3   9   62.02   13.14
   1   3   9   50.06   14.99
  -1   3   9   51.71   14.18
   1   3 -10  205.87   27.85
  -1   3  10  213.67   29.12
  -1   3 -10  186.98   24.97
   1   3  10  205.19   29.66
   1   3  10  196.20   26.25
   1  -3  10  240.23   26.68
  -1   3 -11   31.13   11.04
   1   3  11   30.97   11.19
  -1   3  11   28.04   11.06
   1   3 -11   24.72   10.17
   1   3  11   35.12   12.70
  -1  -4   0    1.92    1.68
   1   4   0   -0.50    0.60
  -1  -4   0   -0.70    1.25
  -1  -4   0    1.08    1.71
  -1   4   0    0.09    1.38
   1  -4   0    0.92    0.86
  -1  -4   1  486.23   26.18
   1   4   1  515.82   22.65
  -1   4   1  477.67   28.14
  -1   4   1  500.62   18.85
   1   4   1  474.09   26.47
   1   4  -1  492.03   26.38
  -1   4  -1  486.78   28.65
   1  -4   1  467.77   25.17
  -1  -4  -1  519.52   21.46
   1   4   2   58.34    6.99
   1   4  -2   57.19    9.96
   1  -4   2   47.38    8.88
  -1  -4  -2   61.76    6.75
  -1   4   2   56.52    4.83
   1   4   2   53.04    8.78
  -1   4   2   46.90    9.03
  -1  -4   2   52.76    8.95
   1  -4  -3   53.06   10.53
   1   4  -3    8.80    4.50
   1   4   3   25.57    6.72
  -1  -4  -3   45.98    9.40
  -1  -4  -3   13.81    2.81
  -1   4   3   26.71    7.08
   1  -4  -4  460.66   31.54
   1   4  -4  323.30   27.25
  -1  -4   4  346.14   18.97
   1  -4   4  328.96   23.51
   1   4   4  360.92   25.17
  -1  -4  -4  415.05   29.91
  -1   4   4  344.43   27.03
  -1  -4  -4  307.55   12.63
   1  -4   4  413.60   20.27
   1  -4   5 1064.08   45.80
  -1  -4  -5 1054.22   52.49
   1  -4   5  991.53   29.77
  -1  -4   5 1042.15   34.48
   1  -4  -5 1018.20   52.37
   1   4   5 1015.95   51.72
   1   4   5  991.98   44.87
  -1   4   5 1035.64   50.12
  -1  -4  -5 1062.29   25.17
   1   4  -5 1039.40   51.40
   1   4  -6   63.17   13.37
  -1  -4   6   62.18    8.76
  -1  -4  -6  121.88   18.79
  -1   4   6   40.33    3.33
  -1  -4  -6   57.02    6.56
   1   4   6   94.25   14.86
   1   4   6   63.99   13.95
   1  -4   6   67.98   11.97
   1  -4  -6  120.62   18.60
  -1   4   6   78.42   14.20
   1   4  -7   47.44   12.13
   1  -4   7   43.27    9.58
   1   4   7   53.05   13.11
  -1  -4   7   43.68    7.76
   1  -4  -7   43.09   11.97
  -1   4   7   34.58    9.96
  -1   4  -7   46.03   10.91
  -1  -4  -7   37.54   10.93
   1   4   7   38.22    9.94
   1   4   8   27.14    8.59
  -1   4   8   15.35    7.82
   1   4   8   16.51    8.44
  -1   4  -8   12.93    6.60
   1   4  -8   18.67    8.60
   1  -4  -8   41.54   12.51
   1  -4   8   12.56    5.49
  -1  -4  -8   43.29   12.86
   1   4   9  260.27   29.76
   1  -4   9  276.52   27.71
  -1   4  -9  241.57   28.34
  -1   4   9  263.16   31.61
   1   4  -9  229.38   29.62
  -1   4 -10   12.58    6.96
   1   4  10   25.64    9.49
  -1   4  10   26.05   10.34
   1   4 -10   17.69    8.80
   1   4  11   23.13   10.38
  -1   4  11   27.89   11.01
  -1   4 -11   26.53   10.79
   1   4 -11   22.93   10.34
  -1  -5   0    1.52    2.65
  -1   5   0    1.50    1.77
   1  -5   0   -0.42    1.85
   1   5   0    0.25    1.75
  -1   5   0   -0.02    2.14
   1   5   1  579.60   27.32
  -1  -5   1  570.02   31.74
   1  -5   1  585.39   31.52
  -1   5  -1  542.45   28.08
  -1   5   1  600.49   24.43
   1   5   1  592.09   33.67
  -1   5   1  578.85   34.38
   1   5  -1  576.61   31.42
  -1  -5   2  252.23   21.62
  -1   5  -2  234.02   19.86
  -1   5   2  234.15   22.31
  -1  -5  -2  243.37   14.09
   1   5   2  253.91   15.91
  -1   5   2  254.57   12.96
   1  -5   2  252.99   21.69
   1   5  -2  232.73   21.53
   1   5   2  227.40   21.30
  -1  -5  -3  256.92   23.38
  -1   5   3  254.25   23.86
  -1  -5  -3  257.75   10.82
   1  -5   3  252.95   22.36
  -1  -5   3  256.24   22.78
   1   5   3  246.62   22.05
   1  -5  -3  259.66   23.75
  -1  -5  -3  251.36   12.85
  -1   5  -3  244.20   21.60
   1   5  -3  263.75   24.78
   1  -5   4  346.90   26.30
  -1  -5  -4  303.16   11.83
  -1   5   4  368.23   29.95
   1  -5  -4  411.15   31.44
   1   5  -4  345.24   30.17
   1   5   4  367.24   28.05
  -1  -5  -4  407.06   31.05
  -1   5  -4  291.73   25.16
  -1  -5   4  321.50   20.06
  -1  -5  -5   70.31   14.18
   1  -5   5   64.24   11.82
  -1  -5   5   63.80    9.40
   1   5  -5   53.13   12.65
   1   5   5   62.90   11.96
  -1   5  -5   59.46   12.19
   1  -5  -5   71.76   14.47
  -1  -5  -5   52.90    3.62
  -1   5   5   62.95   13.22
   1  -5  -6  206.31   26.41
   1   5   6  178.98   21.53
  -1   5  -6  161.69   21.28
   1   5  -6  167.47   23.37
   1  -5   6  153.21   18.91
  -1  -5   6  175.87   15.52
  -1   5   6  180.18   23.72
  -1  -5  -6  202.38   25.90
  -1   5  -7   74.81   14.95
   1  -5   7   81.52   14.27
  -1  -5  -7   70.40   16.61
   1  -5  -7   67.88   16.54
   1   5  -7   97.42   18.55
  -1   5   7   58.82   14.78
   1   5   7   63.90   13.73
   1  -5  -8  296.08   35.05
  -1  -5  -8  292.34   34.32
  -1   5  -8  225.37   28.14
   1  -5   8  259.44   26.14
   1   5   8  266.05   29.96
   1   5  -8  257.78   31.84
  -1   5   8  266.32   31.52
   1  -5  -9   74.61   18.93
   1   5  -9   83.41   18.94
  -1   5   9   61.82   15.88
  -1   5  -9   62.38   15.52
  -1  -5  -9   62.81   17.16
   1   5   9   65.33   15.02
  -1   5 -10   21.22    9.36
   1   5  10   14.85    6.40
   1   5 -10   23.93    9.55
  -1   5  10   19.01    9.88
   1   6   0   -0.07    0.30
  -1   6   0    3.52    3.12
  -1   6   0    1.99    2.53
  -1  -6   0    2.42    2.73
   1  -6   0   -0.54    0.89
  -1   6   1   10.49    3.85
   1   6   1   24.53    8.02
   1   6   1   10.38    4.40
  -1  -6   1    7.11    2.83
   1  -6   1   15.07    5.40
  -1   6  -1    4.34    3.74
  -1   6   1   31.73    9.01
   1   6  -1    1.41    1.33
  -1   6   2    6.97    5.15
  -1   6   2    0.64    0.63
   1   6   2    3.00    1.57
  -1  -6   2    5.63    3.36
   1  -6   2    3.17    2.77
   1   6  -2   -0.69    2.31
   1   6   2    8.15    4.74
  -1   6  -2    5.53    3.21
   1  -6  -3  542.40   36.95
   1   6   3  491.09   34.47
  -1  -6   3  494.00   34.67
  -1   6   3  443.07   13.84
   1   6   3  460.49   21.35
   1   6  -3  485.24   35.46
   1  -6   3  528.35   35.16
  -1  -6  -3  517.48   35.93
  -1   6   3  502.56   36.66
  -1   6  -3  522.47   35.36
  -1  -6  -3  468.92   15.48
  -1  -6   4   57.69    9.67
   1  -6  -4   74.12   14.63
   1   6  -4   62.33   13.74
   1  -6   4   62.07   12.26
   1   6   4   69.84   13.06
  -1   6   4   70.51   14.34
  -1  -6  -4   75.22   14.78
  -1   6  -4   58.83   12.82
   1  -6  -5   28.86    9.80
  -1  -6   5   18.81    5.52
   1   6  -5   20.83    7.94
  -1  -6  -5   34.04    9.79
   1   6   5   22.71    7.33
  -1   6   5   17.03    7.27
   1  -6   5   20.10    6.71
  -1   6  -5   18.61    7.54
   1   6   6  131.49   19.92
  -1   6  -6   90.00   17.24
  -1  -6  -6  152.29   23.18
   1  -6  -6  176.83   25.08
   1   6  -6  118.37   20.60
   1  -6   6  127.01   18.32
  -1   6   6  135.05   21.21
  -1  -6  -7  420.72   40.64
   1  -6   7  413.99   33.60
   1   6  -7  397.10   39.87
   1   6   7  380.46   34.80
   1  -6  -7  450.80   42.30
  -1   6  -7  395.88   37.80
  -1   6   7  389.64   37.70
   1  -6  -8   73.20   17.79
   1   6   8   55.52   14.13
  -1   6   8   46.09   13.74
   1   6  -8   48.86   14.50
  -1   6  -8   42.52   12.61
  -1  -6  -8   68.21   17.23
  -1   6   9   24.66   10.95
   1   6   9   14.12    6.61
  -1   6  -9   17.15    8.96
   1   6  -9   13.66    7.67
   1  -6  -9   26.05   11.52
  -1  -6  -9   13.11    7.29
   1  -7   0   23.98    8.89
  -1   7   0    9.34    5.68
   1   7   0   11.21    5.16
  -1   7   0   14.68    7.65
  -1  -7   0   25.64    7.53
   1   7   1  127.19   15.17
  -1   7  -1  127.42   16.68
   1   7  -1  121.24   16.83
  -1   7   1  148.43   20.99
   1   7   1  154.92   20.94
   1  -7  -1  115.83   16.75
   1  -7   1  145.92   19.24
  -1  -7   1  144.38   19.44
  -1   7   1  120.46   13.27
  -1  -7  -1  113.85   16.57
  -1   7  -2  107.58   16.29
   1   7  -2  110.45   17.06
  -1  -7   2  111.86   17.40
  -1   7   2  119.00   19.29
   1  -7   2  116.13   17.27
  -1   7   2  109.47   11.18
   1   7   2  128.86   19.11
   1   7   2  110.53   12.84
  -1   7  -3  136.16   19.83
   1   7   3  140.79   12.79
  -1   7   3  135.46   20.49
   1   7  -3  137.94   20.11
  -1  -7   3  144.51   20.47
   1  -7   3  163.54   21.35
   1   7   3  144.96   20.61
   1   7  -4   66.92   15.06
   1  -7  -4   77.65   16.29
  -1   7   4   61.00   14.78
   1   7   4   67.32   14.36
  -1  -7  -4   71.30   15.53
  -1   7  -4   74.00   15.72
  -1   7  -5   49.48   13.33
   1   7   5   48.34   12.62
   1  -7  -5   52.50   13.51
   1  -7   5   49.43   11.58
   1   7  -5   52.22   13.88
  -1  -7  -5   45.31   12.06
  -1   7   5   45.15   12.94
   1   7  -6  220.55   29.91
  -1   7  -6  188.75   26.80
   1  -7  -6  254.51   31.66
   1  -7   6  216.29   24.76
  -1   7   6  221.00   28.83
   1   7   6  239.12   28.40
  -1  -7  -6  257.45   31.89
  -1  -7  -7   14.14    6.49
   1   7   7   11.84    6.51
  -1   7   7   21.96    9.05
  -1   7  -7   21.50    9.18
   1  -7  -7   17.41    8.39
   1   7  -7   18.55    9.27
   1   7   8   55.92   14.79
  -1   7   8   53.94   15.33
  -1  -7  -8   48.59   14.96
   1   7  -8   40.45   13.58
   1  -7  -8   47.52   15.31
  -1   7  -8   40.76   13.12
  -1   8   0   -0.92    2.66
   1  -8   0   -0.40    3.02
   1   8   0    2.48    1.51
  -1  -8   0    2.40    3.69
   1  -8   1   33.06   10.21
  -1   8   1   29.96    7.32
  -1   8  -1   38.77    9.56
  -1  -8   1   42.33   11.28
  -1  -8  -1   29.36    9.81
   1  -8  -1   40.45   10.54
  -1   8   1   51.98   13.54
   1   8   1   33.95    8.19
   1   8  -1   33.29    9.29
  -1  -8   2   12.19    5.98
  -1   8   2    6.93    2.41
   1   8  -2    5.69    3.82
   1   8   2    9.46    6.39
   1  -8   2    7.03    5.43
  -1   8  -2   10.27    5.24
  -1   8   3   22.56    8.55
   1   8  -3    8.68    5.39
  -1  -8   3   13.40    6.73
   1  -8   3   17.36    7.54
   1   8   3   18.09    7.76
  -1   8  -3    9.75    5.33
  -1  -8  -4   14.49    7.49
   1   8  -4    5.67    3.64
  -1   8  -4    1.61    0.39
   1  -8  -4   11.91    6.45
   1   8   4    6.04    3.88
  -1   8   4    6.31    6.00
   1   8  -5  214.67   30.08
   1  -8  -5  243.35   31.14
   1   8   5  255.35   30.38
  -1   8   5  249.77   31.69
  -1  -8  -5  245.85   30.67
  -1   8  -5  241.21   30.83
  -1  -8  -6   52.12   14.58
  -1   8  -6   37.40   12.75
   1  -8  -6   55.91   15.40
   1   8  -6   37.08   13.16
  -1   8   6   44.42   13.77
   1   8   6   38.81   12.01
   1   8   7   25.90    9.05
   1  -8  -7   21.73   10.10
   1   8  -7   16.62    8.25
  -1   8  -7   13.02    6.57
  -1  -8  -7   19.60   10.45
  -1   8   7   11.12    8.47
   1  -9   0   -1.82    3.33
   1   9   0   -3.64    3.17
  -1  -9   0    0.88    2.00
  -1  -9  -1   26.06    8.61
   1   9  -1   25.42    8.56
  -1   9   1   32.12   11.27
   1  -9   1   39.63   11.69
  -1  -9   1   35.83   11.78
  -1   9  -1   29.84    8.73
   1  -9  -1   21.20    8.23
  -1  -9   2   11.88    6.27
   1   9  -2   10.63    6.35
  -1   9   2   -0.76    3.74
   1  -9   2   10.86    6.15
   1  -9  -2    4.36    2.79
  -1  -9  -2   -4.84    3.64
  -1   9  -2   -2.53    4.11
   1   9  -3   27.50   10.28
  -1   9  -3   21.77    9.21
  -1   9   3   34.37   12.02
  -1  -9   3   24.20    9.67
   1  -9   3   32.11   10.64
   1   9   3   33.80   11.12
   1   9   4  112.57   21.35
   1   9  -4   87.18   19.11
  -1   9   4  121.83   23.02
  -1   9  -4   77.66   17.59
  -1  -9  -4  167.66   27.36
   1  -9  -4  136.85   24.72
   1  -9  -5   54.61   15.15
   1   9   5   41.24   12.42
  -1   9   5   53.38   15.55
   1   9  -5   25.88   10.16
  -1  -9  -5   38.86   12.94
  -1   9  -5   35.25   12.35
  -1   9   6   14.79    8.41
   1  -9  -6   33.74   12.58
  -1  -9  -6   28.22   11.53
   1   9   6   40.08   13.31
   1 -10   0    2.51    3.73
  -1 -10   0   -4.42    3.97
  -1 -10   1   10.24    7.84
   1 -10   1    0.10    2.14
   1 -10  -1    3.32    1.21
  -1 -10  -1    4.09    3.81
   1 -10  -2   -2.08    1.67
   1 -10   2    2.06    0.81
  -1  10   2    7.82    7.41
   1  10  -2    2.80    2.78
  -1 -10  -2    1.31    3.93
  -1 -10   2   -0.98    3.04
  -1 -10  -3   41.70   14.17
  -1 -10  -3   38.01   11.50
   1 -10  -3   46.14   13.79
  -1 -10   3   30.10   11.33
   1  10   3   29.91   11.67
   1 -10   3   40.54   13.88
   1  10  -3   47.00   14.69
   1 -10  -3   47.95   14.77
  -1  10   3   48.82   15.20
  -1  10  -3   34.15   11.67
  -2   0   0  199.30   11.44
   2   0   0  188.16   10.42
  -2   0  -1   -0.33    0.33
  -2   0   1   -0.45    0.83
   2   0   1    0.66    0.88
   2   0   1    0.58    0.55
   2   0   1    0.90    1.22
  -2   0   1    0.38    0.39
  -2   0  -2 3100.17   58.96
   2   0   2 2941.30   46.32
   2   0  -2 3018.70   48.55
   2   0   2 2960.61   58.02
   2   0   2 2911.15   37.66
  -2   0   2 2963.34   46.50
  -2   0   2 3004.80   47.63
  -2   0   3  191.15   14.77
   2   0   3  161.37    8.34
   2   0   3  183.70   14.27
   2   0  -3   16.05    3.90
  -2   0   4  162.30   12.51
   2   0  -4  166.65   12.49
   2   0   4  153.28   16.11
   2   0  -4  159.36   13.48
   2   0   5    7.73    4.21
   2   0  -5    4.48    3.23
   2   0  -6  380.57   25.00
   2   0   6  378.06   30.40
   2   0  -7   -1.08    1.23
   2   0   7   12.88    6.68
   2   0   8   58.69   13.64
   2   0  -8   37.13    8.97
   2   0   9    3.72    3.79
   2   0  -9   -2.60    2.71
  -2   0  10   31.11   11.01
   2   0 -10   25.56    8.50
   2   0  10   29.06   10.03
   2   0  11    3.34    4.89
   2   0  11    7.55    6.11
   2   0 -11   -3.13    1.16
  -2   0  11    1.29    1.08
   2  -1   0  945.87   19.64
  -2   1   0  853.85   21.88
  -2  -1   0 1021.02   27.13
   2   1   0  877.51   25.98
   2  -1   0  900.42   22.63
   2   1   0  955.29   22.60
   2   1   0 1016.75   27.69
  -2  -1   0  989.58   23.67
  -2  -1   0  934.82   17.11
  -2  -1  -1 1009.55   22.73
  -2   1  -1  884.52   20.82
  -2  -1  -1  761.22   20.26
   2   1   1  857.44   25.43
   2   1   1 1016.99   29.15
   2   1  -1 1128.63   31.02
  -2   1   1  900.25   26.51
  -2   1  -1  983.95   20.50
   2  -1   1 1126.99   31.83
  -2  -1  -1 1026.39   28.93
  -2  -1   1 1100.78   29.79
  -2  -1  -1  899.01   26.12
   2   1  -1  960.92   20.47
  -2   1   1 1071.69   24.20
  -2  -1  -1 1124.52   28.81
   2  -1   1  909.31   21.79
   2  -1  -1  968.65   26.63
   2  -1  -1  748.40   20.29
  -2   1   2  454.00   19.56
  -2  -1  -2  434.58   17.84
  -2  -1   2  398.58   19.07
  -2   1   2  401.40   15.17
   2  -1  -2  430.84   20.44
  -2   1   2  404.01   20.10
   2   1   2  431.71   15.87
  -2  -1  -2  393.09   21.09
  -2  -1  -2  467.98   19.97
   2   1   2  411.60   12.19
   2   1  -2  386.11   19.94
   2   1   2  432.38   18.80
  -2   1  -2  417.77   21.79
   2  -1  -2  471.53   20.29
   2   1   2  370.57   20.91
   2  -1  -2  389.01   15.32
   2   1   2  416.45   17.36
   2  -1   2  377.83   20.79
   2   1  -3  884.06   20.00
   2   1  -3  871.20   32.48
  -2  -1   3  945.32   32.35
   2   1   3  880.27   23.50
  -2  -1  -3  927.84   33.58
  -2   1  -3  941.33   35.85
   2   1   3  877.76   36.89
   2   1   3  901.17   32.79
   2  -1  -3  879.92   25.09
  -2   1   3  948.75   33.94
   2  -1  -3  927.37   29.68
   2  -1  -3  879.19   32.93
   2  -1   3  863.63   35.09
  -2   1   3  926.12   24.33
  -2  -1  -3  887.04   25.79
  -2   1   3  839.55   33.27
   2   1  -4  604.51   29.67
  -2   1   4  605.66   20.91
   2   1  -4  587.85   20.81
   2   1   4  586.97   23.45
  -2   1   4  569.13   30.44
   2   1   4  576.67   32.44
   2  -1  -4  585.39   22.89
  -2  -1   4  556.30   17.90
  -2  -1  -4  586.75   21.69
   2  -1   4  573.29   31.00
  -2   1   5  386.02   27.46
   2   1  -5  364.13   24.79
   2   1   5  387.91   21.91
   2   1  -5  395.10   20.37
   2  -1  -5  411.90   21.43
  -2  -1   5  397.49   18.28
  -2  -1  -5  431.77   19.03
   2   1   5  391.16   29.07
   2  -1   5  372.68   27.09
   2   1   6  650.13   31.94
   2   1  -6  642.32   35.57
  -2  -1  -6  645.57   23.95
   2   1   6  683.13   41.12
  -2   1   6  656.86   38.87
   2  -1   6  676.00   38.93
   2   1  -6  689.68   30.38
   2  -1  -6  678.73   30.01
  -2  -1   6  682.70   27.62
   2  -1  -7    4.43    2.81
  -2   1   7   12.08    5.75
  -2  -1   7   12.26    4.31
   2   1   7   12.46    6.56
   2   1  -7   13.79    6.28
   2   1   7   19.76    6.20
   2  -1   7   13.03    6.55
  -2  -1  -7   28.89    5.14
   2   1  -8  164.96   20.02
   2  -1  -8  160.76   17.01
   2   1   8  135.52   17.64
   2   1   8  162.04   22.84
  -2  -1   8  162.12   16.44
  -2   1   8  150.56   22.27
   2  -1   8  167.35   22.17
   2  -1  -9   25.39    6.65
   2   1   9   22.97    7.89
   2   1   9   21.44    8.32
   2   1  -9   14.69    5.73
  -2   1   9   28.83   10.06
  -2  -1   9   26.77    7.55
   2  -1   9   24.38    9.34
   2  -1  10   42.09   12.53
   2   1  10   24.07    9.68
   2   1 -10   29.90    9.38
   2  -1 -10   28.22    7.88
  -2   1  10   15.95    8.14
   2   1  10   18.57    6.85
  -2   1  11   24.41   10.82
   2  -1  11   16.86    8.42
   2   1  11   26.71    9.71
  -2   1 -11   20.07    7.38
   2   1  11   26.67   11.07
   2   1 -11   22.54    8.42
   2   2   0 3137.53   55.72
   2   2   0 3184.14   53.85
   2   2   0 3197.81   44.19
  -2  -2   0 3199.29   45.47
  -2   2   0 3165.89   53.27
  -2  -2   0 3251.99   53.77
  -2  -2   0 3224.74   55.70
   2  -2   0 3310.37   55.66
  -2  -2   0 3157.70   46.60
  -2  -2   0 3234.90   47.27
   2  -2   1   80.27    7.43
   2  -2  -1   72.37    4.93
   2   2   1   66.45    7.90
  -2  -2  -1  111.63   10.34
  -2  -2   1  106.34   10.23
  -2   2  -1   76.65    7.28
   2   2  -1   76.56    7.26
   2   2  -1  119.57   11.11
  -2   2   1   98.01   10.11
  -2  -2  -1   58.55    7.01
  -2  -2  -1  100.81    7.70
   2   2   1  109.26    8.24
   2  -2  -1  102.15   10.05
  -2  -2   1   79.20    7.53
  -2  -2  -1   61.87    7.87
   2   2  -1   52.84    7.65
  -2  -2   1   61.08    4.71
   2   2   1  126.97   11.16
   2  -2   1   97.33    9.45
  -2  -2   1   52.69    7.22
  -2   2  -1  100.83    9.32
   2   2   1   60.75    7.23
   2   2  -2  257.59   18.05
   2   2  -2  314.77   16.41
  -2   2   2  292.11    9.29
  -2   2  -2  311.25   16.40
   2  -2   2  356.56   18.61
  -2  -2  -2  396.49   20.72
  -2  -2  -2  286.43   19.28
  -2   2   2  331.74   20.19
  -2  -2  -2  322.62   14.55
   2  -2   2  259.85   18.18
   2  -2  -2  375.88   19.97
  -2  -2  -2  288.39   12.97
  -2  -2  -2  280.62   15.71
   2  -2  -2  306.38   19.63
   2   2   2  311.00   14.22
   2   2   2  280.37   19.05
   2   2  -2  351.82   18.99
  -2   2   2  251.27   10.60
  -2  -2   2  274.13   18.13
  -2  -2  -2  371.54   19.10
   2   2  -3  183.36   13.98
   2   2   3  197.89   11.76
  -2  -2  -3  212.52   17.53
   2   2  -3  180.91   16.67
  -2   2   3  178.51    8.46
   2  -2   3  186.98   16.69
  -2  -2  -3  206.12   14.48
  -2   2   3  182.18   16.21
   2   2   3  179.35   17.16
   2  -2  -3  172.46    9.14
   2  -2  -3  220.38   17.66
   2   2   3  185.18   12.42
  -2  -2  -3  182.08   12.48
   2  -2   4 1168.11   44.61
  -2   2   4  957.72   41.32
   2   2   4 1146.78   30.35
   2   2  -4 1122.61   23.27
   2   2  -4 1125.04   44.16
   2   2   4 1034.44   33.40
   2  -2  -4 1121.16   25.77
  -2  -2   4 1108.43   20.76
   2   2   4 1094.59   46.95
   2  -2  -4  946.02   40.72
  -2  -2  -4  930.70   40.94
  -2  -2  -4 1011.32   33.07
   2   2  -4  956.98   32.67
  -2  -2  -5  500.49   33.28
   2  -2   5  282.91   23.88
   2  -2  -5  492.02   32.62
   2   2  -5  304.37   16.04
   2   2   5  378.66   22.40
   2   2  -5  424.24   21.66
   2   2   5  286.94   26.19
   2  -2  -5  289.25   15.41
  -2  -2   5  302.77   14.01
   2   2  -5  270.05   23.39
  -2   2   5  360.89   27.78
  -2   2   6    2.87    4.35
   2   2  -6    2.54    2.12
   2  -2   6    0.70    0.61
   2   2   6    3.53    2.96
   2  -2  -6    0.63    1.17
   2   2  -6   -0.13    2.19
  -2  -2   6    1.47    0.94
   2   2   6    3.35    3.01
   2   2  -6    1.82    1.18
   2   2   7    5.40    4.65
  -2  -2   7    6.96    3.08
   2   2  -7   53.60    7.74
   2   2  -7   -0.62    2.91
   2  -2  -7    0.90    1.28
  -2   2   7   34.82    9.96
   2  -2   7    5.74    2.99
   2   2   7   29.39    7.45
  -2  -2   8    8.04    3.72
   2  -2  -8   11.97    4.29
  -2   2   8    7.51    5.08
   2   2  -8    0.81    0.84
   2  -2   8   11.29    5.80
   2   2  -8    9.18    5.60
   2   2   8    2.63    3.56
   2   2   8   12.34    5.84
  -2   2   9   17.76    7.57
  -2  -2   9   11.34    4.59
   2   2   9   20.32    7.42
   2   2   9    5.58    4.22
   2  -2   9    4.14    4.19
   2   2  10   27.63    9.60
   2   2 -10   16.32    7.58
   2   2  10   24.28   10.06
  -2   2  10   28.91   10.99
   2  -2  10   24.75    9.48
  -2   2  11   10.30    7.82
   2   2  11    8.88    4.88
   2   2 -11   -6.61    6.51
  -2   2 -11    1.34    2.72
   2  -2  11    1.11    1.39
   2   2  11    8.54    6.44
   2   3   0  119.41   11.87
  -2  -3   0  148.86   11.19
  -2  -3   0  110.38   10.93
  -2   3   0  260.04   18.06
  -2  -3   0  176.09   13.09
  -2  -3   0  280.61   16.94
   2  -3   0  156.49   12.43
   2   3   1 1048.81   34.25
   2   3  -1  948.26   35.37
  -2   3   1 1003.24   36.93
  -2  -3  -1 1125.69   32.91
   2   3  -1 1049.04   37.79
   2   3   1 1071.02   32.67
  -2  -3   1 1047.77   33.59
  -2  -3   1 1027.66   23.96
   2   3   1 1003.20   32.15
  -2  -3  -1 1094.16   34.55
  -2  -3  -1 1031.40   31.47
  -2   3  -1  962.89   35.43
   2  -3   1 1030.47   33.42
  -2  -3   2  891.63   17.43
   2  -3   2  901.33   31.98
  -2   3   2  884.09   37.29
   2   3   2  912.62   36.57
   2   3   2  877.98   29.93
  -2  -3   2  861.13   32.00
  -2  -3  -2  906.58   30.13
   2   3  -2  868.79   33.03
  -2  -3  -2  960.50   29.83
   2   3  -2  916.12   37.68
  -2  -3  -2  880.12   23.06
   2  -3  -2  852.02   33.84
  -2  -3  -2  829.38   33.02
   2  -3  -3  587.95   30.62
  -2  -3  -3  556.24   29.80
  -2  -3  -3  718.49   26.13
  -2  -3  -3  615.74   26.16
   2   3  -3  585.02   27.25
   2  -3   3  667.37   32.66
  -2  -3   3  644.07   14.24
   2   3  -3  653.55   34.49
  -2   3   3  619.16   33.20
   2   3   3  614.84   33.40
   2   3   3  570.84   25.29
   2   3   4  632.12   28.78
  -2   3   4  597.38   34.52
  -2  -3  -4  612.99   34.61
  -2  -3   4  627.97   15.61
   2   3   4  642.85   37.04
  -2  -3  -4  710.57   26.58
   2  -3  -4  621.21   35.37
   2   3  -4  615.40   27.91
   2   3  -4  596.00   34.87
   2  -3   4  648.86   34.95
  -2   3   5   83.10   13.99
   2   3   5   89.79    9.02
   2   3   5   66.57   12.96
   2  -3   5   71.77   12.60
  -2  -3   5   77.00    6.55
   2   3   5   87.09   11.66
   2   3  -5   89.16   10.52
   2   3  -5   69.26   12.92
  -2  -3  -5   95.66   14.88
   2  -3   5   81.52    5.44
   2  -3  -5   96.99   15.19
   2  -3  -6   89.22   15.88
  -2   3   6   86.56   15.45
  -2  -3   6  104.15    9.04
   2   3   6   92.01   12.91
   2   3   6   97.68   16.74
  -2  -3  -6   90.26   15.85
   2   3  -6   90.29   10.59
   2   3  -6  103.11   16.26
   2  -3   6  109.52   15.99
   2  -3  -6   93.95    7.39
  -2  -3   7   21.71    4.60
   2   3   7   26.44   10.11
   2  -3  -7   19.83    4.02
   2   3   7   32.91    8.19
  -2   3   7   26.97    8.92
   2   3  -7   21.40    7.91
  -2  -3  -7   34.75   10.86
   2  -3  -7   25.52    9.74
   2   3  -7   28.03    5.84
   2  -3   7   22.96    7.50
   2   3  -8  122.99   20.14
   2  -3   8  134.92   19.94
  -2   3   8  109.50   19.41
   2   3   8  118.41   17.78
  -2  -3   8  132.17   12.89
   2   3   8  134.08   22.84
   2   3   9    1.86    3.79
  -2   3   9    4.77    4.21
   2   3   9    8.63    5.22
   2   3  -9    3.60    2.01
   2  -3   9    1.68    4.48
  -2   3  10   23.43   10.81
   2   3 -10   25.89    9.77
   2   3  10   24.86    9.00
   2   3  10   32.54   11.94
   2  -3  10   42.41   11.95
   2   3  11   35.82   13.39
  -2   3  11   60.83   17.10
   2   3  11   38.73   12.08
   2   3 -11   32.48   11.02
  -2   3 -11   21.29    8.66
  -2  -4   0  445.09   24.09
   2  -4   0  432.38   23.85
   2   4   0  445.20   25.62
  -2  -4   0  454.97   21.71
  -2   4   0  486.90   28.54
  -2   4   1  220.28   19.73
  -2  -4  -1  193.88   14.71
  -2  -4   1  216.31   17.46
   2  -4   1  210.31   16.96
   2   4  -1  205.92   18.20
  -2  -4   1  206.01   12.81
   2   4   1  191.82   15.17
  -2   4  -1  243.17   20.22
   2   4   1  239.71   18.54
   2   4  -2 1426.88   51.39
   2  -4   2 1424.51   46.31
  -2  -4   2 1438.49   47.29
  -2  -4  -2 1502.14   38.98
   2   4   2 1374.32   44.04
   2   4   2 1458.75   40.91
  -2  -4   2 1416.18   29.68
  -2   4   2 1371.92   50.55
  -2  -4  -3  192.72   11.29
  -2  -4  -3  199.03   14.23
  -2   4   3  206.85   20.93
  -2  -4  -3  246.62   21.86
   2  -4   3  173.23   18.46
   2   4   3  199.62   20.06
   2  -4  -3  238.49   22.23
   2   4   3  205.48   17.35
   2   4  -3  195.33   20.19
  -2  -4   4   22.90    3.69
   2   4   4   31.03    7.21
   2  -4  -4   37.81    9.39
  -2  -4  -4   36.60    8.78
  -2   4   4   31.19    8.40
   2  -4   4   20.47    6.33
   2   4  -4   16.43    5.54
   2   4   4   20.59    7.27
  -2  -4  -4   21.85    4.71
   2  -4   5   78.01    7.89
   2   4  -5   41.43    9.99
  -2  -4   5   51.19    5.54
   2  -4   5   58.38   11.72
  -2  -4  -5   52.29    7.30
   2   4   5   73.98   11.58
   2  -4  -5   99.60   15.78
  -2  -4  -5   92.95   14.97
  -2   4   5   69.66   13.40
   2   4   5   42.08   10.60
   2   4  -6  125.98   19.13
  -2   4   6  102.65   17.52
   2  -4  -6   84.44   16.04
   2   4   6  112.21   18.62
   2  -4   6  127.98   18.47
  -2  -4  -6   83.50   15.68
  -2  -4   6  114.16    9.05
   2   4   6   87.96   13.80
   2  -4  -7  168.04   23.85
  -2  -4  -7  163.06   23.25
   2  -4   7   89.44   15.43
   2   4  -7   75.56   15.60
  -2   4   7  119.31   19.58
   2   4   7  135.40   18.28
   2   4   7   94.69   18.73
   2   4   8    2.37    0.72
  -2   4   8    6.70    5.99
   2   4   8    2.17    2.79
  -2  -4  -8    2.15    3.23
   2   4  -8    3.60    3.77
   2  -4  -8   -0.67    2.89
   2  -4   8    0.20    3.82
   2   4   9   10.58    7.56
  -2   4   9   15.33    7.59
   2   4   9   15.33    6.40
   2   4  -9   -1.56    3.76
   2  -4   9    5.41    2.85
   2   4  10   15.78   10.27
   2  -4  10   11.79    6.44
  -2   4  10   11.88    6.70
   2   4  10   17.64    8.30
   2   4 -10    1.56    1.43
  -2   4 -10    7.75    5.62
   2   5   0  619.77   32.88
   2  -5   0  581.52   30.95
  -2   5   0  606.83   35.93
  -2  -5   0  590.80   31.28
   2   5  -1  712.22   37.19
  -2  -5   1  726.49   36.05
   2  -5   1  726.51   35.66
   2   5   1  738.69   33.08
  -2   5   1  673.72   38.48
  -2   5  -1  686.32   38.11
   2   5   1  668.32   35.45
  -2  -5   2  352.68   25.58
   2  -5  -2  300.45    9.50
  -2   5   2  342.83   14.92
  -2   5   2  384.10   29.37
   2  -5   2  331.24   24.73
  -2  -5   2  337.14   17.57
   2   5  -2  288.30   25.10
   2   5   2  355.12   21.71
   2   5   2  399.12   26.95
  -2  -5  -3  198.45   11.76
   2  -5  -3  200.54   21.05
   2  -5   3  192.11   19.76
  -2  -5  -3  190.45   20.55
   2   5  -3  205.43   22.47
  -2  -5   3  197.99   20.01
  -2   5   3  206.39   22.55
   2   5   3  181.50   18.59
  -2  -5  -3  205.75   14.47
   2  -5  -4  174.66   20.65
  -2  -5  -4  154.92   19.24
   2  -5   4  171.45   20.08
   2   5  -4  154.13   20.34
  -2  -5   4  153.27   11.66
  -2   5   4  139.81   19.91
   2   5   4  142.84   16.94
  -2  -5  -4  155.43   12.03
  -2   5   5   77.24   15.07
   2   5  -5  100.42   17.16
  -2  -5  -5   90.39   16.00
  -2  -5   5   86.67    8.35
   2   5   5   83.33   13.74
   2  -5   5   89.84   15.06
   2  -5  -5   95.93   17.04
  -2  -5  -6   85.80   16.38
   2  -5   6  118.70   17.84
   2  -5  -6  107.22   18.47
   2   5  -6   97.51   17.86
   2   5   6   91.03   14.73
  -2   5   6   88.51   16.93
   2   5   6   98.09   18.58
   2   5   7   10.56    6.19
  -2  -5  -7   13.78    6.75
   2  -5  -7    7.71    5.51
  -2   5   7   12.62    6.73
   2  -5   7    9.12    4.95
   2   5  -7    2.85    3.36
   2   5   7    7.58    4.57
  -2   5   8   14.90    7.48
   2   5   8   19.10    8.09
  -2  -5  -8   16.43    8.75
   2   5  -8   15.42    7.88
   2  -5   8   22.63    8.10
   2  -5  -8   15.41    7.95
  -2   5   9    7.46    6.16
  -2  -5  -9   -0.20    3.84
   2  -5  -9    5.67    6.22
   2   5   9    2.74    3.21
   2   5  -9    4.14    4.90
  -2   5  -9    1.39    3.95
  -2   5  10   11.88    8.03
   2   5 -10   12.63    7.04
   2   5  10   18.61    7.68
  -2   5 -10   15.75    8.05
   2  -6   0  756.82   38.81
  -2   6   0  767.23   33.15
   2   6   0  812.05   40.72
  -2  -6   0  745.22   39.28
  -2   6   0  754.02   44.05
  -2  -6   1   13.46    5.29
  -2   6   1   22.87    7.62
   2  -6   1   14.08    5.39
  -2   6  -1   16.84    5.62
   2   6  -1   15.64    5.78
   2   6   1   17.72    5.41
  -2   6   1   22.12    5.10
   2  -6   2  140.61   17.97
   2   6  -2  128.62   17.82
  -2  -6   2  153.29   18.50
  -2   6   2  165.67   21.09
   2   6   2  146.99   15.20
  -2   6   2  135.12   10.80
   2   6   2  164.82   19.54
   2  -6  -3   81.87   14.31
  -2  -6  -3   59.12    6.67
   2   6  -3   56.06   11.88
   2  -6   3   56.12   11.63
  -2  -6   3   61.03   12.24
  -2   6   3   53.98    4.50
  -2   6   3   74.46   14.71
  -2  -6  -3   79.52   14.24
   2   6   3   64.50   12.42
   2   6   4  226.97   23.77
  -2  -6   4  267.21   18.26
  -2  -6  -4  246.66   26.33
   2  -6   4  269.41   26.57
  -2   6   4  230.97   27.04
   2   6  -4  241.51   27.55
   2  -6  -4  222.03   25.63
   2  -6  -5   87.18   16.58
  -2   6   5   56.75   13.71
   2   6  -5   49.15   12.75
   2  -6   5   44.96   11.09
  -2  -6  -5   76.10   15.13
   2   6   5   61.74   12.65
  -2   6   6    7.70    5.27
   2   6   6    9.60    6.02
   2  -6  -6   15.75    7.06
  -2  -6  -6   15.19    7.08
   2   6  -6    2.68    3.06
  -2   6  -6    7.74    4.66
   2  -6   6    9.83    5.55
   2   6   7   40.07   10.70
  -2   6   7   38.94   12.37
  -2   6  -7   22.50    8.40
   2   6  -7   19.41    8.19
  -2  -6  -7   49.87   14.04
   2  -6   7   34.88   10.87
   2  -6  -7   47.82   14.14
  -2  -6  -8   -0.27    3.71
  -2   6  -8    0.02    3.23
  -2   6   8    3.74    3.14
   2   6   8   -0.13    3.14
   2   6  -8   -0.54    0.62
   2  -6  -8   10.37    7.01
   2   6   9   31.23    9.98
  -2   6   9   14.78    7.87
   2  -6  -9   38.77   13.64
   2   6  -9   19.82    9.65
  -2   6  -9   17.10    8.96
   2   7   0  284.99   25.83
   2  -7   0  267.25   25.88
  -2  -7   0  285.57   26.33
  -2   7   0  268.09   21.94
  -2   7   0  313.71   31.03
  -2  -7   1  233.59   24.61
   2  -7   1  210.79   23.77
   2  -7  -1  202.49   22.78
  -2   7  -1  212.49   21.01
  -2  -7  -1  207.58   22.18
  -2   7   1  237.23   18.70
   2   7  -1  190.01   22.32
   2   7   1  206.42   20.70
  -2   7   1  220.07   25.86
   2   7   2  111.26   14.24
  -2   7   2  117.83   19.24
   2  -7   2  101.94   16.40
  -2   7  -2  112.70   16.31
  -2   7   2   97.47   10.10
  -2  -7   2  117.77   17.76
   2   7  -2  107.31   17.53
   2   7   2  121.69   18.46
  -2   7  -3  175.46   21.54
   2  -7   3  188.20   23.17
   2   7  -3  182.55   24.07
  -2  -7   3  181.00   22.76
   2  -7  -3  197.47   23.84
   2   7   3  194.26   17.12
   2   7   3  179.92   22.45
  -2   7   3  178.09   24.48
  -2  -7  -4   65.80   14.76
   2   7  -4   38.19   11.97
  -2   7   4   55.62   14.94
   2  -7  -4   68.20   14.89
   2  -7   4   51.69   12.74
   2   7   4   54.42   12.50
  -2   7  -4   38.53   10.64
  -2   7   5   62.82   15.52
   2  -7   5   69.48   14.26
  -2   7  -5   61.87   14.02
   2  -7  -5   67.80   15.22
  -2  -7  -5   48.89   12.99
   2   7   5   54.77   12.94
   2   7  -5   63.82   15.44
  -2   7  -6   32.52   10.89
  -2   7   6   26.53   11.06
   2   7   6   35.88   11.19
   2   7  -6   32.12   11.65
   2  -7  -6   31.40   11.03
   2  -7   6   31.37    9.86
  -2  -7  -6   33.03   11.36
   2   7   7    4.73    4.33
  -2   7   7    1.86    3.85
   2  -7  -7    5.46    4.79
   2   7  -7    4.05    4.80
  -2   7  -7    0.76    2.55
  -2  -7  -7    3.02    4.26
   2  -7  -8    4.31    5.04
  -2  -7  -8    3.90    3.06
  -2   7   8    7.95    6.89
   2   7  -8    9.28    4.10
   2   7   8    8.34    6.33
  -2   7  -8    2.17    1.26
  -2   8   0   78.68   12.94
  -2  -8   0   84.81   15.67
   2   8   0   66.26   12.93
   2  -8   0   81.69   14.72
  -2   8   0  112.87   20.17
  -2  -8  -1    0.61    1.35
   2   8   1    2.14    2.66
  -2   8   1   -0.41    1.39
  -2   8  -1    3.55    3.21
   2   8  -1    3.83    3.73
   2  -8  -1    2.11    1.45
   2  -8   1    3.96    4.72
  -2  -8   1    4.89    3.55
   2  -8   2  184.98   24.02
  -2  -8  -2  158.00   22.36
  -2   8  -2  169.14   21.72
   2   8  -2  169.69   23.55
  -2  -8   2  185.96   24.04
  -2   8   2  160.80   24.51
  -2   8   3    2.73    1.93
  -2  -8   3   -1.22    2.43
   2  -8   3    8.76    5.10
   2   8  -3    7.94    4.95
   2   8   3    7.88    5.97
   2  -8  -3   10.60    6.61
  -2   8  -3    5.45    3.25
   2   8  -4   83.29   18.19
  -2   8  -4   76.86   16.35
   2  -8  -4  116.64   21.29
  -2  -8  -4   98.45   19.26
  -2   8   4   75.29   17.12
   2   8   4   76.87   16.29
   2  -8   4   79.89   16.98
  -2   8   5   36.80   13.24
   2   8   5   34.69   11.46
   2   8  -5   17.25    9.14
  -2   8  -5   17.02    7.68
  -2  -8  -5   41.24   12.29
   2  -8  -5   42.61   13.18
   2  -8   5   14.05    7.16
   2   8  -6   18.21    9.70
   2   8   6   14.13    7.20
  -2   8   6   24.49    9.61
  -2   8  -6   26.29    9.79
   2  -8  -6   21.75    9.24
  -2  -8  -6   20.67    9.99
  -2   8   7   21.84   10.43
  -2   8  -7    0.07    3.97
   2   8   7   20.79    9.18
   2   8  -7    6.64    6.30
  -2  -8  -7   25.38   10.56
   2  -8  -7   17.79    9.14
   2  -9   0   17.73    8.47
  -2  -9   0   20.18    7.98
   2   9   0   16.29    7.03
  -2   9  -1   82.39   14.99
  -2  -9  -1   65.03   15.03
  -2  -9   1   80.83   16.60
   2  -9  -1   69.63   14.87
  -2   9   1   83.01   18.49
   2   9  -1   76.27   15.70
   2  -9   1   73.78   16.38
  -2  -9   2   40.90   12.28
  -2   9   2   57.41   15.32
   2  -9  -2   33.15   10.46
  -2   9  -2   33.66   10.07
   2  -9   2   46.03   13.11
  -2  -9  -2   32.56   10.19
   2   9  -2   35.99   11.55
   2   9  -3   90.85   19.11
   2  -9   3   81.08   16.80
  -2  -9   3   83.80   17.80
   2  -9  -3   93.96   19.67
  -2  -9  -3   91.16   19.36
  -2   9   3   97.87   20.87
  -2   9  -3   86.51   17.43
   2   9   3   88.69   18.58
   2   9  -4   24.19   11.02
   2   9   4   24.81   10.15
  -2   9  -4   13.66    7.18
  -2  -9  -4   30.64   11.03
   2  -9  -4   39.44   13.20
  -2   9   4   20.55    9.80
  -2   9   5   35.12   13.96
   2   9   5   37.69   12.29
   2   9  -5   21.00    9.71
   2  -9  -5   34.07   12.40
  -2   9  -5   16.99    8.75
  -2  -9  -5   36.72   12.47
  -2 -10   0   43.17   13.27
   2 -10   0   49.32   14.75
   2 -10  -1   -4.17    4.68
  -2 -10  -1   -6.11    6.32
   2 -10   1   -2.83    5.87
  -2 -10   1    1.15    3.17
   2  10  -2   57.48   15.34
  -2 -10  -2   51.88   14.35
   2 -10   2   58.70   15.94
  -2 -10   2   61.27   15.69
   2 -10  -2   54.14   14.63
  -2  10   2   76.94   19.11
  -3   0   0    0.52    0.48
  -3   0   0    0.18    0.51
  -3   0   0    0.70    0.83
   3   0   0    0.82    1.38
   3   0  -1  715.55   26.73
   3   0   1  742.33   23.06
  -3   0  -1  715.63   22.64
   3   0   1  727.81   15.88
  -3   0   1  714.78   16.38
   3   0   1  699.50   28.04
  -3   0   1  717.16   25.92
  -3   0  -1  739.96   28.46
   3   0   2    0.35    0.28
   3   0   2    0.21    0.34
   3   0   2    0.81    1.42
  -3   0   2   -0.26    0.67
   3   0  -2   -0.21    0.33
  -3   0   2    0.69    0.61
  -3   0  -2    0.12    1.32
   3   0   2    2.74    1.98
  -3   0   3 4976.74   72.47
   3   0   3 4849.60   74.07
   3   0  -3 4788.21   76.13
  -3   0   3 4761.04   76.96
   3   0   3 4677.21   88.50
   3   0   3 4770.16   59.31
   3   0  -4    0.35    0.69
   3   0   4    2.18    1.07
   3   0  -4    0.77    0.38
   3   0   4    0.40    2.13
   3   0   5    1.33    2.03
   3   0  -5    2.17    1.50
   3   0  -5    0.56    1.57
   3   0  -6    1.10    1.99
   3   0   6    0.60    2.77
   3   0   7  841.84   50.94
   3   0  -7  855.93   42.10
   3   0  -8    1.45    2.31
   3   0   8    3.61    4.66
   3   0  -9   95.61   15.78
   3   0   9  110.23   20.32
   3   0  10    1.08    3.93
   3   0 -10   -1.56    2.75
   3   0  10   -2.62    2.26
  -3   0  10    1.61    2.78
   3   0  11   44.88   14.43
   3   0 -11   58.02   13.42
  -3   0  11   47.49   15.41
   3   0  11   27.81    9.56
   3  -1   0    4.08    1.72
   3   1   0    3.11    1.65
   3  -1   0    0.13    0.44
   3   1   0    1.06    1.24
   3  -1   0    3.06    1.66
  -3   1   0    0.97    1.16
  -3   1   0    1.19    0.73
   3   1   0    1.06    1.25
  -3  -1   0   -0.02    0.30
  -3  -1   0    1.48    1.84
  -3  -1   0    0.10    0.79
  -3   1  -1   12.15    2.64
   3  -1  -1   20.45    3.89
  -3   1   1   53.23    5.93
  -3  -1  -1   28.01    4.50
   3   1   1   14.81    3.98
   3  -1   1   17.01    3.32
   3   1  -1   23.55    3.14
   3  -1   1   25.30    4.19
  -3   1  -1   25.79    3.30
  -3   1   1   27.82    6.33
   3  -1   1   36.64    6.72
   3  -1  -1   27.89    5.97
  -3  -1  -1   32.63    5.83
  -3  -1   1   39.97    6.61
  -3  -1  -1   34.08    6.21
   3   1   1   34.16    6.02
   3   1  -1   37.56    6.40
  -3   1   1   81.39    8.48
   3   1  -1   36.16    4.53
  -3  -1  -2  913.09   27.43
  -3  -1  -2 1044.66   32.44
   3   1   2  976.25   28.04
  -3   1   2  901.92   32.35
   3  -1  -2  807.08   27.35
  -3   1   2  983.32   28.46
   3   1   2 1007.01   28.97
   3   1  -2  824.41   32.88
  -3   1  -2  943.58   36.87
  -3   1   2  900.93   27.77
   3  -1   2  874.97   35.42
   3   1   2  872.49   35.12
   3  -1  -2  987.66   28.89
  -3  -1  -2  926.11   36.23
  -3  -1  -2 1029.90   29.72
  -3  -1   2  902.65   32.51
   3   1   2  958.45   31.18
   3  -1   2  928.43   24.27
   3   1   3    3.99    0.99
  -3  -1  -3    0.54    1.02
   3   1   3    3.69    1.24
   3   1   3    4.13    2.16
   3   1  -3    1.68    0.76
   3   1   3    3.24    1.84
   3  -1  -3    1.67    1.65
  -3  -1  -3    3.28    1.85
  -3   1   3    2.54    2.62
   3  -1  -3    4.09    2.13
   3  -1   3    0.50    1.06
  -3   1   3    3.20    1.87
   3   1  -3    1.22    1.72
  -3   1   3    1.00    1.42
   3  -1   4  671.06   36.77
  -3   1   4  732.80   27.22
   3   1  -4  689.92   34.38
   3   1  -4  742.05   21.61
  -3  -1  -4  784.72   28.23
  -3   1   4  723.31   35.84
   3  -1   4  769.40   19.09
   3  -1  -4  697.70   28.01
   3   1   4  752.84   23.78
   3   1   4  698.72   38.58
  -3  -1  -5    1.88    0.79
   3  -1  -5    1.53    1.37
   3   1  -5    2.03    2.66
  -3   1   5    0.42    1.32
   3  -1   5    1.14    1.55
   3   1  -5   -0.64    0.49
   3   1   5   -0.32    1.45
  -3   1   5    1.99    0.85
   3   1   5    1.03    1.24
   3  -1  -6  473.79   27.42
   3   1   6  477.77   25.93
  -3  -1  -6  509.12   23.03
  -3   1   6  433.86   33.19
   3  -1   6  448.78   34.43
   3   1  -6  441.19   22.97
   3   1   6  438.44   34.97
   3   1  -6  410.22   29.84
  -3  -1  -7   11.90    3.41
   3  -1  -7   10.81    4.69
   3   1  -7    8.15    4.13
   3   1   7    5.87    4.63
   3  -1   7   11.32    5.88
  -3   1   7    8.78    4.94
   3   1   7   10.64    4.48
   3   1  -8  201.75   23.17
   3   1   8  237.93   22.69
  -3   1   8  240.69   28.65
   3  -1   8  243.58   28.42
   3   1   8  236.23   28.81
   3  -1  -8  224.10   20.94
   3   1   9    1.39    3.53
   3   1   9   -3.22    4.72
   3   1  -9    0.25    0.70
  -3   1   9   -1.41    6.07
   3  -1  -9   -1.65    2.54
   3  -1   9    0.15    1.21
  -3   1  10  122.30   23.30
   3   1  10  129.88   23.50
   3   1 -10  103.87   18.38
   3   1  10  122.21   18.74
   3  -1  10  127.15   22.51
   3   1  11   13.78    8.30
   3   1 -11   15.32    6.01
  -3   1  11    4.52    2.24
  -3  -2   0   -0.19    0.91
  -3  -2   0    0.51    1.04
   3  -2   0    0.98    1.09
   3  -2   0    0.68    1.25
   3   2   0    1.20    1.89
   3  -2   0    0.63    0.75
   3   2   0    0.05    0.08
  -3  -2   0    0.36    0.75
  -3   2   0    0.58    1.40
  -3  -2   0   -0.38    0.39
   3   2   0    0.57    1.08
   3   2   1 2278.65   52.14
  -3  -2   1 2189.34   41.46
  -3   2  -1 2348.73   40.30
   3   2  -1 2335.64   40.23
   3   2  -1 2244.57   55.29
  -3   2  -1 2276.81   45.54
  -3  -2   1 2282.80   35.12
   3  -2  -1 2385.91   51.80
  -3   2   1 2259.85   52.48
  -3  -2  -1 2395.45   54.12
   3   2   1 2303.19   52.02
   3   2  -1 2315.34   33.22
   3   2  -1 2287.22   54.01
   3  -2   1 2305.50   40.25
  -3  -2  -1 2418.76   52.77
   3  -2   1 2352.94   48.03
  -3  -2  -1 2280.15   35.19
   3   2   1 2258.77   53.33
  -3  -2  -1 2290.61   51.23
   3   2   2   93.61   10.72
  -3   2   2   53.12    5.32
   3  -2   2   44.76    8.37
   3  -2  -2  106.24   10.53
  -3  -2  -2   56.50    6.85
  -3  -2  -2  108.06   10.64
  -3  -2  -2   43.60    7.71
   3   2  -2   62.62    7.31
   3   2  -2   43.05    8.24
  -3   2   2   78.58   10.43
  -3  -2  -2   77.06    6.44
   3   2  -2   94.35   11.28
  -3   2   2   45.98    6.14
   3   2   2   47.11    8.56
   3  -2   2   89.44    9.38
   3   2   2   82.02    6.74
  -3   2  -2   71.48    7.77
   3  -2   3  100.28   13.37
   3   2  -3  110.21   12.56
  -3  -2  -3  113.69   12.49
   3  -2  -3  117.70   12.79
   3   2   3  112.46   10.00
   3   2  -3   89.69   12.65
  -3   2   3  108.39    9.11
  -3   2   3  104.74   13.03
  -3  -2  -3  109.03    8.63
   3   2   3  101.16   13.59
   3   2   3  101.96    8.09
   3  -2   3  111.32   11.21
  -3   2   4   -0.06    0.73
  -3  -2  -4    2.20    2.18
  -3   2   4    4.05    2.95
   3   2   4    0.53    0.23
   3  -2  -4    0.57    1.06
   3   2  -4    2.21    1.48
   3   2  -4    0.36    2.54
   3   2   4    0.94    2.55
   3  -2   4    1.49    1.90
   3  -2  -4    4.20    2.68
  -3  -2  -5 1890.08   63.44
   3   2  -5 1797.53   63.04
  -3   2   5 1968.40   39.29
  -3   2   5 1863.46   65.34
   3  -2  -5 1893.20   62.99
   3   2  -5 1878.84   33.06
   3   2   5 1818.91   46.14
   3  -2   5 1855.39   65.43
   3   2   5 1890.28   69.02
   3   2  -5 1750.52   51.25
   3  -2  -5 1881.12   43.05
   3   2   6   14.98    7.15
   3  -2  -6   11.65    3.90
   3   2  -6   14.56    4.89
  -3   2   6   11.47    5.70
   3   2  -6    9.46    4.26
   3   2   6   11.82    4.14
   3   2  -6   12.86    3.31
   3  -2   6   11.36    5.43
   3   2   7   74.00   15.30
   3  -2  -7   70.62    9.86
   3   2  -7   49.12   11.81
  -3   2   7   80.08   15.79
   3   2   7   82.38   12.05
   3   2  -7   91.22   11.92
   3  -2   7   61.88   13.36
   3  -2   8    5.06    3.90
   3  -2  -8    1.03    1.09
  -3   2   8    2.56    2.47
   3   2  -8    2.58    2.05
   3   2   8    1.55    1.80
   3   2  -8    3.61    3.92
   3   2   8   -2.39    3.90
   3   2  -9  255.52   29.00
   3   2   9  266.87   33.12
  -3   2   9  241.86   31.15
   3  -2   9  283.90   32.69
   3   2   9  235.50   24.33
   3   2  10   16.36    8.64
  -3   2  10   17.11    9.24
   3   2  10   33.07    9.84
   3   2 -10   18.43    8.13
   3  -2  10   23.27    9.55
   3   2  11   33.41   13.40
   3   2 -11   30.09   10.89
  -3   2  11   44.35   14.84
   3  -2  11   29.12   11.41
   3   3   0    0.40    1.03
   3   3   0    0.25    0.83
   3   3   0    1.83    2.32
  -3  -3   0   -0.08    0.73
  -3   3   0    1.63    2.24
  -3  -3   0    0.27    0.54
   3  -3   0    0.13    0.70
  -3  -3   0   -0.07    0.47
   3   3   1    0.21    0.63
  -3  -3   1    4.15    2.27
  -3   3   1    2.52    2.27
  -3  -3  -1    3.43    1.58
   3  -3   1    2.51    1.79
   3   3  -1   -0.51    1.49
   3   3   1    0.28    0.96
   3   3  -1    3.55    2.12
   3  -3  -1    0.23    0.27
  -3   3  -1    4.38    2.31
  -3  -3  -1    1.51    1.20
  -3  -3   1    0.74    0.70
  -3  -3  -2   27.81    5.89
  -3  -3  -2   43.19    6.06
   3   3   2   28.48    6.90
  -3  -3  -2   31.77    5.26
   3  -3  -2   66.03    9.56
  -3  -3   2   30.98    6.22
  -3  -3  -2   60.38    9.12
   3   3  -2   24.49    6.84
  -3  -3   2   24.39    2.77
   3  -3   2   40.61    6.59
  -3   3   2   42.15    8.63
   3   3  -2   56.14    9.22
   3   3   2   43.33    6.36
  -3  -3  -3    7.86    2.57
  -3  -3  -3    6.46    2.84
  -3   3   3    5.29    3.03
  -3   3   3    7.84    1.85
   3   3  -3    3.07    2.69
   3  -3  -3    3.78    2.54
  -3  -3  -3   15.22    4.47
   3   3   3    3.53    2.12
   3   3   3   10.69    4.11
   3   3  -3   16.85    5.48
  -3  -3  -3    2.83    2.28
   3  -3   3   13.69    4.87
  -3   3   3   11.06    2.61
  -3   3   4  508.41   15.92
  -3  -3  -4  589.22   34.31
   3   3  -4  491.03   33.64
  -3  -3  -4  536.73   24.73
   3  -3   4  460.80   32.08
  -3   3   4  515.07   33.93
   3   3   4  513.31   35.00
   3   3   4  510.60   24.05
   3   3  -4  564.28   29.79
   3  -3  -4  619.11   34.73
   3   3   5   11.61    5.91
  -3   3   5   27.25    8.28
   3  -3  -5   38.75    9.55
  -3  -3  -5   24.05    7.43
   3   3  -5   24.80    6.36
   3   3   5   20.94    5.20
   3   3  -5   10.91    5.28
   3  -3   5   14.64    6.37
   3  -3  -6  409.83   34.21
   3   3  -6  339.74   30.95
   3   3   6  368.27   24.78
  -3  -3  -6  440.06   35.21
  -3   3   6  359.91   31.95
   3  -3   6  361.57   31.28
   3   3   6  346.21   32.83
   3   3  -6  361.33   23.87
   3  -3  -6  368.83   17.52
   3   3   7    7.87    4.90
  -3   3   7    2.45    2.89
   3   3   7    3.86    2.69
   3   3  -7    1.15    0.44
   3   3  -7    0.39    1.27
   3  -3  -7    1.57    1.72
   3  -3  -7    1.94    1.58
  -3  -3  -7    4.93    2.98
   3  -3   7    1.09    2.77
   3   3   8  319.91   26.96
   3   3  -8  283.00   20.99
   3   3  -8  274.83   30.47
  -3   3   8  273.33   31.44
   3   3   8  238.33   30.88
   3  -3   8  288.01   30.61
  -3   3   9   10.35    6.74
   3   3   9   19.75    9.60
   3   3   9   12.35    5.65
   3   3  -9   18.38    7.65
   3  -3   9   13.02    6.83
  -3   3  10   51.33   15.02
   3   3  10   32.59   13.96
   3   3  10   43.88   11.76
   3   3 -10   37.39   12.33
   3  -3  10   40.86   12.77
   3   3  11    9.33    6.90
  -3   3  11    0.11    1.85
   3  -3  11    5.41    5.46
   3   3 -11   -1.56    3.07
  -3  -4   0    1.12    2.07
  -3   4   0    0.69    0.40
   3   4   0    0.60    1.58
   3  -4   0    1.59    1.23
  -3  -4   0    0.70    1.31
   3   4   1  645.92   31.45
   3  -4  -1  646.75   19.91
   3  -4   1  654.97   30.24
  -3  -4   1  630.19   23.27
   3   4   1  637.98   30.50
  -3   4   1  625.07   34.22
   3   4  -1  619.80   34.36
  -3   4  -1  628.11   32.97
  -3  -4   1  662.00   30.94
   3  -4   2    0.22    0.31
   3   4   2    0.27    0.42
  -3  -4   2    0.79    2.22
  -3   4   2    2.66    3.32
   3   4  -2    1.09    2.39
   3   4   2    1.01    1.36
   3   4   2    1.01    1.56
   3   4  -2   -0.15    0.91
  -3  -4   2    0.22    0.55
  -3  -4  -3  845.73   40.38
   3  -4   3  832.40   43.69
  -3  -4  -3  837.98   27.13
  -3   4   3  895.51   22.23
   3   4   3  851.40   43.39
   3   4  -3  833.24   44.08
   3  -4  -3  843.80   40.64
  -3   4   3  852.04   43.65
   3   4   3  845.17   34.19
   3   4  -3  831.42   38.51
   3  -4  -4   68.90   12.42
  -3  -4  -4   64.00   11.88
   3   4   4   32.16    9.08
  -3   4   4   48.15   10.85
   3   4   4   56.70    9.31
   3  -4   4   33.37    8.68
   3   4  -4   51.33    9.75
   3   4  -4   42.72   10.28
   3   4   5   13.77    6.58
   3   4   5   31.67    7.21
  -3   4   5   23.26    7.41
   3  -4   5   25.48    7.81
   3   4  -5   16.08    6.82
  -3  -4  -5   58.88   12.09
   3   4  -5   42.59    8.53
   3  -4  -5   52.37   11.53
   3   4   6    0.71    2.24
  -3   4   6    4.96    4.60
   3  -4  -6    2.23    3.51
  -3  -4  -6    1.11    2.22
   3   4   6    0.33    1.06
   3   4  -6    1.06    2.14
   3   4  -6    2.63    2.65
   3  -4   6    2.89    3.59
   3   4  -7  633.65   46.96
  -3   4   7  595.78   45.02
  -3  -4  -7  645.35   47.87
   3  -4   7  677.76   45.85
   3  -4  -7  632.75   47.11
   3   4   7  651.16   38.00
   3   4   7  650.75   49.04
   3   4  -7  612.21   32.26
   3   4   8   19.89    8.56
  -3  -4  -8   18.36    8.08
  -3   4   8   15.54    7.43
   3   4   8   20.55    7.24
   3   4  -8   24.33    9.48
   3  -4  -8   13.78    7.09
   3  -4   8   17.58    7.40
   3   4   9   27.68   11.52
  -3   4   9   34.24   12.83
   3   4   9   38.26   10.79
   3   4  -9   37.49   12.35
   3  -4   9   31.93   10.73
   3   4  10    3.01    4.76
  -3   4  10    3.20    3.95
   3   4 -10    4.17    4.29
   3  -4  10   -1.64    3.96
  -3   5   0   -0.47    1.32
  -3  -5   0   -0.36    1.52
   3   5   0    1.63    1.69
   3  -5   0    0.72    1.62
  -3  -5   1    1.98    1.82
  -3   5  -1   10.93    4.67
   3   5   1   -1.11    0.88
  -3   5   1    5.88    3.12
   3  -5   1    3.64    2.82
  -3  -5   1    4.23    3.03
   3   5  -1   -0.88    0.96
   3  -5   2   33.39    8.14
  -3  -5   2   29.17    5.11
  -3  -5   2   29.42    7.74
  -3   5   2   40.50   10.46
   3   5   2   36.62    8.47
   3   5   2   39.68    8.32
   3   5  -2   27.65    8.40
   3  -5   3   26.54    8.42
  -3  -5   3    8.04    2.23
   3   5   3    8.79    4.99
   3  -5  -3   17.04    6.62
  -3   5   3    7.12    2.05
  -3   5   3   15.21    6.04
  -3  -5  -3   11.50    3.25
  -3  -5  -3   13.66    5.67
   3   5   3   12.52    4.50
   3   5  -3   10.83    6.32
  -3  -5   3    6.19    3.89
   3  -5  -4   92.95   15.60
  -3  -5  -4   97.47   15.35
   3   5  -4   67.66   13.95
   3  -5   4   74.07   13.78
  -3  -5   4   55.54    4.50
  -3   5   4   76.34   14.74
   3   5   4   75.46   14.67
   3   5   4   80.21   12.42
  -3  -5   4   65.54    4.30
   3   5   5    4.39    4.74
  -3   5   5    0.85    0.56
   3   5   5    3.41    2.69
   3   5  -5    8.73    4.29
   3  -5  -5    3.12    2.32
  -3  -5  -5    1.88    1.96
   3  -5   5    5.46    3.79
   3   5  -6  317.74   33.46
  -3  -5  -6  460.83   38.50
   3  -5   6  342.51   33.20
  -3   5   6  379.81   35.88
   3   5   6  344.06   35.37
   3   5   6  394.32   29.54
   3  -5  -6  452.49   38.64
   3   5   7   15.68    8.51
   3  -5  -7   20.25    8.98
  -3  -5  -7   13.96    7.43
   3   5   7   19.74    7.59
  -3   5   7   20.40    9.28
   3   5  -7   21.29    9.27
   3  -5   7   15.49    6.46
   3   5   8   74.84   19.47
  -3   5   8   83.99   18.98
   3   5  -8   78.44   17.83
   3  -5  -8   92.63   19.67
  -3  -5  -8  100.53   20.31
   3  -5   8  104.54   19.11
   3   5   8   99.50   17.02
   3   5   9    3.31    5.47
  -3   5   9   -3.27    3.88
   3   5   9    1.45    1.79
   3   5  -9   -1.38    4.90
   3  -5  -9    2.33    2.62
  -3  -5  -9   -1.94    3.69
   3  -5   9   -0.93    2.13
  -3   5 -10  147.73   23.58
   3   5 -10  133.14   25.50
  -3   5  10  185.95   31.09
   3   5  10  152.51   29.95
  -3  -6   0    1.95    1.48
  -3   6   0    0.63    2.35
   3   6   0    3.03    4.07
   3  -6   0    0.15    1.30
  -3  -6  -1  259.41   23.05
   3  -6   1  266.90   24.25
  -3  -6   1  263.36   24.37
   3   6   1  249.46   22.30
  -3   6  -1  257.81   26.04
   3   6  -1  247.95   25.03
  -3   6   1  276.23   27.40
  -3   6   2    9.99    2.89
   3   6  -2    5.26    3.12
   3   6   2    6.54    3.55
   3   6   2    8.15    4.18
  -3   6   2    6.02    3.38
  -3  -6   2    4.02    2.78
   3  -6   2    5.28    2.22
  -3  -6  -3   56.51   12.42
  -3   6   3   36.49   10.62
  -3  -6  -3   22.25    4.75
  -3   6   3   14.34    2.67
   3   6  -3   11.24    5.98
  -3  -6   3   32.39    8.84
   3   6   3   34.83    8.56
   3  -6   3   27.75    7.50
   3  -6  -3   62.33   12.77
  -3  -6  -4    2.35    1.82
  -3   6   4    4.70    3.63
   3  -6   4    0.83    1.46
   3  -6  -4    0.89    2.04
   3   6   4   -0.52    1.03
   3   6  -4    1.65    2.54
  -3  -6  -4    1.44    2.10
   3  -6  -5  370.77   35.04
   3   6  -5  367.47   36.68
  -3   6   5  346.25   34.37
  -3  -6  -5  361.31   33.62
   3   6   5  349.79   29.49
   3  -6   5  330.35   31.70
   3  -6   6   12.17    6.25
  -3   6   6   10.42    6.13
   3   6  -6   10.71    6.24
   3   6   6    4.29    3.51
  -3  -6  -6    7.35    4.41
   3  -6  -6   10.01    6.44
   3   6   7   38.34   10.43
  -3   6   7   29.26   11.25
   3  -6  -7   49.00   14.69
  -3  -6  -7   34.35   11.80
   3   6  -7   16.21    7.92
   3  -6   7   25.38    9.14
   3  -6  -8    2.80    3.08
  -3  -6  -8    0.18    3.00
  -3   6   8    4.50    4.84
   3   6   8    2.29    0.46
   3   6  -8    1.99    1.69
   3  -6   8    2.44    3.62
  -3   6  -9  213.86   28.81
   3   6  -9  259.63   36.31
  -3  -6  -9  274.42   37.85
  -3   6   9  268.51   37.04
   3  -6  -9  287.24   38.03
  -3   7   0    4.06    3.46
   3  -7   0    9.63    4.26
  -3  -7   0   13.07    6.43
   3   7   0    5.50    3.09
  -3   7   0    5.63    5.91
  -3  -7  -1    2.58    2.98
   3  -7  -1    3.31    1.32
  -3   7   1    3.83    2.55
   3  -7   1    1.72    1.15
  -3  -7   1    6.62    4.65
  -3   7   1    4.22    4.03
   3   7   1    3.80    2.42
   3   7  -1    2.04    2.69
  -3   7  -1    3.87    3.67
  -3  -7   2   21.97    7.86
   3   7   2   27.08    7.62
  -3   7   2   27.85    5.52
  -3   7   2   12.38    6.14
   3   7  -2   24.63    8.36
   3  -7   2   20.24    6.69
   3   7   3    2.34    2.90
  -3  -7  -3    2.89    1.82
   3  -7   3    1.27    2.15
  -3   7   3    2.95    2.87
  -3  -7   3    3.29    3.36
   3  -7  -3    0.56    2.23
  -3  -7  -3    2.23    4.12
   3   7  -3    0.02    3.24
   3   7   4  119.79   18.51
  -3   7   4  129.43   21.77
   3  -7  -4  121.60   20.19
   3   7  -4   93.55   18.81
  -3  -7  -4  144.02   22.11
   3  -7   4   96.64   18.38
   3   7   5   14.62    6.29
   3  -7   5   22.46    8.60
  -3   7   5    7.16    5.10
   3  -7  -5   12.37    6.32
  -3  -7  -5   12.59    5.99
   3   7  -5   12.09    7.82
   3   7   6   28.00    9.90
   3   7  -6   34.67   12.82
  -3   7   6   36.85   13.34
   3  -7  -6   31.06   11.16
  -3  -7  -6   25.50    9.69
   3  -7   6   28.51   10.46
  -3   7  -7   -1.18    0.95
   3   7  -7   -0.75    2.05
  -3   7   7   -0.45    2.83
  -3  -7  -7    1.31    4.53
   3  -7  -7   -0.58    1.97
   3   7   7    3.99    3.18
   3  -7   7    5.98    4.59
  -3   7  -8  173.08   26.30
   3   7  -8  211.32   33.81
   3  -7  -8  290.68   37.36
  -3  -7  -8  299.18   37.37
  -3   7   8  234.92   33.82
  -3   8   0    0.21    2.74
   3   8   0   -2.52    2.38
  -3   8   0   -0.91    1.71
   3  -8   0   -0.02    1.73
  -3  -8   0    1.67    1.53
  -3   8   1   36.64   11.39
  -3  -8   1   28.04    9.40
   3   8   1    0.18    1.17
  -3  -8  -1   12.08    6.36
  -3   8  -1    1.31    1.85
   3  -8   1   25.36    8.86
   3   8  -1    8.22    6.11
   3  -8  -1   10.68    6.45
   3  -8  -2    5.71    4.89
   3   8   2    2.37    2.30
  -3   8  -2    2.89    2.83
   3  -8   2    1.49    2.77
  -3   8   2    4.58    5.55
  -3  -8   2   -1.41    3.01
  -3  -8  -2    1.13    1.09
   3   8  -2   -2.31    1.78
   3  -8   3  116.93   19.17
  -3  -8   3  121.71   20.18
  -3  -8  -3  137.10   22.12
   3  -8  -3  143.55   22.58
  -3   8  -3  106.37   17.46
   3   8  -3  117.84   20.96
  -3   8   3  106.68   20.96
   3   8  -4   15.77    7.98
   3  -8  -4   11.44    5.83
   3  -8   4   19.99    8.85
  -3   8  -4   15.07    6.99
  -3   8   4   11.64    6.10
  -3  -8  -4   15.35    7.33
   3   8   4   10.04    4.70
   3   8  -5    5.89    6.16
   3   8   5   13.13    5.65
  -3  -8  -5   14.52    8.19
   3  -8  -5   18.74    8.68
  -3   8   5   13.61    7.45
  -3   8  -5    1.73    3.16
   3  -8   5   -1.89    3.48
  -3   8   6    2.06    4.52
  -3   8  -6    5.22    4.70
   3  -8   6   -1.29    3.32
   3   8   6    1.39    1.00
   3  -8  -6   -1.41    2.78
   3   8  -6    1.93    3.09
  -3  -8  -6   -1.35    3.33
   3   8   7  221.98   28.94
  -3   8  -7  156.42   26.02
   3   8  -7  212.43   34.46
  -3   8   7  205.37   31.86
   3  -8  -7  197.97   30.51
  -3  -8  -7  195.66   29.64
   3  -9   0    1.79    3.34
  -3  -9   0   -4.33    3.13
   3   9   0   -3.74    3.39
  -3   9   0   -0.54    3.38
   3  -9  -1   -4.83    3.61
  -3  -9  -1   -2.39    4.83
  -3   9  -1   -1.09    1.30
  -3   9   1    3.80    4.19
  -3  -9   1    2.17    3.36
   3   9  -1    0.27    1.05
   3  -9   1    0.85    3.80
  -3  -9  -2   14.39    7.18
  -3   9   2   34.24   12.84
   3   9  -2   16.31    7.54
  -3  -9   2   22.32    8.81
   3  -9   2   29.43   10.43
  -3   9  -2    9.52    4.68
   3  -9  -2   25.84   10.68
  -3   9   3    7.12    6.12
  -3   9  -3    2.79    1.35
   3   9  -3   11.47    8.15
  -3  -9   3    9.37    6.72
  -3  -9  -3    3.52    4.43
   3  -9  -3   12.24    6.64
   3  -9   3   11.13    6.53
  -3  -9  -3   11.84    7.48
  -3   9  -4   26.79    9.97
  -3   9   4   19.55    9.59
   3   9   4   14.59    8.06
  -3  -9  -4   13.51    7.93
   3  -9   4   28.48   11.55
   3  -9  -4   16.15    8.95
   3   9  -4   27.91   11.93
  -3  -9  -5   -1.86    2.53
  -3   9   5   -1.53    4.50
   3   9  -5   -0.33    2.15
  -3   9  -5    4.63    3.16
   3   9   5   -3.70    3.70
   3  -9  -5    2.45    0.64
   3  -9   5    2.76    1.33
   3 -10   0    9.25    7.29
  -3 -10   0   11.59    7.69
   3 -10   1    8.34    5.61
   3 -10  -1   -0.17    2.87
  -3 -10  -1    4.00    3.54
  -3 -10   1   10.56    6.45
  -3  10   1   11.85    7.89
  -3 -10   2   16.69    9.29
  -3  10   2   21.88   10.77
   3 -10   2   17.46    9.48
   3 -10  -2    9.62    6.51
  -3 -10  -2    4.25    2.49
  -4   0   0  121.05    8.66
  -4   0   0  154.26   11.87
  -4   0   0  208.19   16.18
   4   0   0  186.43   14.52
  -4   0  -1    4.23    2.09
  -4   0  -1    3.24    0.86
  -4   0   1    5.77    1.34
   4   0  -1    0.18    1.03
   4   0   1    5.92    1.30
  -4   0  -1    1.62    1.78
  -4   0   1    9.73    3.63
   4   0   1    1.89    3.16
  -4   0   1    1.42    1.03
  -4   0   2 1415.03   32.66
   4   0  -2 1363.10   44.11
   4   0   2 1409.30   31.54
   4   0   2 1370.95   48.39
  -4   0   3   72.90    9.21
   4   0   3   62.64    8.33
   4   0   3   48.17    7.07
   4   0   3   43.04    4.01
   4   0  -4   83.83   11.66
   4   0   4   54.36    7.34
   4   0   4   78.52   13.00
   4   0  -5   -0.19    0.86
   4   0   5    0.13    2.25
   4   0  -6  431.91   30.48
   4   0   6  417.52   34.87
   4   0  -7    1.03    1.34
   4   0   7    5.63    3.82
   4   0  -8   11.41    4.94
   4   0   8    3.44    4.29
   4   0  -9   -2.19    2.43
   4   0   9    1.96    3.19
   4   0  10   25.10   11.55
   4   0 -10   16.59    7.22
  -4   0  10   31.74   12.33
   4   0  11    5.13    4.23
  -4   0  11    4.89    5.05
   4  -1   0 2156.55   42.03
  -4   1   0 2109.98   42.85
   4  -1   0 2200.75   25.08
  -4  -1   0 2138.78   25.07
   4   1   0 2077.78   48.34
   4   1   0 2202.61   56.18
  -4  -1   0 2187.64   47.49
  -4   1   0 2178.47   43.07
  -4   1   1  752.61   25.09
  -4  -1  -1  734.78   26.70
   4   1  -1  786.49   34.44
  -4   1   1  759.15   30.50
   4   1   1  729.29   32.09
   4  -1  -1  786.29   28.01
  -4   1  -1  803.45   17.61
   4   1  -1  799.00   18.39
   4  -1   1  732.00   32.51
   4   1  -1  755.91   25.31
  -4  -1  -1  785.16   33.17
  -4   1   1  793.38   29.47
   4   1   1  867.93   34.10
   4  -1   1  813.58   23.09
  -4   1  -1  815.34   22.53
   4  -1  -1  846.13   20.94
  -4  -1  -1  853.53   21.12
  -4   1   2  935.64   32.84
  -4  -1  -2  856.28   29.96
  -4   1   2  795.59   26.34
   4   1   2  788.62   25.22
   4  -1  -2  798.80   26.40
  -4  -1  -2  801.05   26.43
  -4   1   2  824.06   33.47
   4   1  -2  869.20   24.28
   4  -1   2  848.79   38.34
   4   1   2  859.92   37.45
   4   1   2  850.38   32.64
   4  -1   2  810.82   22.87
   4   1  -2  884.15   36.76
  -4   1  -2  864.95   23.66
  -4   1   3  508.39   24.65
   4   1   3  516.97   24.13
   4   1   3  445.11   29.89
   4  -1  -3  485.47   25.55
  -4   1   3  477.82   27.98
   4  -1   3  444.10   29.96
   4   1   3  518.88   25.41
   4  -1   3  471.71   18.86
  -4   1   3  484.92   24.46
   4   1  -3  437.76   27.30
   4  -1  -4  196.75   16.77
   4   1   4  152.33    8.95
  -4   1   4  162.00   17.99
   4  -1   4  144.46   11.16
   4  -1   4  183.95   20.52
   4   1   4  175.09   20.16
   4   1  -4  201.36   19.90
   4   1  -4  185.58   10.79
   4   1   4  137.33   12.84
   4  -1  -5  308.20   21.71
  -4   1   5  320.64   27.61
   4   1   5  343.76   17.31
   4  -1   5  312.89   28.19
   4   1   5  319.90   29.48
   4   1  -5  347.49   17.14
   4  -1   5  381.97   15.83
   4   1  -5  327.66   27.33
  -4   1   6  149.95   20.61
   4  -1  -6  178.78   17.91
   4   1  -6  172.03   20.25
   4   1   6  157.99   13.97
   4  -1   6  171.41   22.24
   4   1   6  174.44   23.35
   4   1  -6  163.92   13.77
   4   1   7   83.19   11.54
   4   1  -7   77.06   14.30
   4  -1   7   66.96   14.96
   4   1   7   85.25   17.32
   4  -1  -7   71.84   12.03
  -4   1   7   62.21   14.10
  -4   1   8  143.11   23.21
   4   1   8  138.36   16.50
   4   1  -8  186.49   23.47
   4  -1   8  168.42   24.95
   4   1   8  172.10   25.53
   4  -1  -8  163.12   18.82
   4   1   9    4.11    5.82
  -4   1   9    4.45    0.52
   4   1   9   11.35    5.22
   4   1  -9    8.30    5.58
   4  -1  -9    0.55    2.05
   4  -1   9    5.20    5.48
  -4   1  10   82.21   19.40
   4   1 -10   85.23   17.32
   4  -1  10   85.68   20.00
   4   1  10   98.37   21.69
   4  -1  11   68.55   18.57
  -4   1  11   64.27   18.93
   4   1  11   67.73   18.67
   4   1 -11   53.82   13.94
   4  -2   0 1595.18   37.06
   4   2   0 1562.05   50.14
  -4  -2   0 1534.44   41.50
   4  -2   0 1544.72   31.36
  -4  -2   0 1535.54   31.67
   4  -2   0 1654.42   42.83
   4   2   0 1535.71   40.46
   4   2   0 1640.65   50.46
  -4   2   0 1560.37   41.65
  -4   2   1   79.21    7.94
   4   2  -1   81.63    7.63
  -4  -2   1   73.09    7.48
  -4  -2  -1   84.54   10.93
   4  -2   1   77.84    7.47
   4   2  -1   83.47   11.42
   4  -2  -1   53.41    6.79
  -4  -2   1   84.16    8.01
   4   2  -1   58.19   10.48
   4   2   1   78.93   10.51
  -4   2   1   65.66    9.50
   4  -2   1   68.63    8.60
   4   2  -1   82.95    7.84
   4   2   1   66.29   10.16
  -4   2  -1   73.36    8.46
  -4  -2  -1   65.17    5.81
   4  -2  -2   98.34   10.43
  -4  -2  -2  100.61   10.58
   4   2  -2  126.24   15.07
  -4   2   2  179.56   11.86
  -4   2   2  231.73   16.54
   4  -2   2  200.36   19.08
  -4   2  -2  171.90   12.40
   4   2  -2  177.48   12.44
  -4   2   2  137.93   14.72
  -4  -2  -2  143.83    7.86
   4   2  -2  203.33    9.29
   4   2   2  189.41   18.44
  -4  -2  -2  158.03   12.86
   4  -2   2  141.63   12.42
   4   2  -2  217.95   19.85
   4   2   2  138.59   14.55
  -4   2   3   36.81    6.28
   4   2  -3   35.50    8.18
   4   2  -3   53.40    9.42
  -4   2   3   50.95    9.75
  -4  -2  -3   76.05   10.30
   4  -2   3   51.03    7.74
   4  -2   3   34.38    8.54
   4   2   3   63.61    5.50
   4  -2  -3   71.37   10.08
   4   2   3   40.60    9.30
   4   2   3   66.00    9.72
  -4   2   4  863.33   29.80
   4   2  -4  846.53   44.73
   4  -2  -4  872.98   39.48
  -4  -2  -4  829.18   37.78
  -4   2   4  763.94   39.69
   4   2   4  863.71   46.02
   4   2   4  809.01   23.37
   4  -2  -4  847.72   32.45
   4  -2   4  820.23   44.52
   4   2  -5   73.30   13.30
  -4   2   5   64.08    8.47
  -4  -2  -5  124.92   15.92
   4   2   5   85.12    9.09
  -4   2   5   66.51   12.90
   4   2  -5   60.46    4.80
   4  -2   5   71.42   13.93
   4  -2  -5  114.96   15.40
   4   2   5   74.64   14.63
   4  -2  -5   61.67    9.20
   4   2   6   31.52   10.20
  -4   2   6   27.38    9.02
   4   2   6   25.19    5.91
   4  -2  -6   32.71    7.00
   4   2  -6   31.86    9.20
   4   2  -6   30.64    4.54
   4  -2   6   31.45    9.39
   4   2  -7   89.38   16.30
  -4   2   7  106.93   18.81
   4  -2   7  103.22   18.31
   4   2   7   98.89   18.74
   4  -2  -7   88.38   11.64
   4   2   7  128.13   14.36
   4   2   8   10.49    6.89
   4   2  -8    5.47    3.46
  -4   2   8    3.89    4.61
   4   2   8    7.62    3.99
   4   2  -8   13.16    6.41
   4  -2  -8    8.62    4.19
   4  -2   8    6.88    5.95
   4   2   9   18.69    8.98
  -4   2   9   44.55   13.64
   4   2   9   45.21   10.09
   4   2  -9   20.21    8.20
   4  -2   9   22.44    9.54
   4   2  10   28.70   12.19
  -4   2  10   42.32   15.05
   4   2 -10   31.25   11.06
   4  -2  10   31.19   12.27
   4   2  11    0.01    2.84
  -4   2  11   -0.51    4.07
   4   2 -11   -0.87    1.18
   4  -2  11   -0.22    2.48
   4   3   0  240.71   21.15
   4  -3   0  256.49   15.73
  -4  -3   0  247.27   15.64
  -4   3   0  213.68   17.78
   4   3   0  269.02   21.89
  -4  -3   0  246.91   16.75
   4   3   0  264.67   17.24
   4   3   1  625.53   33.45
   4  -3  -1  643.46   21.85
   4  -3   1  661.15   26.10
   4   3  -1  670.82   34.95
  -4  -3   1  627.26   25.93
  -4  -3   1  627.19   23.09
   4   3   1  637.26   32.26
   4   3   1  650.41   30.86
   4   3  -1  654.96   21.72
  -4   3   1  619.51   31.86
  -4  -3  -1  659.32   23.91
   4   3  -1  612.22   33.46
  -4   3  -1  635.41   29.53
   4   3   2  484.37   29.40
  -4  -3  -2  495.96   22.99
   4   3  -2  511.21   32.62
   4  -3  -2  478.44   26.22
  -4   3   2  531.46   24.32
  -4  -3  -2  493.08   26.36
   4  -3   2  532.65   33.88
  -4  -3   2  518.25   14.38
  -4   3   2  498.91   30.94
  -4  -3  -2  496.86   19.88
   4   3   2  500.05   30.34
   4   3  -2  455.74   29.33
  -4   3  -2  474.34   25.52
   4  -3  -3  768.80   36.10
  -4  -3  -3  791.67   35.95
  -4   3   3  733.42   21.43
  -4  -3  -3  703.65   27.60
   4   3  -3  755.19   42.35
  -4   3   3  717.09   25.87
  -4   3   3  731.23   39.21
   4  -3   3  707.68   39.11
  -4  -3  -3  731.54   24.55
   4   3   3  723.08   40.02
   4   3  -3  733.22   36.94
   4   3   3  729.80   25.22
  -4   3   4  530.09   18.65
  -4   3   4  544.42   21.60
   4   3  -4  507.25   36.20
   4  -3  -4  528.95   32.42
  -4  -3  -4  512.78   22.09
   4  -3   4  499.86   35.64
  -4   3   4  506.62   34.73
   4   3  -4  474.76   30.20
   4   3   4  538.83   37.26
  -4  -3  -4  515.43   32.06
   4   3   4  518.80   22.82
  -4   3   5  160.20   11.51
   4   3  -5  132.82   19.29
  -4  -3  -5  142.81   18.08
   4  -3   5  150.56   20.34
   4  -3  -5  137.94   17.74
  -4   3   5  132.14   18.73
   4   3  -5  125.19   15.37
   4   3   5  141.96   20.63
   4   3   5  139.28   12.88
   4  -3  -6  159.31   20.85
   4  -3   6  157.32    6.80
  -4   3   6  175.12   23.85
   4  -3   6  231.66   26.97
   4   3   6  195.49   16.99
   4   3  -6  165.40   17.86
   4   3   6  202.94   26.14
   4   3  -6  233.28   26.69
  -4  -3  -6  194.06   23.09
   4   3   7   10.96    5.78
  -4   3   7   14.31    6.92
   4   3  -7   20.27    5.84
   4   3   7   20.29    5.87
   4   3  -7    6.74    5.86
   4  -3  -7    8.79    3.40
   4  -3   7   14.09    6.88
   4   3  -8   62.08   11.12
  -4   3   8   58.69   15.77
   4   3  -8  112.66   20.08
   4   3   8   84.28   13.58
   4  -3   8  112.09   20.34
   4   3   8  103.42   21.14
   4   3   9   39.05   13.39
  -4   3   9   41.80   13.72
   4   3  -9   30.21   11.10
   4  -3   9   29.11   11.11
   4   3  10   30.80   12.43
  -4   3  10   30.89   13.06
   4   3 -10   32.46   11.65
   4  -3  10   32.99   11.87
   4   4   0  261.94   23.79
   4   4   0  309.30   24.33
   4  -4   0  292.82   19.68
  -4  -4   0  290.79   19.76
  -4  -4   0  308.46   19.82
   4   4   0  304.39   19.24
  -4   4   0  275.92   22.59
   4   4   1   -0.47    1.70
   4  -4  -1    1.21    0.59
  -4   4   1    5.57    2.75
   4  -4   1    2.79    0.31
  -4  -4   1    0.90    1.86
  -4   4  -1    2.55    2.16
   4   4   1    1.30    1.99
   4   4  -1    5.72    3.05
   4   4  -1    1.39    1.43
  -4  -4   1    1.96    1.08
  -4  -4  -2 1002.08   33.04
   4   4  -2 1049.40   50.11
   4  -4   2 1090.98   39.92
   4  -4  -2 1126.95   44.13
  -4  -4   2 1008.46   24.87
  -4   4   2 1056.43   48.14
   4   4   2 1077.24   45.77
   4   4  -2 1097.13   48.39
  -4  -4   2 1074.70   40.71
   4   4   3    9.60    4.57
  -4  -4  -3   10.18    3.32
  -4   4   3   15.10    6.11
  -4   4   3    9.91    3.04
   4   4  -3   22.98    6.99
   4   4  -3    7.64    5.26
   4   4   3   21.32    5.48
   4  -4  -3   19.15    5.99
  -4  -4  -3   32.38    7.95
   4  -4   3    8.01    4.63
  -4  -4  -4   88.33   14.35
   4   4  -4  141.20   20.14
  -4   4   4  130.95    9.28
   4  -4   4  138.16   19.10
  -4   4   4  108.22   17.36
   4   4   4  127.48   19.07
   4   4   4   94.32   11.61
   4   4  -4   88.93   13.88
   4  -4  -4   92.03   14.58
  -4   4   5   78.23    5.80
  -4   4   5   75.89    5.79
   4   4  -5  101.64   14.93
   4  -4   5   83.46   15.55
  -4   4   5   89.36   16.43
   4   4   5   78.32   15.76
   4  -4  -5  115.70   17.45
  -4  -4  -5  122.53   17.64
   4   4   5   93.76   11.84
   4   4  -5   73.47   15.04
   4   4   6   72.04   16.09
   4   4   6   59.32   10.33
  -4   4   6   71.92   15.26
   4   4  -6   69.83   15.27
   4  -4   6   68.25   14.73
   4  -4  -6   66.34   14.28
  -4  -4  -6   73.68   14.95
   4   4  -6   58.86   11.39
   4   4  -7  115.75   20.66
   4  -4  -7  142.98   22.05
  -4  -4  -7  159.92   23.13
   4  -4   7  112.38   19.89
  -4   4   7  133.58   21.88
   4   4   7  125.87   15.90
   4   4   7  105.91   20.86
   4   4  -7  140.26   17.25
   4   4   8   29.36   11.77
  -4   4   8   39.68   12.87
   4   4   8   52.13   11.21
   4   4  -8   32.86   11.44
   4  -4  -8   34.41   10.91
  -4  -4  -8   49.08   13.20
   4  -4   8   37.85   11.83
   4   4   9   45.90   15.10
  -4   4   9   34.14   12.80
   4   4  -9   43.18   13.98
   4  -4   9   39.96   12.75
   4   4  10    3.08    2.82
  -4   4  10    9.07    7.99
   4   4 -10    8.59    6.22
   4  -4  10    1.59    3.04
   4  -5   0   95.78   12.46
  -4  -5   0   93.11   12.48
   4   5   0   76.58   13.04
  -4   5   0  115.68   16.20
   4  -5  -1  655.40   23.46
   4   5  -1  642.25   39.40
   4  -5   1  651.96   34.22
  -4  -5   1  660.42   34.81
   4   5   1  639.13   36.97
  -4  -5   1  606.75   27.04
  -4   5   1  648.67   39.38
  -4   5  -1  665.97   38.38
   4   5  -2  179.07   21.97
   4  -5   2  182.02   18.53
  -4  -5   2  177.78   18.67
   4   5   2  180.53   18.75
  -4  -5   2  167.01   11.85
   4   5   2  183.81   20.08
  -4   5   2  173.67   21.58
   4   5  -3  255.04   25.38
  -4  -5  -3  259.05   17.32
   4   5  -3  297.96   30.11
  -4   5   3  280.96   16.22
   4  -5  -3  262.75   25.23
  -4  -5  -3  251.53   24.34
   4  -5   3  310.25   30.35
  -4  -5   3  224.18    9.30
  -4   5   3  253.97   27.00
   4   5   3  263.19   25.87
   4   5   3  258.10   21.06
   4   5  -4  333.90   28.65
   4  -5  -4  321.44   28.63
  -4  -5  -4  324.28   27.97
  -4  -5  -4  357.82   20.82
   4   5  -4  368.43   34.43
   4   5   4  336.62   32.06
  -4   5   4  351.03   32.59
   4   5   4  326.05   24.04
   4  -5   4  336.89   31.19
   4   5  -5  131.36   17.54
   4   5  -5   95.71   18.52
  -4   5   5  124.54   20.67
   4  -5   5  100.55   18.05
   4   5   5  118.69   14.85
   4   5   5   92.11   17.88
   4  -5  -5  130.69   19.69
  -4  -5  -5  137.01   19.79
   4   5  -6  197.68   21.63
   4   5   6  214.53   21.34
  -4   5   6  194.95   27.53
   4  -5   6  205.36   26.82
   4   5  -6  208.11   28.54
   4  -5  -6  204.27   26.18
  -4  -5  -6  228.98   27.40
   4   5   6  230.31   29.68
   4  -5  -7   41.99   12.30
  -4  -5  -7   43.33   12.24
   4   5   7   14.08    7.58
  -4   5   7   24.64   10.42
   4   5  -7   32.41    8.43
   4   5  -7   16.14    7.91
   4  -5   7   13.93    7.14
   4   5   7   28.53    8.21
   4   5   8   38.87   13.47
  -4   5   8   34.53   12.16
   4   5  -8   44.23   14.34
   4  -5  -8   23.12   10.48
  -4  -5  -8   26.14   10.67
   4  -5   8   37.16   12.15
   4   5   9    3.55    5.71
  -4   5   9    6.12    5.21
   4  -5  -9   10.32    6.93
   4   5  -9    5.09    5.49
  -4  -5  -9   -1.71    2.94
   4  -5   9   -0.33    2.11
   4  -6   0  732.71   38.75
  -4  -6   0  765.37   39.92
   4   6   0  702.17   41.96
  -4   6   0  779.02   46.14
  -4  -6  -1   25.63    6.94
  -4   6  -1   21.71    7.66
   4   6   1   25.02    7.62
  -4   6   1   22.57    8.17
   4  -6   1   21.07    6.58
  -4  -6   1   24.26    7.10
   4   6  -1   24.58    8.43
   4  -6  -1   21.37    6.16
   4   6  -2  244.15   27.21
   4  -6   2  230.43   22.53
   4   6   2  213.82   21.66
  -4   6   2  209.49   25.45
  -4  -6   2  211.76   22.73
  -4  -6  -3  102.80   11.22
   4   6  -3   94.55   17.82
   4  -6   3   97.49   14.95
  -4  -6   3   99.05   15.48
   4  -6  -3  129.40   18.97
  -4  -6  -3  123.29   17.90
  -4   6   3   97.91   17.87
   4   6   3  104.13   15.05
  -4  -6  -4  161.78   13.96
   4  -6  -4  194.34   23.69
  -4  -6  -4  184.83   22.71
   4   6  -4  141.80   22.61
  -4   6   4  173.83   24.60
   4   6   4  154.65   22.51
   4   6   4  164.67   19.62
   4  -6   4  144.08   22.18
  -4  -6  -5   66.86   14.58
   4   6   5   52.18   14.08
   4  -6   5   46.57   12.60
  -4   6   5   72.11   16.29
   4   6  -5   49.68   13.58
   4   6   5   64.07   12.20
   4  -6  -5   66.34   14.65
   4   6   6    2.66    2.70
  -4   6   6    9.66    6.84
   4   6   6    6.98    3.53
   4  -6  -6    5.83    3.93
  -4  -6  -6   10.94    5.05
   4   6  -6    5.43    6.08
   4  -6   6    4.66    4.76
   4   6   7   36.51   13.84
   4  -6  -7   35.03   12.64
  -4   6   7   31.04   11.20
  -4  -6  -7   36.01   12.31
   4   6   7   38.67   10.23
   4   6  -7   32.74   12.10
   4  -6   7   35.38   11.50
   4   6   8    3.64    4.81
   4   6  -8    4.93    5.68
  -4   6   8   -6.34    5.30
   4  -6   8   -0.58    2.71
   4  -6  -8   -2.53    1.28
  -4  -6  -8   -0.33    2.39
   4   6   9   25.04   13.08
  -4   6   9   14.39    9.30
   4   6  -9   19.79   10.78
   4  -6  -9   28.08   11.17
  -4  -6  -9   32.15   11.67
   4  -6   9    9.69    7.21
   4  -7   0  100.76   15.63
  -4  -7   0   99.38   15.75
   4   7   0   95.43   16.27
  -4   7   0   98.01   17.85
   4   7  -1  321.27   31.43
   4  -7  -1  299.15   26.72
  -4  -7  -1  319.39   27.78
   4  -7   1  337.32   29.39
  -4  -7   1  336.86   29.74
   4   7   1  313.36   28.79
  -4   7   1  348.24   34.13
  -4   7  -1  331.98   32.50
   4  -7   2   92.68   15.36
   4   7  -2  107.00   19.18
  -4  -7   2   91.88   15.85
  -4   7   2  114.68   20.47
   4   7   2   96.60   15.19
  -4  -7  -3  130.83   13.08
   4   7  -3  140.90   23.76
   4  -7   3  130.47   19.06
  -4  -7   3  134.34   19.68
   4  -7  -3  176.45   23.52
  -4  -7  -3  194.71   24.43
  -4   7   3  164.21   24.35
   4  -7  -4   87.72   17.43
  -4  -7  -4  104.94   18.31
   4   7  -4   94.14   19.47
   4  -7   4   90.53   18.64
  -4   7   4  100.32   20.01
   4   7   4   93.94   16.13
   4  -7  -5   -0.78    3.28
  -4  -7  -5    1.52    2.86
  -4   7   5    4.70    3.40
   4   7  -5    3.08    2.61
   4   7   5    0.46    2.16
   4  -7   5   -1.53    3.11
  -4   7   6   73.11   18.36
   4   7  -6   73.24   18.80
   4   7   6   59.67   13.57
   4  -7  -6   59.78   15.94
  -4  -7  -6   67.33   16.13
   4  -7   6   69.98   17.00
  -4  -7  -7    7.83    5.56
  -4   7   7    7.10    5.96
   4  -7  -7   13.69    8.59
   4   7  -7    2.31    5.01
   4  -7   7    8.05    6.56
   4  -7  -8   21.07    9.98
  -4  -7  -8   24.64   11.23
  -4   7   8   22.89   12.41
   4   7  -8   22.48   10.69
   4  -7   8   16.54    7.84
   4  -8   0  193.34   23.76
  -4  -8   0  194.11   23.92
   4   8   0  196.29   24.74
  -4   8   0  177.78   18.64
  -4   8   0  211.97   28.62
   4  -8  -1    9.30    5.00
  -4  -8  -1    9.97    4.79
   4  -8   1    4.61    1.35
  -4  -8   1   12.20    5.40
   4   8  -1   16.25    7.57
  -4   8   1   13.06    7.04
   4   8   1   10.58    5.71
  -4  -8   2  153.30   23.02
   4   8  -2  155.38   24.16
   4  -8  -2  159.43   21.55
  -4  -8  -2  144.81   20.55
   4  -8   2  157.24   21.97
   4   8   2  151.18   20.15
  -4   8   2  172.50   26.46
  -4  -8   3   42.35   12.05
  -4  -8  -3   61.37   14.76
   4  -8   3   42.00   11.07
  -4   8   3   46.35   13.71
   4   8  -3   39.60   13.05
   4  -8  -3   62.53   15.05
   4  -8  -4   20.06    8.63
  -4  -8  -4    9.46    5.41
  -4   8   4   15.11    8.42
   4   8  -4   12.06    7.00
   4  -8   4   15.44    7.76
   4   8  -5   27.05   12.64
   4  -8  -5   48.67   14.08
  -4   8   5   43.76   13.88
   4   8   5   34.17   10.28
  -4  -8  -5   39.21   12.56
   4  -8   5   27.78   10.09
   4   8  -6   15.47    8.48
  -4   8   6   20.37   10.99
   4  -8  -6   14.64    6.31
  -4  -8  -6   18.42    9.55
   4  -8   6   18.58    9.22
   4  -9   0   58.14   13.84
  -4  -9   0   72.52   16.12
   4   9   0   55.45   13.71
  -4   9   0   70.93   16.92
  -4  -9  -1   87.11   17.23
   4  -9   1  112.73   19.45
  -4  -9   1  105.04   19.41
   4  -9  -1   93.68   17.20
   4   9  -1  110.52   20.43
  -4   9   1  111.40   23.24
   4   9  -2   39.83   13.15
   4  -9  -2   31.64   10.55
  -4   9  -2   42.05   11.44
   4  -9   2   27.87    8.81
  -4  -9   2   37.68   11.47
  -4   9   2   33.97   11.73
  -4  -9  -2   34.55   11.22
   4  -9   3   19.28    8.42
  -4  -9  -3   40.85   13.11
  -4   9  -3   34.50   10.67
   4   9  -3   39.01   13.38
  -4  -9   3   32.92   11.46
  -4  -9  -3   26.29    9.09
  -4   9   3   37.01   13.20
   4  -9  -3   26.66    9.42
   4  -9  -3   28.75   10.91
   4  -9  -4   17.23    7.09
  -4  -9  -4   17.79    9.03
  -4   9  -4   13.02    7.42
  -4   9   4    6.27    5.79
   4   9  -4   21.59   10.72
   4  -9   4   14.51    9.20
  -5   0   0    0.57    0.41
   5   0   0   -0.15    0.37
  -5   0  -1  942.96   33.59
  -5   0   1  840.49   15.34
  -5   0   1  918.89   31.03
   5   0  -1 1000.01   36.37
   5   0   1 1037.75   42.11
  -5   0  -1  933.52   20.26
   5   0  -2    1.25    2.61
  -5   0   2   46.10    5.78
   5   0   2   44.77    5.44
   5   0   2    1.47    1.33
  -5   0   2   19.22    4.88
  -5   0   3   11.29    4.10
   5   0   3   12.42    4.07
   5   0   3   29.78    6.54
   5   0   3   75.39   13.11
   5   0  -3   76.69   12.06
   5   0   4   60.61    8.60
   5   0   4   49.40    4.74
   5   0  -5 1869.59   62.10
   5   0   5 1867.26   73.62
   5   0   5 1916.11   48.15
   5   0  -6   -1.32    1.85
   5   0   6    2.22    2.77
   5   0  -7  107.84   16.79
   5   0   7  113.12   20.58
   5   0  -8    0.99    0.88
   5   0   8    2.27    3.91
   5   0  -9  132.25   20.11
  -5   0   9  111.18   22.46
   5   0   9  152.49   26.38
   5   0 -10    0.40    2.67
  -5   0  10    7.39    5.49
   5   0  10    2.95    3.85
   5   0  11   22.50   11.50
  -5   0  11   21.00   11.58
   5  -1   0    0.96    0.94
  -5   1   0    2.20    1.53
  -5   1   0    1.70    1.54
   5  -1   0    1.30    1.03
   5  -1   0    0.10    1.84
  -5  -1   0    0.62    1.63
   5   1   0   -0.54    1.09
   5  -1   0    0.92    0.54
  -5   1   1 1190.73   35.92
  -5  -1  -1 1154.25   37.79
   5   1   1 1205.66   46.38
   5   1  -1 1230.99   21.70
   5   1  -1 1144.87   44.89
  -5  -1  -1 1190.92   20.12
   5  -1  -1 1271.58   24.91
   5  -1   1 1144.13   45.08
   5  -1   1 1245.13   30.24
   5   1  -1 1174.18   37.04
  -5  -1  -1 1265.63   24.59
  -5   1   1 1266.86   39.46
   5   1   1 1134.13   43.75
  -5   1  -1 1246.16   29.96
  -5  -1  -2   79.84   10.05
   5   1  -2   79.59    8.61
  -5   1   2   82.26   11.24
   5  -1   2   75.33   12.41
   5   1   2   82.51   12.57
   5  -1   2   75.36    7.14
   5   1   2   82.39   11.39
  -5   1  -2   81.45    7.05
   5   1  -2   73.04    6.83
   5   1  -2   88.87   13.16
   5   1  -3  584.82   33.87
  -5   1   3  744.41   29.22
   5   1   3  757.31   29.16
   5  -1  -3  611.65   31.84
  -5   1   3  678.77   35.02
   5  -1   3  602.22   37.52
   5   1   3  606.05   37.06
   5   1   3  720.41   32.96
   5  -1   3  686.37   22.26
   5   1  -4  529.20   34.34
  -5   1   4  554.00   34.51
   5  -1   4  540.41   37.52
   5   1   4  513.84   36.37
   5  -1  -4  534.13   31.01
   5  -1   4  518.85   21.40
   5   1   4  577.33   29.49
   5  -1  -5   90.64   13.25
   5   1  -5   85.17   14.11
  -5   1   5  108.62   16.58
   5   1   5  105.99    7.94
   5  -1   5   91.18   16.39
   5   1   5   96.11   16.80
   5  -1   5  110.80   10.56
   5   1  -5  102.48    9.30
   5  -1   5  100.17   10.52
   5   1  -6  503.13   36.64
   5  -1  -6  503.26   31.42
  -5   1   6  495.40   38.40
   5   1   6  498.67   21.85
   5   1   6  472.27   39.96
   5   1  -6  487.83   22.94
   5  -1   6  494.02   39.75
   5  -1   6  571.35   21.50
   5   1  -7   89.69   16.22
   5  -1  -7   95.04   14.20
  -5   1   7   79.97   16.76
   5   1   7   98.12   11.53
   5  -1   7   94.57   18.60
   5   1   7  106.52   20.07
   5  -1  -8  159.43   19.50
  -5   1   8  166.22   25.48
   5   1   8  186.41   17.73
   5   1  -8  174.85   24.06
   5  -1   8  189.58   27.62
   5   1   8  167.71   26.69
  -5   1   9   79.02   18.99
   5   1  -9  107.06   19.45
   5  -1  -9   97.35   15.99
   5  -1   9  106.16   22.02
   5   1   9  111.15   22.68
   5   1  10   65.44   18.05
  -5   1  10   58.89   17.75
   5   1 -10   49.40   13.60
   5  -1  10   51.22   15.76
   5   1  11   21.65   11.09
  -5   1  11   13.17    8.45
   5   1 -11   17.94    8.08
  -5  -1  11   11.71    7.94
   5  -1  11   14.44    8.78
   5   2   0    1.38    1.84
   5   2   0    1.97    2.00
  -5   2   0    0.46    0.65
   5  -2   0    0.78    0.33
  -5  -2   0   -0.34    0.15
  -5  -2   0   -0.49    1.30
   5   2   0    0.78    0.71
   5   2   1  337.68   23.38
  -5  -2  -1  285.74   18.60
  -5   2   1  312.01   18.00
   5   2  -1  247.71   22.30
   5  -2  -1  197.94   13.09
   5   2  -1  352.69   27.09
  -5  -2  -1  204.88   13.26
   5   2   1  228.54   20.73
   5  -2   1  325.19   26.07
   5   2  -1  326.77   18.44
   5  -2   1  267.21   17.49
  -5   2   1  269.16   20.35
  -5   2  -1  253.57   16.62
  -5  -2   1  376.56   19.93
  -5  -2  -1  254.01   11.76
   5   2  -2   25.01    7.21
  -5   2   2   17.68    5.83
  -5   2   2   11.11    3.50
  -5  -2  -2    6.08    3.35
   5   2   2   27.24    6.85
   5  -2   2   17.41    4.48
  -5   2  -2   10.49    2.77
   5   2  -2    8.26    2.81
   5   2  -2    3.99    2.86
  -5   2  -2   27.20    4.97
  -5  -2  -2   17.27    2.08
   5  -2   2    2.98    2.30
   5  -2  -2   31.69    5.64
   5   2  -2    3.31    1.70
  -5  -2  -2   35.74    6.13
   5   2   2    5.56    3.49
  -5  -2  -3 1480.35   45.26
   5   2  -3 1554.58   59.08
  -5  -2  -3 1378.71   44.03
   5  -2   3 1523.41   60.69
  -5   2   3 1396.47   53.40
   5   2  -3 1517.98   27.49
   5  -2  -3 1335.31   42.85
   5   2   3 1529.25   59.76
   5  -2   3 1419.14   40.90
   5   2   3 1433.45   50.49
   5   2   4   82.83   12.37
  -5   2   4   51.60   10.76
   5   2  -4   27.78    8.28
   5  -2  -4   73.66   11.31
  -5  -2  -4   72.05   11.28
   5   2  -4   28.28    3.01
   5   2  -4   33.36    3.01
   5   2   4   66.69    4.99
   5  -2   4   65.30    8.94
   5  -2   4   28.74    8.73
   5   2   4   32.43    9.52
   5   2  -5   13.07    5.74
  -5   2   5   33.29    9.20
   5  -2  -5   21.07    5.81
   5   2  -5   18.90    2.45
   5   2  -5   17.12    2.41
   5  -2   5   25.81    8.81
   5   2   5   22.69    8.33
   5   2  -6   71.30   15.02
   5  -2  -6   72.10   11.66
  -5   2   6  100.29   18.04
   5  -2   6   80.27   16.13
   5   2   6  129.51   11.48
   5   2   6   82.81   17.13
   5  -2   6  146.40    9.75
   5   2  -7  614.95   45.82
   5  -2  -7  600.26   34.37
   5   2   7  578.08   27.97
   5  -2   7  610.58   46.21
   5   2   7  588.73   47.39
  -5   2   7  500.73   42.36
   5   2   8   75.91   18.18
  -5   2   8   69.33   16.57
   5  -2  -8   55.14   10.66
   5   2  -8   62.69   15.20
   5  -2   8   72.00   16.88
   5   2   9   70.78   18.20
  -5   2   9   65.77   17.46
   5   2  -9   63.64   15.94
   5  -2   9   64.36   16.53
   5   2  10    6.76    6.43
  -5   2  10    8.77    6.68
   5   2 -10    1.39    3.45
   5  -2  10    4.31    5.58
   5   3   0    1.17    1.75
  -5   3   0   -0.23    1.81
   5  -3   0    0.78    0.22
  -5  -3   0    0.35    0.76
   5   3   0    0.29    1.53
  -5  -3   0    1.66    2.05
   5   3   0    0.58    1.43
  -5  -3   1  572.24   25.08
   5   3   1  545.54   33.10
   5  -3   1  598.34   24.58
  -5  -3   1  557.61   24.15
   5   3  -1  527.10   33.89
   5   3   1  564.18   30.93
   5   3  -1  563.14   23.19
  -5   3   1  625.55   33.51
   5   3  -1  663.84   37.22
  -5   3  -1  648.75   30.40
  -5  -3  -1  660.17   23.71
   5   3   1  709.85   38.62
  -5  -3  -2  277.74   19.06
   5  -3  -2  313.76   20.69
  -5  -3  -2  336.05   21.46
   5   3  -2  282.70   26.04
   5  -3   2  285.32   26.49
  -5   3   2  307.78   25.69
   5   3   2  292.03   24.48
  -5  -3  -2  312.75   14.73
   5   3  -2  305.83   25.59
   5   3  -2  305.37   12.94
  -5   3  -2  301.83   20.55
   5   3   2  316.93   25.53
   5   3   3  242.09   22.59
  -5   3   3  205.86   13.42
  -5  -3  -3  183.95   15.70
   5  -3   3  185.59   21.99
   5   3  -3  176.49   21.61
  -5  -3  -3  217.20   11.89
  -5   3   3  233.98   23.47
   5   3  -3  233.02   22.29
   5   3   3  204.18   22.03
   5  -3  -3  252.23   20.55
  -5  -3  -3  262.52   20.82
  -5   3   4  219.55   14.21
  -5   3   4  220.68   16.85
   5   3  -4  199.38   24.10
   5  -3   4  206.81   24.07
  -5   3   4  218.29   23.95
   5   3  -4  205.15   21.82
   5  -3  -4  230.94   21.40
  -5  -3  -4  226.34   21.47
   5   3   4  203.24   23.99
   5   3   4  213.33   13.12
   5  -3  -5  411.58   30.97
  -5   3   5  354.76   20.16
   5   3  -5  371.46   34.48
  -5  -3  -5  391.09   30.70
  -5   3   5  383.33   33.46
   5   3  -5  350.37   27.94
   5   3   5  375.20   34.58
   5   3   5  386.52   19.27
   5  -3   5  385.09   34.62
   5   3  -6  217.88   27.85
   5  -3  -6  165.81   21.86
  -5  -3  -6  180.18   22.13
   5  -3   6  196.44   26.48
  -5   3   6  171.48   24.30
   5   3  -6  172.84   19.89
   5   3   6  214.77   27.88
   5   3   6  196.59   15.33
   5   3  -7  144.38   23.69
  -5   3   7  136.13   22.29
   5  -3   7  156.58   24.39
   5   3  -7  114.68   16.52
   5   3   7  142.40   14.77
   5   3   7  122.69   22.22
   5   3  -8  209.48   29.58
  -5   3   8  217.25   29.60
   5  -3   8  193.98   27.79
   5   3  -8  214.43   22.44
   5   3   8  205.75   30.45
   5   3   9   14.78    6.81
  -5   3   9    7.96    5.76
   5   3  -9   15.94    8.72
   5  -3   9   11.55    5.74
   5   3 -10  149.65   26.56
  -5   3  10  132.08   26.13
   5  -3  10  156.71   27.45
   5   3  10  124.59   26.26
   5   4   0    2.01    2.33
   5   4   0    1.21    2.03
   5  -4   0   -0.33    1.19
  -5   4   0    2.40    2.61
  -5  -4   0    1.59    2.05
   5   4   0    2.31    3.45
   5   4   1  587.00   37.75
   5   4  -1  692.00   40.44
   5  -4   1  652.78   29.98
  -5  -4   1  644.08   30.38
   5   4   1  693.07   38.84
  -5  -4   1  672.38   27.85
   5   4   1  670.91   34.67
   5   4  -1  695.08   26.01
  -5   4   1  628.34   36.78
  -5   4  -1  615.57   33.69
   5   4  -1  614.69   39.20
   5   4   2   17.10    6.16
  -5  -4  -2   15.16    4.42
   5  -4  -2   17.05    5.35
  -5   4   2   16.31    5.81
  -5  -4  -2   13.35    3.81
   5   4  -2   24.06    7.88
   5  -4   2   20.15    4.91
  -5  -4   2   15.37    4.77
   5   4  -2   24.07    8.01
  -5   4  -2   13.67    4.97
  -5  -4   2   20.28    3.74
  -5  -4  -2   14.89    5.25
   5   4   3    1.11    1.09
  -5  -4  -3    6.97    2.92
  -5  -4  -3   10.36    4.31
  -5  -4  -3    3.77    2.76
  -5   4   3    4.85    2.26
   5   4  -3    7.51    4.64
   5  -4  -3    9.32    4.31
   5   4  -3    1.59    1.32
  -5   4   3   -0.13    0.94
   5  -4   3    2.17    1.02
  -5   4   4   65.71    8.49
   5   4  -4   75.40   15.71
   5   4   4   69.58   14.70
  -5  -4  -4   78.74    9.53
  -5   4   4  102.14   17.51
   5   4  -4  101.80   15.72
   5  -4   4   50.27   12.79
   5   4   4  106.48   11.42
   5  -4  -4  135.38   17.93
  -5  -4  -4  140.97   17.52
  -5   4   5  457.44   17.79
   5   4  -5  489.56   41.89
   5  -4   5  474.93   39.43
  -5   4   5  388.36   35.48
   5  -4  -5  388.64   32.14
  -5  -4  -5  439.97   34.12
   5   4   5  468.75   39.70
   5   4  -5  362.02   30.50
   5   4   5  410.91   23.60
   5   4   6   55.09   14.34
  -5   4   6   65.12   14.99
   5   4  -6   55.90   14.86
   5  -4  -6   87.79   16.03
  -5  -4  -6   88.91   16.26
   5   4  -6   87.67   14.47
   5   4   6   81.06   10.93
   5  -4   6   49.07   12.69
   5   4   7   51.06   14.80
  -5   4   7   51.59   13.98
   5  -4  -7   79.73   16.41
   5   4  -7   56.99   15.20
  -5  -4  -7   87.95   16.97
   5   4  -7   67.53   12.89
   5  -4   7   51.32   13.87
   5   4  -8   25.76   11.08
   5   4   8   26.90   11.71
  -5   4   8   47.84   14.37
   5   4  -8   51.18   10.87
   5  -4   8   30.93   11.26
   5   4  -9  268.77   35.70
  -5   4   9  287.36   38.16
   5  -4   9  315.88   37.50
   5   4   9  283.01   38.42
   5   4  10   35.24   14.82
  -5   4  10   22.49   10.87
   5   4 -10   15.42    7.71
   5  -4  10   24.13   10.93
   5  -5   0   -1.20    1.65
  -5  -5   0    1.77    2.16
  -5   5   0    2.06    0.47
   5   5   0    2.15    1.86
   5   5  -1  133.22   18.97
   5  -5  -1   74.15   11.45
  -5  -5  -1   81.68   11.80
   5  -5   1   88.69   12.36
  -5  -5   1   84.50   12.22
   5   5  -1   76.57   13.96
   5   5   1   65.66   13.08
  -5  -5   1   62.96    8.88
   5   5   1   76.84   12.04
  -5   5   1  123.75   17.65
  -5   5  -1  106.91   15.57
  -5  -5  -2   66.05    9.90
   5  -5   2   63.46   10.73
  -5  -5   2   60.21   11.01
   5  -5  -2   78.81   12.74
  -5  -5   2   51.15    6.73
   5   5   2   61.13   12.47
  -5   5   2   69.54   15.11
   5   5  -2   62.77   13.61
  -5   5  -2   61.32   11.90
   5   5  -2   68.29   13.63
  -5  -5  -3  294.70   20.36
   5  -5  -3  390.94   30.63
  -5  -5  -3  393.14   30.08
   5   5  -3  267.89   29.30
   5  -5   3  280.35   30.03
  -5   5   3  308.50   30.04
   5   5   3  272.93   27.76
   5   5  -3  354.00   30.75
   5  -5  -4  117.73   18.15
  -5  -5  -4  122.03   17.42
  -5  -5  -4  121.38   13.06
   5   5  -4  126.00   21.38
   5  -5   4  120.78   19.71
  -5   5   4  113.68   19.59
   5   5   4  102.25   18.26
   5   5   4  134.50   15.11
   5   5  -4  124.96   18.12
   5   5  -5  217.58   29.38
   5  -5   5  217.59   27.73
  -5   5   5  206.18   26.93
   5   5   5  201.56   27.26
   5  -5  -5  220.79   25.69
  -5  -5  -5  263.48   27.49
   5   5   5  213.68   19.48
   5   5  -5  239.17   25.28
   5   5  -6  121.02   23.00
   5  -5   6  126.57   22.38
   5  -5  -6  143.16   22.36
  -5   5   6  130.07   22.38
  -5  -5  -6  159.62   23.20
   5   5   6  126.04   22.95
   5   5   6  133.82   15.97
   5   5  -6  130.60   18.57
   5   5   7   59.85   17.39
  -5   5   7   65.02   16.73
   5   5  -7   69.54   17.48
   5  -5   7   76.45   17.62
   5  -5  -7   64.88   15.31
  -5  -5  -7   66.57   15.15
   5   5  -7   72.40   13.68
   5   5  -8  182.40   30.05
  -5  -5  -8  198.56   28.32
   5  -5  -8  165.95   26.33
   5  -5   8  183.89   28.98
  -5   5   8  176.80   29.10
   5   5   8  172.73   30.34
   5   5   9   13.25    9.18
  -5   5   9   25.10   11.29
   5   5  -9   20.00   10.43
   5  -5   9   28.22   10.72
   5  -6   0   -0.12    2.01
  -5  -6   0    1.28    1.72
   5   6   0    0.09    0.86
  -5   6   0    0.87    1.65
   5   6  -1   68.51   14.09
   5  -6  -1   58.58   11.43
  -5  -6  -1   64.57   11.94
   5  -6   1   62.12   11.45
  -5  -6   1   73.98   12.77
  -5   6  -1   54.63   12.58
   5   6   1   70.41   14.02
  -5   6   1   74.48   15.19
  -5   6   2   48.58   12.78
   5  -6   2   43.10    9.97
   5   6  -2   29.50   10.22
   5   6   2   33.10    9.15
  -5  -6   2   40.27    9.93
  -5  -6  -3  195.98   16.99
   5   6  -3  201.63   27.23
   5  -6  -3  200.76   24.16
  -5  -6  -3  198.90   23.42
   5  -6   3  204.84   28.24
   5   6   3  187.73   23.41
  -5   6   3  179.87   25.29
   5   6  -4   43.72   13.69
   5   6   4   44.69   12.55
   5  -6  -4   72.72   14.56
  -5  -6  -4   79.19   15.07
  -5  -6  -4   48.89    8.51
  -5   6   4   60.70   14.61
   5  -6   4   48.78   13.38
   5   6   5   28.62   11.28
  -5   6   5   46.38   13.86
   5   6  -5   25.61   10.76
   5   6   5   43.69    9.57
   5  -6  -5   50.46   12.66
  -5  -6  -5   58.84   13.87
   5  -6   5   29.06   10.51
   5   6   6   30.16   12.11
  -5   6   6   49.77   14.51
   5  -6  -6   51.04   13.19
  -5  -6  -6   50.11   13.72
   5   6  -6   27.58   10.85
   5  -6   6   29.53   11.10
   5   6  -7  298.57   39.28
   5  -6   7  283.80   35.35
   5  -6  -7  266.89   33.81
  -5  -6  -7  295.58   34.11
  -5   6   7  257.87   35.17
   5   6   7  268.60   37.44
   5   6   8   32.53   13.66
  -5   6   8   34.83   13.80
   5   6  -8   23.22   10.56
   5  -6   8   24.84   11.06
   5  -6  -8   38.78   13.94
  -5  -6  -8   42.07   13.98
   5  -7   0    6.05    4.14
  -5  -7   0    6.54    4.97
  -5   7   0    4.42    4.85
   5   7   0    5.29    6.00
  -5  -7  -1   53.52   11.70
   5  -7   1   66.72   12.99
  -5   7   1   76.70   16.40
  -5  -7   1   64.62   13.17
   5   7  -1   43.09   11.84
   5   7   1   52.11   12.56
  -5   7  -1   64.17   14.59
   5  -7  -1   57.09   11.93
  -5  -7  -2    0.57    1.70
   5   7  -2    6.25    4.54
  -5   7   2    2.46    3.56
   5  -7   2    0.19    1.92
  -5  -7   2    1.32    1.93
   5   7   2    1.69    1.79
  -5  -7  -3  101.18   12.67
   5   7  -3   86.14   18.87
   5  -7  -3  125.38   20.40
  -5  -7  -3  149.81   21.72
   5  -7   3  102.10   17.11
  -5   7   3  110.01   20.24
   5  -7  -4   78.90   16.28
  -5  -7  -4   84.08   16.49
  -5   7   4   73.78   16.94
   5   7  -4   61.66   16.38
   5  -7   4   77.41   18.26
  -5  -7  -5   68.45   15.86
   5  -7  -5   76.59   17.43
  -5   7   5   58.61   16.55
   5   7  -5   45.10   15.03
   5   7   5   62.76   12.91
   5  -7   5   46.03   13.83
   5   7  -6  156.74   29.52
   5  -7   6  165.30   27.49
  -5   7   6  167.69   27.58
   5  -7  -6  194.34   28.60
  -5  -7  -6  170.85   25.96
   5  -7  -7   50.07   15.24
  -5  -7  -7   60.35   16.10
  -5   7   7   54.79   17.14
   5   7  -7   46.82   16.59
   5  -7   7   51.86   15.79
   5  -8   0    1.99    3.54
  -5  -8   0    2.29    2.76
   5   8   0   -0.01    0.86
  -5   8   0    2.23    4.03
   5  -8  -1   10.24    5.92
  -5  -8  -1   14.61    6.93
   5  -8   1   21.44    7.92
  -5  -8   1   17.62    7.50
   5   8  -1   10.49    5.66
   5   8   1   20.88    8.57
  -5   8   1   20.59    8.53
  -5   8  -1   17.91    8.53
  -5  -8   2   44.25   12.49
  -5  -8  -2   32.77    9.41
   5   8  -2   42.38   13.12
  -5   8   2   26.34   10.53
   5  -8   2   42.04   11.41
   5   8   2   39.96   11.13
   5  -8  -2   41.45   11.26
   5  -8   3   -0.66    2.86
   5  -8  -3    7.83    4.32
  -5   8   3    6.29    5.70
   5   8  -3    0.95    2.47
  -5  -8   3   -0.83    3.65
  -5  -8  -3    8.13    5.81
  -5   8   4   16.68    8.31
   5   8  -4    6.97    7.08
   5  -8  -4   33.22   10.98
   5  -8   4   17.39    9.53
  -5  -8  -4   32.83   11.16
   5  -8  -5  178.64   27.42
  -5  -8  -5  216.86   29.80
   5   8  -5  171.56   29.98
   5  -8   5  147.79   26.11
  -5   8   5  169.64   29.31
  -5   8   6   24.86   12.48
   5   8  -6   16.60    9.85
   5  -8  -6   27.37   10.77
  -5  -8  -6   23.79   10.24
   5  -8   6   22.08   10.38
   5  -9   0   -3.48    3.70
  -5  -9   0   -1.96    1.39
   5   9   0    0.21    4.42
  -5   9   0    5.61    6.89
   5  -9  -1   39.82   11.36
  -5  -9  -1   40.44   11.54
   5  -9   1   33.14   10.77
  -5  -9   1   47.61   13.56
   5   9  -1   50.11   13.93
  -5   9   1   61.62   17.06
  -5  -9   2   14.56    7.08
  -5   9  -2    7.58    4.16
   5  -9  -2   17.35    7.51
  -5  -9  -2   12.71    5.63
  -5   9   2   16.72    8.89
   5   9  -2    9.16    6.45
   5  -9   2   17.84    8.02
  -5  -9  -3    8.57    5.59
  -5   9   3    9.26    6.35
  -5  -9  -3   25.27   10.89
   5   9  -3    5.33    4.10
   5  -9   3    8.74    5.30
  -5  -9   3   12.72    6.38
   5  -9  -3   12.58    7.14
  -5   9   4   53.84   17.08
   5  -9  -4   67.59   17.77
  -5  -9  -4   66.80   17.31
  -6   0   0 4506.80   79.66
   6   0   0 4547.27   89.58
  -6   0   0 4604.24   64.43
  -6   0   1    0.63    0.71
  -6   0   1   -1.25    2.11
  -6   0  -1    2.95    1.72
  -6   0  -1    0.95    0.51
   6   0  -1    0.06    0.63
   6   0   1    0.97    2.02
  -6   0   2   82.69    7.41
   6   0   2   75.81    6.58
  -6   0   2   93.60   11.96
   6   0   2   98.91   14.71
   6   0   3    3.54    2.02
  -6   0   3    4.22    2.13
   6   0   3    2.16    0.77
   6   0  -3    2.18    2.47
   6   0   3   -1.53    2.56
  -6   0   3    0.58    0.27
   6   0  -4 2536.27   77.82
  -6   0   4 2371.36   73.03
   6   0   4 2452.39   84.32
   6   0   4 2427.19   62.15
   6   0   5   -0.53    1.18
   6   0   5    1.30    1.01
   6   0  -5    0.07    0.28
   6   0   5   -0.08    3.20
  -6   0   5    2.32    2.84
   6   0  -6  247.65   25.12
  -6   0   6  219.22   26.44
   6   0   6  259.70   30.59
   6   0   6  248.00   18.57
   6   0  -7    2.57    3.89
   6   0   7    2.98    3.98
  -6   0   7    3.12    3.48
   6   0  -8   60.07   13.85
   6   0   8   61.23   16.13
  -6   0   8   37.42   13.01
   6   0  -9    1.76    4.47
   6   0   9   -1.92    5.67
  -6   0   9    1.08    1.70
   6   0 -10   46.95   13.08
   6   0  10   49.97   15.81
  -6   0  10   41.36   13.92
  -6  -1   0   71.03    9.98
  -6   1   0   67.70    9.66
   6  -1   0   91.26    9.80
  -6  -1   0   91.76    8.58
   6  -1   0   52.43   10.09
   6   1   0   48.79    8.99
  -6   1   0  115.56   11.23
  -6   1   1  764.80   32.22
  -6  -1  -1  734.92   32.60
  -6  -1  -1  729.61   13.70
   6   1  -1  769.07   41.06
   6  -1   1  774.98   26.01
   6  -1   1  709.02   38.26
  -6  -1  -1  748.00   17.85
   6   1  -1  746.78   33.52
   6   1   1  724.62   37.73
  -6   1   1  751.10   32.33
  -6   1  -1  773.36   25.43
  -6   1   2   20.98    5.88
   6   1   2   28.38    6.88
  -6   1   2    9.02    3.29
  -6  -1  -2   11.35    4.36
  -6   1  -2   11.74    2.46
   6   1  -2   13.88    2.76
   6   1  -2    0.65    1.42
   6  -1   2   22.39    3.83
   6   1  -2    1.57    1.77
   6  -1   2    1.34    1.57
   6   1   2    6.30    3.83
  -6   1  -2   32.83    4.62
  -6   1  -3  678.48   24.48
   6   1  -3  672.90   40.48
  -6   1   3  723.23   29.39
   6   1   3  679.64   27.29
   6   1  -3  647.95   27.16
  -6   1   3  636.28   35.72
   6  -1   3  637.32   41.08
   6   1   3  646.06   39.98
   6  -1   3  719.30   22.31
   6   1   3  668.13   35.29
  -6   1   4    3.97    3.47
   6   1   4    9.96    3.48
   6  -1   4    9.72    2.55
   6  -1  -4    0.35    1.77
   6   1  -4   -0.16    1.00
   6  -1   4    1.28    2.35
   6   1   4   -1.61    4.21
   6   1  -5   73.45   14.00
   6  -1  -5   83.01   13.61
  -6   1   5  113.25   17.78
   6  -1   5   78.87   15.69
   6  -1   5  141.91   13.74
   6   1   5   84.66   16.65
   6   1  -5   85.66    9.07
   6  -1   5  121.24   10.91
   6   1   5  145.29   15.64
  -6   1   6    6.18    4.95
   6   1   6    1.95    1.02
   6  -1   6    0.58    1.07
   6   1  -6    8.37    5.23
   6  -1  -6    6.13    4.40
   6  -1   6   12.83    6.88
   6   1   6    4.17    3.63
   6   1  -7    7.71    5.53
   6  -1  -7    7.58    5.02
   6  -1   7    8.08    7.22
   6   1   7   11.51    7.29
  -6   1   8   33.27   12.41
   6  -1  -8   45.37   10.65
   6   1  -8   51.52   13.19
   6  -1   8   49.69   14.92
   6   1   8   44.33   13.84
  -6   1   9   32.56   12.37
   6  -1  -9    5.13    4.08
   6   1  -9   12.86    6.44
   6  -1   9   21.00   10.62
   6   1   9   21.09   10.65
   6   1  10   10.11    8.90
  -6   1  10    9.07    8.56
   6   1 -10    2.41    3.69
   6  -1  10    1.72    3.35
   6  -2   0   66.16    6.20
  -6  -2   0   62.76    6.19
   6   2   0   82.19   13.50
   6   2   0   49.93    8.91
  -6   2   0   73.63   10.09
   6  -2  -1   24.09    4.34
   6   2  -1   27.78    7.85
  -6  -2  -1   26.04    4.38
   6   2   1   22.99    7.24
  -6  -2  -1   26.80    6.01
  -6   2   1   28.94    6.86
  -6   2   1   22.58    5.31
  -6  -2  -1   26.45    4.06
  -6   2  -1   22.68    5.07
   6   2  -1   31.28    8.33
   6   2  -1   29.29    6.35
   6  -2   1   29.26    8.49
   6   2   1   29.72    7.67
  -6   2   2 3507.08   66.53
  -6  -2  -2 3282.80   70.34
  -6   2  -2 3463.67   51.86
   6   2  -2 3474.46   53.46
   6   2  -2 3477.42   93.35
   6  -2   2 3477.69   92.52
   6   2  -2 3550.19   61.69
  -6   2   2 3401.89   80.96
   6  -2   2 3459.97   63.63
   6   2   2 3253.92   85.35
   6  -2  -2 3269.99   59.64
  -6  -2  -2 3318.82   60.13
   6   2   2 3340.68   83.27
  -6   2  -2 3392.48   60.57
   6   2  -3    0.73    1.83
  -6   2   3    1.76    1.43
  -6   2   3    2.76    1.52
  -6  -2  -3    0.98    2.29
   6  -2   3   -0.09    1.11
   6   2   3    4.41    3.03
   6  -2  -3    1.79    1.79
  -6  -2  -3    3.14    1.80
   6  -2   3    1.90    2.62
   6   2  -3    1.83    0.98
   6   2   3    0.83    2.25
   6   2  -4  152.11   20.50
   6   2  -4  145.70    9.35
   6  -2   4  135.97   20.65
  -6   2   4  142.72   18.88
   6   2   4  155.26   21.53
   6  -2   4  134.59   13.09
   6   2   4  144.14   17.22
  -6   2   5    1.29    1.77
   6   2  -5    7.42    5.93
   6   2  -5    2.33    0.94
   6  -2   5    8.09    5.05
   6   2   5    7.38    4.78
   6   2  -5    5.37    1.45
   6   2  -6  593.53   44.60
   6  -2  -6  566.10   34.45
  -6   2   6  535.93   42.13
   6  -2   6  582.15   45.90
   6  -2   6  556.56   24.27
   6   2   6  590.12   47.40
  -6   2   7   25.42   10.17
   6   2  -7   26.67   10.14
   6  -2  -7   34.73    8.74
   6  -2   7   20.72    8.60
   6   2   7   39.22   12.58
  -6   2   8   80.10   19.18
   6   2  -8   88.27   18.13
   6   2   8   97.51   21.59
   6  -2   8   86.15   19.22
   6   2   9   18.74   10.44
   6   2  -9   12.01    5.28
  -6   2   9    4.43    3.97
   6   2  -9    9.37    6.47
   6  -2   9   15.69    9.02
   6   2  10    0.59    2.99
  -6   2  10    8.80    7.10
   6   2 -10    1.46    3.88
   6  -2  10   -3.47    5.88
   6   3   0    8.24    5.11
  -6   3   0   15.84    5.24
   6  -3   0   16.65    3.85
  -6  -3   0   10.56    3.07
   6   3   0   15.30    5.83
   6   3   0   18.38    5.50
  -6  -3  -1  765.47   33.87
  -6  -3  -1  801.60   27.78
   6  -3   1  821.62   28.51
   6   3  -1  796.55   45.90
   6  -3  -1  801.88   31.07
  -6  -3  -1  803.48   30.08
  -6  -3   1  810.94   31.62
   6   3  -1  817.39   32.15
   6   3   1  827.22   40.43
  -6  -3   1  778.03   28.53
   6   3  -1  789.50   44.48
  -6   3   1  820.16   40.12
   6   3   1  762.94   43.42
  -6   3  -1  776.59   34.52
  -6  -3  -1  807.98   26.40
   6  -3  -2   60.64    9.04
  -6  -3  -2   55.08    8.49
   6   3  -2   46.42   10.17
  -6  -3  -2   26.56    6.63
  -6   3   2   43.47    9.62
  -6   3   2   25.83    5.67
   6   3  -2    7.93    5.11
   6   3   2   47.60   10.33
  -6  -3  -2   38.77    4.70
   6  -3   2   12.30    5.87
  -6   3  -2   43.55    7.79
   6   3   2   13.40    5.31
   6   3  -2   18.67    3.89
  -6   3   3  133.59   12.36
  -6  -3  -3  116.59   13.32
   6   3  -3  128.32   19.03
  -6  -3  -3  124.94    7.46
   6  -3   3  133.03   19.30
  -6   3   3  140.22   18.58
   6   3  -3  138.28   18.63
   6   3   3  133.72   19.12
   6   3  -3  122.54    6.29
   6  -3  -3  129.48   14.69
  -6  -3  -3  145.47   15.57
   6   3   3  127.98   17.20
   6  -3  -4    5.81    3.39
  -6  -3  -4    4.49    2.66
   6   3  -4   10.13    5.52
  -6   3   4   -0.19    1.20
  -6   3   4    7.34    3.15
   6   3  -4    5.07    3.32
   6  -3   4    6.23    4.84
   6   3   4    3.66    4.32
  -6   3   5  201.88   15.46
   6   3  -5  171.84   24.52
  -6  -3  -5  299.95   26.40
   6  -3   5  184.06   25.30
  -6   3   5  233.49   27.42
   6   3  -5  231.14   24.73
   6   3   5  201.86   26.61
   6  -3  -5  295.54   26.15
   6   3   6   36.11   11.52
   6   3  -6   21.14    7.88
  -6   3   6   24.20   10.44
   6   3  -6   55.01   14.54
   6  -3   6   38.86   12.26
   6   3   7    0.70    3.69
  -6   3   7   31.02   11.12
   6   3  -7   32.60    9.12
   6   3  -7    2.09    2.20
   6  -3   7    8.00    4.98
   6   3   8    5.65    3.96
  -6   3   8   11.73    7.34
   6   3  -8    8.63    4.73
   6   3  -8   -0.27    3.47
   6  -3   8    2.95    4.18
   6   3   9    0.75    1.95
   6   3  -9    1.34    2.65
   6  -3   9   -3.28    6.31
   6   3  10   -2.72    3.70
  -6   3  10    4.19    5.04
   6   3 -10    2.09    3.38
   6  -3  10   -1.67    1.11
   6  -4   0 2590.83   58.12
  -6  -4   0 2711.51   61.49
   6   4   0 2627.45   85.20
   6   4   0 2705.12   65.88
  -6   4   0 2691.10   74.59
   6   4   0 2721.84   85.68
   6   4   1    6.86    3.42
   6   4  -1    8.18    3.00
  -6   4  -1    9.65    4.34
   6   4  -1   10.79    5.81
   6   4   1   12.13    5.67
  -6  -4  -1    7.86    2.79
   6  -4   1   12.44    4.04
  -6  -4   1    3.10    0.41
   6   4  -1    4.19    3.32
   6   4   1   10.78    5.37
  -6  -4   1    5.46    2.44
  -6   4   1   12.02    5.98
   6   4   2   83.73   15.06
   6   4   2   44.31   10.44
  -6  -4  -2   55.36    9.25
   6  -4  -2  110.82   13.95
  -6  -4  -2  115.25   13.94
   6   4  -2   43.02   10.99
  -6  -4   2   40.13    5.91
  -6   4   2   81.12   14.78
  -6  -4  -2   67.65    8.01
   6   4  -2   54.91    6.34
   6  -4   2   52.16   13.15
   6   4  -2   74.82   13.86
  -6   4  -2   69.81   11.36
   6   4   3   21.34    7.28
  -6  -4  -3   25.05    6.84
  -6  -4  -3   18.41    4.04
  -6  -4  -3   27.72    6.31
   6   4  -3   20.35    7.50
  -6   4   3   19.58    7.64
   6   4  -3   30.34    9.57
   6  -4   3   24.31    8.68
   6  -4  -3   22.83    6.82
  -6  -4  -4  897.46   38.88
   6   4  -4  957.50   58.03
   6  -4   4  952.03   56.35
  -6   4   4  865.61   52.58
   6   4   4  922.80   54.34
   6   4  -4  853.57   48.59
   6  -4  -4  855.44   44.17
  -6  -4  -4  915.89   45.18
   6   4   5   43.48   12.27
   6  -4  -5   18.07    7.57
  -6  -4  -5   27.25    8.47
  -6   4   5   42.01    6.47
  -6   4   5   22.68    9.38
   6   4  -5   27.05    8.96
   6   4  -5   41.53   12.67
   6  -4   5   35.12   11.50
   6   4   6   30.95   11.16
  -6   4   6   30.63   10.48
   6   4  -6   25.99    8.59
   6   4  -6   29.81   11.30
   6  -4  -6   34.90   10.64
   6  -4   6   30.40   10.51
  -6  -4  -6   30.63    9.87
   6   4   7    1.95    3.38
  -6   4   7   11.19    7.08
   6   4  -7    5.60    4.54
   6   4  -7    2.14    4.37
   6  -4  -7    7.02    5.24
  -6  -4  -7   10.11    6.34
   6  -4   7    8.96    6.20
   6   4   8   66.89   18.61
  -6   4   8   69.26   18.51
   6   4  -8   53.83   12.35
   6   4  -8   93.20   21.06
   6  -4   8   90.82   20.05
   6   4   9    3.30    7.03
  -6   4   9    1.67    4.94
   6   4  -9    5.01    6.39
   6  -4   9   -0.57    1.35
   6   5   0    5.52    3.52
   6  -5   0    7.26    3.36
  -6  -5   0    4.30    2.73
  -6   5   0   14.13    5.57
   6   5   0    2.68    2.70
   6  -5  -1  242.57   20.22
  -6  -5  -1  250.49   21.02
   6  -5   1  257.83   21.18
  -6  -5   1  235.87   20.83
   6   5  -1  260.27   28.52
   6   5   1  245.88   25.84
   6   5   1  258.22   23.34
  -6   5   1  255.07   26.56
  -6   5  -1  239.57   23.74
   6   5  -1  231.22   26.87
   6   5   2   13.92    6.17
  -6  -5  -2   12.15    4.35
  -6   5   2    5.83    4.31
   6   5  -2    6.26    3.52
   6  -5   2   12.70    5.00
   6  -5  -2    6.22    3.60
  -6  -5   2   14.26    5.16
  -6   5  -2    8.75    4.63
  -6  -5  -2    6.39    3.91
   6   5  -2   22.15    8.42
  -6  -5  -3  300.04   22.31
   6  -5  -3  367.06   29.26
  -6  -5  -3  366.38   28.37
   6   5  -3  306.12   33.14
   6  -5   3  288.87   32.04
   6   5   3  299.17   29.31
  -6   5   3  348.13   33.08
   6   5  -3  339.23   31.99
   6   5   4    4.14    4.68
  -6  -5  -4    5.77    3.13
  -6   5   4    9.22    4.00
   6   5  -4    8.81    5.52
   6   5  -4   14.10    7.15
   6  -5  -4    2.62    2.76
   6  -5   4   13.07    6.74
  -6  -5  -4    4.46    2.67
   6   5   5   18.30    8.31
  -6   5   5   23.90    9.81
   6   5  -5   20.47    8.55
   6  -5  -5   27.43    9.01
  -6  -5  -5   23.16    8.06
   6   5  -5   28.27   10.84
   6  -5   5   27.92   10.29
   6   5   6    4.09    5.36
   6  -5  -6   14.02    7.02
  -6  -5  -6   16.23    7.72
  -6   5   6    7.03    5.87
   6   5  -6   15.34    6.76
   6   5  -6   -1.97    5.90
   6  -5   6   10.94    7.47
   6   5   7   36.90   13.47
  -6   5   7   43.60   14.06
   6   5  -7   47.20   12.01
   6   5  -7   39.61   13.34
   6  -5  -7   51.10   13.96
   6  -5   7   35.97   12.59
  -6  -5  -7   53.18   14.09
   6   5   8    6.45    7.52
  -6   5   8    8.53    7.08
   6   5  -8    5.18    5.02
   6  -5  -8    5.71    4.48
  -6  -5  -8    8.37    5.19
   6  -5   8    6.00    6.86
   6   5   9   29.35   12.86
  -6   5   9   48.08   16.68
   6   5  -9   23.58   10.75
   6  -5   9   24.20   10.74
   6   6   0    8.77    5.21
   6  -6   0   21.53    6.50
  -6  -6   0   29.30    7.80
  -6  -6  -1   10.01    4.27
  -6   6   1   13.72    7.42
   6  -6   1    8.00    4.19
  -6  -6   1    8.92    4.20
   6   6  -1    8.79    5.15
  -6   6  -1    9.37    5.49
   6   6   1    9.36    5.61
   6  -6  -1    5.14    2.52
  -6  -6  -2  788.02   37.62
  -6  -6  -2  807.02   41.62
   6  -6   2  808.16   42.55
   6   6  -2  782.27   52.61
  -6  -6   2  790.03   43.05
   6  -6  -2  885.75   47.94
  -6  -6  -2  878.21   47.06
   6   6   2  775.20   45.87
  -6   6   2  855.38   53.41
   6  -6  -3   11.40    5.72
   6   6   3   15.58    7.60
  -6  -6  -3    6.50    4.09
  -6  -6  -3   17.69    5.48
  -6   6   3    9.22    5.39
   6   6  -3    8.48    5.48
   6   6  -3   19.77    9.23
   6  -6   3   20.08    9.52
   6   6   4   -0.82    1.88
   6  -6  -4   22.94    8.56
  -6  -6  -4   30.72    9.40
  -6  -6  -4    6.73    3.94
  -6   6   4   13.07    5.72
   6   6  -4   16.61    7.24
   6   6  -4   -1.58    3.14
   6  -6   4   -1.42    2.55
   6   6   5   -0.58    1.26
  -6   6   5    3.26    3.96
   6   6  -5    3.32    1.86
   6   6  -5   -2.97    3.61
   6  -6  -5   -2.13    2.60
  -6  -6  -5   -0.43    0.94
   6  -6   5    0.46    2.08
   6   6  -6  146.94   22.01
   6   6  -6  173.34   29.42
   6  -6   6  164.12   27.70
  -6   6   6  141.69   25.60
   6  -6  -6  128.19   21.97
  -6  -6  -6  146.75   23.00
   6   6   6  152.14   27.21
   6  -6  -7    3.68    3.08
  -6  -6  -7    0.21    0.72
   6   6   7    1.34    3.58
  -6   6   7    1.73    1.82
   6   6  -7    3.23    3.79
   6   6  -7   -3.42    5.14
   6  -6   7    0.67    0.41
   6   6   8   51.87   17.13
  -6   6   8   58.75   18.45
   6   6  -8   52.98   17.63
   6  -6  -8   56.97   17.03
  -6  -6  -8   47.62   14.67
   6  -6   8   35.97   13.46
   6  -7   0   14.33    6.69
  -6  -7   0   18.02    6.55
  -6   7   0    4.18    4.37
   6   7   0   15.48    7.69
   6  -7  -1  119.89   17.05
  -6  -7  -1  128.65   18.04
   6  -7   1  131.42   18.17
  -6  -7   1  132.94   18.63
   6   7  -1  140.89   22.79
   6   7   1  148.21   22.40
  -6   7   1  146.26   22.96
  -6   7  -1  141.96   21.86
   6  -7  -2    4.68    2.15
  -6  -7  -2    8.06    3.65
   6  -7  -2   11.23    5.85
  -6  -7  -2    8.88    4.52
  -6   7   2    7.42    5.85
   6  -7   2    5.61    3.48
   6   7  -2   13.34    6.86
  -6  -7   2    5.54    3.28
  -6  -7  -3  100.46   13.65
   6   7  -3  105.49   21.67
   6  -7  -3   97.77   18.22
  -6  -7  -3  110.11   19.23
   6  -7   3  104.34   21.79
  -6   7   3   95.32   20.17
  -6  -7  -4    1.94    0.52
  -6   7   4    0.71    5.27
   6  -7  -4    5.55    3.74
  -6  -7  -4   -0.22    4.29
   6   7  -4   -1.61    2.87
   6  -7   4    3.33    4.17
   6   7   5   67.57   17.98
  -6   7   5   85.96   20.75
   6   7  -5   73.13   19.69
   6  -7   5   88.44   20.19
   6  -7  -5  100.56   19.72
  -6  -7  -5  102.50   19.49
   6   7   6    0.36    2.93
  -6   7   6    7.11    0.72
   6  -7  -6   11.76    5.99
  -6  -7  -6   12.02    5.50
   6   7  -6   -0.48    2.41
   6  -7   6   -0.02    4.85
   6   7   7    2.18    3.28
   6  -7  -7   20.22    9.34
  -6  -7  -7   28.69   10.86
  -6   7   7    9.06    7.31
   6   7  -7   11.47    7.37
   6  -7   7    9.84    7.81
   6  -8   0  272.23   28.91
  -6  -8   0  287.06   29.63
   6   8   0  268.59   32.82
  -6   8   0  282.40   34.21
   6  -8  -1    0.14    0.59
  -6  -8  -1    3.09    2.65
   6  -8   1    5.08    3.47
  -6  -8   1    3.50    4.48
  -6   8   1    3.82    3.93
   6   8  -1    5.45    5.39
   6   8   1    3.16    3.23
  -6   8  -1    2.79    6.53
  -6  -8  -2   25.83    6.96
   6  -8  -2    6.39    5.01
  -6  -8  -2   18.83    6.89
   6  -8   2   18.51    6.87
   6   8  -2    8.67    7.38
  -6  -8   2   15.76    6.46
   6  -8  -3   -1.17    3.48
  -6  -8  -3   -0.66    3.15
  -6   8   3    1.79    6.04
   6   8  -3    1.08    1.69
   6  -8  -3    3.99    3.83
  -6  -8  -3    0.07    1.94
   6  -8   3    7.50    5.67
   6  -8  -4  201.92   28.07
  -6  -8  -4  198.88   27.75
   6  -8   4  153.87   27.71
   6   8  -4  175.60   30.61
  -6   8   4  194.54   30.49
  -6  -8  -5    5.88    4.56
  -6   8   5   13.42    9.04
   6   8  -5    4.12    4.45
   6  -8   5   -1.01    4.73
   6  -8  -5   14.03    7.29
   6  -9   0   23.54    9.09
  -6  -9   0   24.93    9.60
   6   9   0   29.85   11.07
  -6   9   0   29.69   12.11
   6  -9  -1   54.78   13.31
  -6  -9  -1   72.84   16.80
   6  -9   1   70.18   15.19
  -6  -9   1   53.66   13.70
   6   9  -1   70.19   17.50
  -6   9   1   74.88   19.35
   6   9   1   64.32   15.50
   6  -9  -2   -2.94    4.53
  -6  -9  -2   -0.42    2.24
  -6   9   2    1.88    3.71
   6  -9   2   -5.50    5.52
   6   9  -2    1.80    4.51
  -6  -9   2   -1.05    3.99
   6  -9  -2   -1.75    2.06
  -7   0   0    1.25    1.68
  -7   0   0    2.71    2.78
   7   0   0    0.30    2.12
  -7   0   1  247.69   19.77
  -7   0  -1  270.75   21.41
   7   0  -1  214.68   20.10
  -7   0   1  315.67   20.99
   7   0   1  218.01   22.71
  -7   0  -1  349.97   14.97
  -7   0   2    8.95    3.92
  -7   0  -2    6.47    1.28
   7   0  -2    1.69    1.87
   7   0   2    2.52    3.09
  -7   0   3   21.52    6.05
  -7   0   3   27.64    5.39
   7   0   3   27.04    7.26
   7   0   3   30.75    5.28
   7   0  -3    9.73    5.17
   7   0   3    5.96    3.23
   7   0  -4    1.64    3.91
   7   0   4    1.72    3.11
  -7   0   4    8.24    4.33
   7   0  -5  617.11   42.24
  -7   0   5  627.13   42.52
   7   0   5  581.52   44.49
   7   0   5  725.21   36.43
   7   0  -6    5.34    4.13
   7   0   6    5.24    4.60
  -7   0   6   11.77    6.59
   7   0  -7   19.46    8.08
   7   0   7   15.96    8.22
  -7   0   7   18.12    8.36
   7   0  -8    0.25    1.45
   7   0   8    0.51    2.65
   7   0  -9  345.72   34.53
  -7   0   9  370.55   42.76
   7   0   9  405.44   46.61
  -7   0  10   -0.23    2.02
   7   0  10    4.72    5.33
  -7  -1   0    0.03    0.62
  -7  -1   0   -0.35    0.92
  -7   1   0    0.24    1.78
  -7   1   0    0.10    2.42
   7  -1   0    2.34    3.85
   7   1   0   -0.22    1.00
  -7   1   1  396.05   25.16
  -7  -1  -1  393.18   26.06
  -7  -1   1  386.69   22.41
   7  -1  -1  435.44   31.39
   7  -1   1  429.33   32.03
   7   1  -1  463.36   28.81
  -7  -1  -1  377.95   14.00
   7   1   1  439.34   31.53
  -7   1   1  392.20   24.61
  -7   1  -1  385.00   18.94
   7   1   2   23.85    7.45
  -7   1   2   23.33    6.28
  -7   1   2   20.53    5.70
  -7  -1  -2   21.92    6.43
   7   1  -2   17.55    3.17
  -7  -1   2   21.76    4.10
   7  -1   2   23.11    3.84
   7  -1   2   22.35    4.15
   7   1  -2   16.46    6.31
   7   1  -2   25.79    6.32
   7  -1   2   18.84    6.93
   7   1   2   19.94    7.32
  -7   1  -2   23.36    4.02
  -7   1  -3  314.53   15.78
   7   1  -3  318.63   16.81
   7   1  -3  355.35   31.53
  -7  -1   3  239.60   17.65
   7  -1   3  248.93   17.07
   7   1  -3  336.97   21.80
   7  -1   3  303.20   14.12
  -7   1   3  284.96   24.81
   7  -1   3  331.53   31.17
   7   1   3  330.57   30.18
   7   1   3  279.90   24.50
   7   1  -4  215.44   25.43
   7   1  -4  198.42   16.35
  -7   1   4  226.39   24.03
   7  -1   4  202.22   25.68
   7  -1   4  240.22   12.55
   7   1   4  210.48   25.91
   7   1   4  250.80   23.15
   7   1  -5  360.11   33.27
   7  -1  -5  345.57   29.90
  -7   1   5  297.33   29.73
   7  -1   5  326.69   34.31
   7  -1   5  272.18   21.88
   7   1   5  365.89   35.92
   7   1   5  266.59   23.51
   7   1   6  191.54   19.83
   7   1  -6  153.63   22.12
   7  -1  -6  148.28   20.14
  -7   1   6  138.48   21.96
   7  -1   6  130.01   21.87
   7   1   6  129.66   22.50
   7  -1   6  183.71   16.80
   7   1  -7  203.27   26.28
   7  -1  -7  211.66   24.96
  -7   1   7  147.93   24.65
   7  -1   7  205.63   29.55
   7   1   7  201.61   29.72
   7   1  -8  208.22   27.62
   7  -1  -8  218.48   26.17
  -7   1   8  213.84   31.16
   7  -1   8  206.45   30.72
   7   1   8  244.11   34.85
  -7   1   9   42.68   14.81
   7   1  -9   65.04   15.69
   7  -1   9   78.89   19.70
  -7  -1   9   41.74   14.44
   7   1   9   71.74   19.71
   7   1 -10  147.71   24.89
  -7  -1  10  126.91   26.46
  -7   1  10  143.70   28.55
   7  -1  10  167.09   31.21
   7   1  10  164.46   31.12
   7   2   0    1.83    1.36
  -7   2   0    0.26    1.34
   7  -2   0    0.43    0.38
   7  -2   0   -1.06    1.07
  -7  -2   0    0.25    0.57
   7   2   0    0.93    0.69
   7  -2   0    0.50    0.82
  -7  -2  -1   73.45   11.32
  -7   2   1   84.65   11.60
   7  -2  -1   90.01    7.21
  -7  -2  -1   94.35    7.20
   7   2  -1   73.06   13.80
   7  -2   1   65.61   12.94
   7   2  -1  126.85   17.99
   7   2  -1   73.85   10.93
   7   2   1   69.47   12.23
  -7   2   1  120.54   14.89
   7   2   1  140.28   18.56
   7  -2  -1  154.40   10.79
  -7  -2  -1  151.15   10.45
  -7   2  -1  125.05   12.44
   7  -2   2   11.57    3.72
  -7   2   2    8.87    4.54
   7   2   2   17.77    6.34
  -7   2   2   12.93    4.44
  -7  -2  -2   13.14    4.76
   7   2  -2   12.07    3.12
  -7   2  -2   12.54    3.82
   7   2  -2   14.89    6.64
   7  -2  -2   11.17    3.40
   7  -2   2    9.18    5.81
  -7  -2  -2   13.06    3.72
   7   2  -2   10.89    4.14
   7   2   2   14.27    6.72
  -7   2   3  501.02   27.73
  -7  -2  -3  493.74   30.34
  -7   2  -3  489.29   21.93
   7   2  -3  480.69   38.29
   7  -2   3  459.13   37.74
   7   2  -3  477.06   23.27
  -7   2   3  541.70   36.30
   7  -2   3  546.61   25.45
   7   2   3  470.85   36.65
   7   2  -4   70.26   14.95
   7   2  -4   73.94    8.01
  -7   2   4   95.86   16.37
   7   2   4   78.36   15.95
   7  -2   4   74.94   15.58
   7   2   4  115.43   16.65
  -7   2   5    7.80    4.89
   7   2   5    4.90    3.61
   7   2  -5   13.66    6.92
   7  -2   5   15.85    8.41
   7   2   5    4.86    3.55
  -7   2   6   37.56   12.11
   7   2  -6   30.55   10.25
   7  -2   6   26.34   10.29
   7   2   6   33.84   12.29
   7   2  -7  548.16   46.11
   7  -2  -7  511.68   37.04
  -7   2   7  506.30   45.41
   7  -2   7  466.06   44.61
   7   2   7  540.15   49.59
  -7   2   8    8.40    4.35
   7   2  -8    4.95    4.43
   7  -2   8    0.82    3.84
   7   2   8   12.27    8.18
   7   2   9   68.58   18.99
   7   2  -9   41.82   11.71
  -7   2   9   63.35   18.13
   7   2  -9   59.75   16.53
   7  -2   9   75.33   19.48
   7   3   0    3.01    1.80
  -7   3   0    3.89    3.35
   7  -3   0    0.55    0.65
  -7  -3   0    0.20    0.22
   7   3   0    0.04    2.87
   7   3   0   -0.03    0.30
  -7  -3  -1  282.28   22.38
   7  -3  -1  246.12   17.01
   7  -3  -1  301.67   16.86
  -7  -3  -1  302.66   16.80
  -7  -3  -1  254.76   17.09
   7   3  -1  309.96   29.77
   7  -3   1  309.71   31.02
   7   3  -1  317.81   22.00
   7   3   1  316.88   26.88
   7   3  -1  252.83   26.24
  -7   3   1  292.69   24.74
   7   3   1  262.94   26.66
  -7   3  -1  267.90   20.94
  -7  -3  -1  270.55   15.29
  -7  -3  -2  141.08   15.73
  -7   3   2  159.54   15.55
   7   3  -2  131.33   20.45
   7  -3   2  132.64   19.76
   7   3  -2  140.98   12.70
   7   3   2  133.52   18.86
   7   3  -2  153.80   21.52
  -7  -3  -2  150.27    8.51
  -7   3   2  167.11   19.93
   7   3   2  176.31   22.01
   7  -3  -2  197.56   16.37
  -7   3  -2  161.49   15.57
  -7  -3  -2  202.33   16.49
  -7   3   3  401.76   23.64
  -7  -3  -3  358.28   25.50
   7   3  -3  383.90   35.49
   7  -3   3  396.74   35.92
   7  -3  -3  303.64   22.72
   7   3  -3  347.29   31.60
  -7  -3  -3  305.29   22.69
  -7   3   3  343.42   30.38
   7   3  -3  406.26   16.74
   7   3   3  408.31   35.22
   7   3   3  332.36   29.77
   7   3  -4   36.01   10.25
  -7   3   4   45.12    7.87
  -7   3   4   41.18   11.15
   7   3   4   41.88   10.92
   7   3  -4   40.59   11.27
   7  -3  -4   40.85    9.22
   7  -3   4   48.55   13.25
  -7  -3  -4   36.62    8.83
   7   3   4   46.78   12.63
  -7   3   5  184.06   16.34
   7   3  -5  195.01   26.41
   7  -3  -5  141.03   18.23
  -7  -3  -5  144.02   18.28
   7  -3   5  185.28   27.15
  -7   3   5  163.81   23.58
   7   3  -5  133.15   19.96
   7   3   5  189.30   26.55
   7   3  -6  379.82   39.16
   7  -3   6  367.98   39.27
  -7   3   6  414.64   39.99
   7   3  -6  412.15   35.87
   7   3   6  405.08   40.85
   7   3  -7   60.36   14.02
  -7   3   7   76.61   17.66
   7   3  -7  102.48   21.32
   7  -3   7  104.34   21.83
   7   3   7  102.87   21.99
   7   3  -8  161.90   27.26
  -7   3   8  129.84   25.41
   7  -3   8  157.77   27.13
   7   3  -8  153.17   22.29
   7   3   8  156.19   28.98
   7   3   9   75.06   19.97
  -7   3   9   57.72   17.55
   7   3  -9   66.52   18.56
   7  -3   9   66.60   17.99
   7   4   0    0.79    1.60
   7   4   0    1.44    2.94
  -7   4   0   -0.08    0.95
   7  -4   0   -1.38    1.68
  -7  -4   0    0.11    1.17
   7   4   0    2.35    2.70
  -7  -4  -1  229.24   20.59
   7  -4  -1  240.98   17.71
  -7  -4  -1  250.45   18.15
   7  -4   1  254.00   18.39
  -7  -4   1  237.27   18.17
   7   4  -1  208.79   26.03
   7  -4  -1  372.52   24.39
   7   4   1  229.14   22.70
   7   4  -1  232.23   18.02
  -7   4   1  305.15   27.42
   7   4  -1  301.70   30.01
  -7   4  -1  292.99   24.40
   7   4   1  323.68   30.98
  -7  -4  -2   62.51   10.75
   7  -4  -2   67.72   10.78
  -7  -4  -2   63.89   10.18
   7   4  -2   53.65   12.70
   7   4   2   63.90   13.54
   7   4  -2   67.19   15.12
   7   4   2   61.16   12.97
   7   4  -2   64.04    7.69
  -7   4   2   61.03   13.06
   7  -4   2   56.13   13.99
  -7   4  -2   61.45   11.03
   7   4   3    4.50    3.94
   7   4  -3    9.45    4.83
  -7  -4  -3    4.84    2.61
  -7   4   3    8.27    4.74
   7   4   3    9.93    5.74
   7   4  -3    0.08    2.51
   7  -4  -3   16.78    5.83
  -7  -4  -3   14.07    4.95
   7  -4   3    0.97    2.66
   7   4   4   50.61   13.61
  -7  -4  -4   59.56   10.87
   7   4  -4   51.96   13.30
   7   4  -4   60.47   14.78
  -7   4   4   65.97   15.81
   7  -4  -4   68.38   12.63
  -7  -4  -4   68.38   12.38
   7  -4   4   52.60   14.39
  -7   4   5  591.48   27.05
   7   4  -5  494.02   45.22
   7  -4   5  541.77   47.65
   7  -4  -5  629.94   40.56
  -7  -4  -5  617.42   39.73
  -7   4   5  523.86   43.69
   7   4   5  505.10   44.72
   7   4  -5  543.71   41.47
   7   4   6   63.13   16.60
  -7   4   6   58.22   15.31
   7  -4  -6   81.94   16.15
  -7  -4  -6   90.43   16.14
   7   4  -6   57.97   15.73
   7   4  -6   70.50   14.87
   7  -4   6   65.92   16.88
   7   4   7   93.87   21.49
   7   4  -7   98.04   22.25
   7  -4   7  107.49   22.57
  -7   4   7   96.21   20.73
   7   4  -7   80.39   16.19
   7   4   8   23.81   11.14
  -7   4   8   43.10   14.49
   7   4  -8   35.56   10.83
   7   4  -8   33.13   12.47
   7  -4   8   28.40   11.92
   7   4   9   85.56   22.47
  -7   4   9   96.82   22.58
   7   4  -9   82.50   21.23
   7  -4   9   96.98   22.31
   7   5   0    4.23    2.97
   7   5   0    0.53    1.58
  -7   5   0   -0.22    1.60
   7  -5   0   -1.01    1.27
  -7  -5   0   -0.14    0.90
   7   5   0    3.16    4.43
   7   5   1  241.26   28.50
   7  -5  -1  237.67   20.07
  -7  -5  -1  246.51   20.58
   7  -5   1  246.30   20.92
  -7  -5   1  222.55   20.24
   7   5  -1  282.37   31.56
   7   5   1  241.98   23.25
   7   5  -1  250.82   18.70
  -7   5   1  236.07   26.50
  -7   5  -1  229.13   23.89
   7   5  -1  235.07   27.99
   7   5   2   10.48    5.33
  -7  -5  -2   14.75    5.15
   7  -5  -2    9.05    4.85
  -7   5   2   16.43    7.55
   7   5  -2   13.59    6.73
  -7  -5  -2   17.80    5.68
  -7  -5  -2    7.91    4.45
   7   5  -2   11.71    6.81
  -7   5  -2    6.46    3.97
   7  -5   2    9.72    5.47
   7  -5  -3  140.46   18.48
  -7  -5  -3  133.29   17.05
  -7  -5  -3  156.43   17.36
   7   5  -3  157.58   24.36
   7  -5   3  151.54   24.48
   7   5   3  150.84   21.49
  -7   5   3  127.12   20.80
   7   5  -3  124.56   21.42
  -7  -5  -4  335.65   25.31
   7   5  -4  315.05   36.09
   7  -5   4  319.83   36.04
  -7   5   4  358.63   36.32
   7   5   4  338.40   35.22
   7   5  -4  377.04   36.70
   7  -5  -4  426.97   33.99
  -7  -5  -4  422.91   32.73
   7   5  -5  113.09   22.68
   7  -5   5  119.96   22.90
   7  -5  -5   79.95   15.62
  -7  -5  -5   91.77   16.09
  -7   5   5   92.25   19.75
   7   5   5  101.85   20.05
   7   5  -5   91.47   17.61
   7   5  -6  130.96   25.70
   7  -5   6  103.96   22.54
   7  -5  -6   80.66   16.48
  -7  -5  -6   99.79   18.05
  -7   5   6   96.97   20.84
   7   5   6  109.39   22.57
   7   5  -6   90.25   17.84
   7   5   7   58.05   17.40
  -7   5   7   40.25   14.08
   7   5  -7   38.22   11.41
   7   5  -7   58.50   16.89
   7  -5  -7   45.21   13.09
  -7  -5  -7   43.76   12.47
   7  -5   7   50.79   15.83
   7   5   8  103.80   23.75
   7   5  -8  109.05   24.75
  -7   5   8  112.64   24.71
   7  -5   8   87.85   22.03
   7  -6   0    0.51    1.28
  -7  -6   0    2.01    2.56
  -7   6   0   -2.68    3.13
   7   6   0    5.29    6.64
   7   6   1   26.23    7.84
   7  -6  -1   20.16    6.58
  -7  -6  -1   32.84    8.46
  -7   6   1   52.82   13.01
   7   6  -1   73.23   16.31
   7  -6   1   28.47    7.48
  -7  -6   1   41.15    9.26
   7   6  -1   18.25    8.62
  -7   6  -1   51.23   12.35
   7   6   1   20.12    8.83
   7   6   2   17.64    7.23
   7  -6  -2   29.95    9.24
  -7  -6  -2   14.65    5.59
   7  -6  -2   24.52    7.76
  -7  -6  -2   30.20    8.44
  -7   6   2   38.23   12.44
  -7  -6  -2   27.31    8.43
   7   6  -2   17.00    8.28
   7   6  -2   21.76    9.47
   7  -6   2   18.03    6.79
  -7   6  -2   19.62    7.49
  -7  -6  -3  294.12   24.47
   7  -6  -3  362.93   31.92
  -7  -6  -3  369.03   31.09
   7   6  -3  272.04   33.87
   7  -6   3  278.07   34.91
   7   6   3  284.23   30.95
  -7   6   3  349.80   36.30
   7   6  -3  365.04   36.58
   7   6   4   40.59   12.17
  -7  -6  -4   40.14    8.83
  -7   6   4   39.03   12.68
   7   6  -4   48.12   12.83
   7   6  -4   38.29   13.01
   7  -6   4   34.53   12.09
   7  -6  -4   47.97   12.29
  -7  -6  -4   50.84   12.01
   7   6   5   60.77   16.05
  -7   6   5   62.63   16.48
   7   6  -5   73.13   15.85
   7   6  -5   76.63   19.33
   7  -6   5   99.66   22.10
   7  -6  -5   77.66   16.40
  -7  -6  -5   63.78   14.69
   7   6   6   41.70   14.14
   7  -6  -6   45.71   13.34
  -7  -6  -6   45.25   12.79
  -7   6   6   43.77   14.61
   7   6  -6   46.51   12.95
   7   6  -6   44.73   15.35
   7  -6   6   51.84   16.05
   7   6  -7  106.52   24.30
   7  -6  -7  126.74   22.84
  -7  -6  -7  132.23   22.99
  -7   6   7  119.81   25.13
   7   6   7  113.16   25.16
   7  -6   7  103.12   22.93
   7   6  -7  137.13   22.32
   7  -7   0    8.14    5.30
  -7  -7   0    6.54    5.07
  -7   7   0    5.22    5.91
   7   7   0   11.84    7.14
   7  -7  -1   99.57   15.66
  -7  -7  -1  118.10   17.21
   7  -7   1  103.36   16.28
  -7  -7   1   99.06   16.12
   7   7  -1  115.40   21.93
   7   7   1  111.03   20.28
  -7   7   1  109.78   20.42
  -7   7  -1  117.06   20.45
  -7  -7  -2   94.57   14.35
   7  -7  -2   78.33   13.90
  -7  -7  -2   70.13   13.70
  -7   7   2   83.27   18.68
   7  -7  -2  114.75   19.06
   7  -7   2   69.08   13.38
   7   7  -2   76.87   19.06
  -7  -7  -2  120.78   19.42
  -7  -7   2   71.32   13.80
   7   7   3   62.30   15.29
  -7  -7  -3   70.59   12.37
  -7  -7  -3   72.38   15.29
  -7  -7  -3   60.81   12.80
  -7   7   3   56.37   15.83
   7   7  -3   68.37   17.41
   7  -7   3   68.37   18.72
   7  -7  -3   56.17   13.88
   7   7   4   73.93   17.25
   7  -7  -4   62.09   14.93
  -7  -7  -4   57.45   10.83
  -7  -7  -4   63.94   14.77
  -7   7   4   68.95   17.76
   7   7  -4   77.56   19.89
   7  -7   4   64.23   17.38
   7   7   5   34.07   12.39
  -7   7   5   35.08   13.88
   7   7  -5   51.35   15.98
   7  -7  -5   47.95   13.97
  -7  -7  -5   46.84   13.99
   7  -7   5   51.54   15.94
   7   7   6   73.11   19.49
   7   7  -6   85.12   22.90
   7  -7  -6  118.49   23.22
  -7  -7  -6  109.54   20.65
  -7   7   6  119.63   24.29
   7  -7   6   96.61   22.57
   7  -8   0   -0.07    2.67
  -7  -8   0    2.53    4.22
   7   8   0    3.12    4.99
  -7   8   0    3.13    4.03
  -7  -8   1   80.63   16.15
   7   8  -1   91.52   20.80
   7  -8  -1   73.10   14.68
  -7  -8  -1   61.64   13.46
   7  -8   1   74.41   15.00
  -7   8   1   79.86   18.69
   7   8   1   65.18   15.86
  -7   8  -1   81.82   18.45
  -7  -8  -2    6.82    3.92
  -7  -8  -2    1.68    2.31
   7  -8  -2   -3.06    3.66
  -7  -8  -2    6.44    4.37
  -7   8   2    3.87    3.75
   7  -8   2   -1.38    4.35
   7   8  -2    1.86    1.95
  -7  -8   2   -0.64    4.42
   7  -8  -2   -0.33    3.88
   7  -8  -3   36.55   11.82
  -7  -8  -3   48.69   13.82
   7  -8  -3   14.51    7.12
  -7  -8  -3   25.60    9.68
  -7   8   3   18.79    9.02
   7   8  -3   25.49   12.15
   7  -8   3   28.64   13.13
  -7  -8  -4   26.69    9.68
   7  -8  -4   23.94    9.55
  -7   8   4   11.57    6.51
   7   8  -4   15.45    9.07
   7  -8   4   22.40   11.15
  -8   0   0   29.46    5.61
  -8   0   0   16.98    5.76
  -8   0   1   -0.38    1.53
  -8   0   1   -2.24    3.16
  -8   0  -1    0.23    1.26
  -8   0  -1    2.01    1.63
   8   0  -1   -1.40    1.69
   8   0   1    1.59    2.27
  -8   0   2 1736.26   56.56
   8   0  -2 1776.10   60.39
  -8   0   2 1646.96   55.97
   8   0   2 1798.26   73.13
   8   0  -3    0.60    1.43
   8   0   3    6.22    5.13
  -8   0   4   34.70    9.50
   8   0  -4   18.83    7.67
   8   0   4   52.95   10.89
   8   0   4   28.34    9.34
   8   0  -5    1.17    1.47
   8   0   5    3.98    3.06
  -8   0   6   11.47    7.15
   8   0   6    7.56    4.60
   8   0  -6   23.76    9.02
   8   0   6   15.31    8.23
  -8   0   7   10.07    5.82
   8   0  -7    2.95    1.99
   8   0   7    3.96    4.08
  -8   0   8    9.79    7.37
   8   0  -8   11.72    6.72
   8   0   8   13.50    9.23
  -8   0   9    1.74    2.44
   8   0  -9    1.19    2.73
   8   0   9   -3.40    2.75
  -8  -1   0  368.83   26.91
  -8   1   0  396.05   27.40
   8  -1   0  321.03   28.92
  -8  -1   0  416.91   21.13
   8   1   0  336.10   28.27
  -8   1   0  464.91   25.09
  -8  -1   1  565.23   32.76
  -8   1   1  573.42   32.85
  -8  -1  -1  571.82   33.39
  -8  -1   1  594.12   28.97
   8  -1  -1  594.05   39.02
   8  -1   1  588.00   41.11
   8   1  -1  583.90   35.07
   8   1   1  594.84   39.21
  -8  -1  -1  598.25   18.76
  -8   1   1  611.65   32.29
  -8   1  -1  614.80   25.04
  -8   1   2  372.93   26.22
  -8  -1  -2  368.07   27.25
  -8  -1   2  377.89   25.99
   8  -1  -2  359.16   30.59
   8   1  -2  353.99   25.80
   8  -1   2  342.97   32.93
  -8   1   2  413.07   28.93
   8   1   2  433.58   33.64
   8   1   2  370.52   32.80
  -8  -1   2  451.44   15.44
  -8   1  -2  453.27   18.81
   8  -1   2  408.76   12.37
  -8   1   3  470.00   29.22
   8   1  -3  429.30   36.55
  -8  -1   3  457.87   31.82
   8   1  -3  449.28   27.59
  -8   1   3  450.82   32.28
   8  -1   3  398.95   35.98
   8   1   3  417.37   35.56
   8   1   3  470.20   34.12
   8   1  -4  339.15   33.73
  -8  -1   4  317.85   29.25
   8   1  -4  324.25   22.59
  -8   1   4  324.84   29.90
   8  -1   4  341.14   35.24
   8   1   4  343.15   34.66
   8   1   4  352.59   29.48
  -8   1   5   24.74    8.97
   8  -1   5   22.53    7.13
   8   1   5   28.84    8.80
   8   1  -5   44.03   12.55
   8   1  -5   26.19    6.63
   8  -1   5   34.24   11.73
   8   1   5   25.13    9.80
   8   1  -6  150.29   23.86
   8  -1  -6  173.81   23.11
  -8   1   6  138.20   23.04
   8  -1   6  158.53   25.64
   8   1   6  164.06   26.32
   8  -1   6  155.76   17.18
   8   1   6  146.22   18.27
  -8   1   7    0.07    1.88
   8   1  -7    3.93    3.91
   8  -1  -7    5.79    3.83
   8  -1   7   -0.23    3.69
   8   1   7   -1.57    4.71
  -8  -1   7    3.77    6.41
  -8   1   8   11.51    6.55
   8   1  -8   16.87    8.59
   8  -1  -8   20.90    8.50
   8  -1   8   10.84    6.97
  -8  -1   8   18.09    9.01
   8   1   8   29.02   12.20
  -8   1   9   -2.83    3.76
   8   1  -9    1.31    3.24
   8  -1   9    8.78    7.04
  -8  -1   9    4.40    4.21
   8   1   9   -1.09    3.01
  -8  -2   0 1690.13   57.34
   8  -2   0 1890.21   74.89
   8   2   0 1659.79   69.97
   8   2   0 1819.57   62.15
   8  -2   0 1485.95   24.96
  -8   2   0 1672.56   52.07
  -8  -2   0 1483.41   25.10
  -8  -2  -1   10.19    2.55
   8   2  -1   18.54    6.99
   8   2   1   17.49    6.68
  -8  -2  -1   13.07    4.89
  -8   2   1   14.13    4.85
  -8   2   1   12.11    4.99
  -8   2  -1   16.23    4.49
   8  -2  -1   10.81    2.33
   8  -2  -1   23.35    3.69
  -8  -2  -1   25.77    3.72
   8  -2   1    5.85    4.31
   8   2  -1    7.97    3.45
   8   2   1    7.27    3.75
  -8   2   2   58.00   11.07
  -8   2   2   35.97    7.82
  -8  -2  -2   33.45    8.01
  -8  -2  -2   38.10    4.65
   8   2  -2   20.53    7.53
   8   2   2   62.75   12.80
   8  -2   2   17.05    6.92
   8   2  -2   25.61    6.42
  -8   2  -2   67.73    8.80
   8   2   2   26.60    8.89
  -8   2   3   44.55   10.71
  -8   2   3   38.78    8.38
  -8  -2  -3   46.97   10.01
   8   2  -3   38.48   11.41
   8   2  -3   37.16    7.19
   8   2   3   59.27   12.48
   8  -2   3   43.04   12.09
   8   2   3   34.46   10.23
  -8   2   4  397.59   26.53
   8   2  -4  438.23   39.94
   8  -2   4  430.90   39.99
   8   2  -4  425.28   22.41
  -8   2   4  370.51   32.99
   8   2   4  410.80   38.13
   8   2   4  347.81   30.87
  -8   2   5   25.88    9.31
   8   2  -5   11.93    6.79
   8  -2   5    9.82    6.49
   8   2   5    7.61    5.16
  -8   2   6    6.40    5.68
   8   2  -6    4.45    3.19
   8  -2   6    5.40    4.99
   8   2   6    2.73    4.46
   8  -2   7   -2.56    1.39
   8   2   7   -0.92    2.23
  -8   2   8    0.36    3.01
   8   2  -8    2.11    4.66
   8  -2   8    3.27    3.69
   8   2   8    6.21    6.12
   8   2  -9   19.31    8.49
  -8   2   9   30.15   13.18
   8   2  -9    3.79    4.48
   8  -2   9    8.41    3.74
   8   2   9   33.12   14.01
   8  -3   0  388.61   18.10
   8  -3   0  434.76   21.42
   8  -3   0  314.44   33.08
   8   3   0  338.00   27.18
   8   3   0  397.29   35.17
  -8   3   0  412.63   28.48
  -8  -3  -1  512.90   23.99
  -8  -3  -1  526.37   32.86
   8  -3  -1  568.31   22.44
  -8  -3  -1  529.57   21.41
   8   3  -1  526.10   41.83
   8  -3   1  505.57   41.79
   8   3  -1  530.85   30.68
   8   3   1  529.86   36.53
   8   3  -1  565.31   41.38
  -8   3   1  558.24   35.28
   8   3   1  559.57   40.92
  -8   3  -1  526.17   30.14
   8  -3  -1  531.75   24.44
  -8  -3  -2  288.25   24.37
  -8   3   2  347.96   25.20
  -8  -3  -2  326.69   17.78
   8   3  -2  274.99   30.92
   8  -3   2  281.32   31.34
   8   3  -2  312.58   21.19
   8  -3  -2  366.37   22.24
   8   3  -2  358.52   33.35
   8   3   2  287.73   28.85
  -8   3   2  368.77   30.71
  -8  -3  -2  390.81   22.40
   8   3   2  358.90   33.07
  -8   3  -2  352.68   23.65
  -8   3   3   90.90   12.45
  -8  -3  -3   72.76   12.28
   8   3  -3   78.50   17.83
   8  -3  -3   62.60   10.20
  -8  -3  -3   60.03    9.97
   8  -3   3   84.85   18.16
   8   3  -3   73.12   15.86
  -8   3   3   70.16   14.45
   8   3   3   85.76   17.39
   8   3   3   73.42   15.02
  -8   3   4  155.40   16.25
   8   3  -4  142.07   23.40
   8  -3  -4  196.21   19.77
  -8  -3  -4  190.26   18.86
   8  -3   4  139.54   23.42
   8   3  -4  152.59   22.60
  -8   3   4  154.84   22.47
   8   3   4  149.54   23.41
   8   3   4  181.13   23.23
  -8   3   5  117.61   14.45
   8   3  -5  127.89   23.16
   8  -3   5   95.21   19.66
   8   3  -5  115.50   19.82
  -8   3   5   79.37   17.99
   8   3   5  116.29   22.30
   8   3  -6   70.47   15.69
  -8   3   6   70.65   11.16
  -8   3   6   66.64   16.43
   8   3  -6   54.63   15.23
   8  -3   6   63.68   17.39
   8   3   6   58.98   17.20
   8   3  -7   11.53    6.79
  -8   3   7    7.69    5.26
   8   3  -7   19.40    8.98
   8  -3   7   17.56    9.14
   8   3   7   22.69   10.76
   8   3   8   87.63   22.32
   8   3  -8   66.76   15.79
  -8   3   8   66.79   18.85
   8   3  -8   73.15   18.95
   8  -3   8   91.64   21.32
   8  -4   0  119.87   12.22
  -8  -4   0  103.04   11.35
   8   4   0   83.02   13.12
  -8   4   0  138.61   17.77
   8   4   0  160.84   22.90
   8   4  -1    9.70    4.20
   8  -4  -1   11.42    4.21
  -8  -4  -1    8.37    4.32
   8   4  -1    9.42    4.93
  -8  -4  -1    5.89    2.72
   8   4   1   15.08    7.37
  -8   4   1    7.43    4.11
   8  -4  -1    7.07    2.84
  -8  -4  -1    7.99    3.05
  -8   4  -1    7.22    3.54
   8   4  -1    6.38    3.89
   8  -4   1   11.81    6.11
   8   4   1    8.09    4.93
  -8  -4  -2  388.18   25.49
  -8  -4  -2  452.73   31.02
  -8  -4  -2  452.56   24.74
   8   4  -2  544.29   45.79
   8  -4   2  504.89   43.82
   8   4   2  538.02   39.22
  -8   4   2  443.81   35.69
   8   4  -2  406.63   37.61
   8   4   2  392.62   36.36
  -8   4  -2  410.22   28.76
   8  -4  -2  352.67   25.10
   8   4   3   28.20    9.55
   8   4  -3   31.49   10.95
  -8  -4  -3   24.68    6.97
  -8   4   3   24.50    9.01
   8  -4  -3   39.77    8.52
  -8  -4  -3   39.84    8.86
   8   4   3   42.59   11.95
   8   4  -3   17.99    8.74
   8  -4   3   30.62   11.36
   8   4   4    3.73    3.40
  -8  -4  -4   27.91    7.54
   8   4  -4   16.62    7.08
  -8   4   4   20.87    8.71
  -8  -4  -4    9.51    4.63
   8   4  -4    3.22    2.69
   8  -4   4    8.83    6.71
   8  -4  -4   30.11    8.04
   8   4   5   16.74    8.93
   8   4  -5   34.24   10.51
  -8   4   5   35.07   12.10
   8   4  -5   10.59    6.59
   8  -4  -5   40.94   10.12
  -8  -4  -5   46.97   10.88
   8  -4   5   13.32    7.86
   8   4  -6  155.99   26.58
   8  -4   6  158.59   27.82
  -8   4   6  125.47   23.61
   8   4   6  175.74   28.68
   8   4  -6  106.24   19.51
   8   4   7   32.62   12.99
  -8   4   7   33.37   12.53
   8   4  -7   45.94   12.95
   8   4  -7   31.02   12.76
   8  -4   7   53.08   16.90
   8   4   8   -4.79    2.39
  -8   4   8   -2.51    1.92
   8   4  -8    4.97    3.85
   8   4  -8    8.72    7.14
   8  -4   8    6.69    6.66
   8  -5   0  246.58   20.23
  -8  -5   0  234.69   19.70
   8   5   0  213.63   28.36
   8   5   0  230.29   21.77
  -8   5   0  245.52   26.07
   8   5   0  261.96   30.97
  -8  -5  -1  127.56   17.26
   8  -5  -1  132.96   14.73
  -8  -5  -1  130.13   14.96
   8  -5   1  136.54   15.12
  -8  -5   1  110.83   13.76
   8   5  -1  137.68   23.07
   8  -5  -1  142.93   17.03
  -8  -5  -1  140.98   16.26
   8   5   1  135.24   18.22
  -8   5   1  132.72   19.83
  -8   5  -1  107.99   16.50
   8   5  -1  130.04   21.98
   8   5   1  147.94   23.66
   8   5   2  185.95   26.43
  -8  -5  -2  141.36   17.80
   8  -5  -2  180.46   19.56
  -8  -5  -2  183.60   19.23
   8  -5  -2  133.53   15.51
  -8  -5  -2  136.32   15.59
   8   5  -2  149.44   24.93
   8  -5   2  114.87   22.47
   8   5   2  136.90   19.93
  -8   5   2  163.48   23.23
   8   5  -2  165.16   24.70
  -8   5  -2  159.32   19.70
  -8  -5  -3  184.86   19.89
   8   5  -3  186.34   28.71
   8  -5   3  180.40   27.71
   8   5   3  183.98   25.33
  -8   5   3  201.86   26.89
   8   5  -3  196.94   26.95
   8  -5  -3  225.94   23.27
  -8  -5  -3  223.80   22.60
   8   5   4   51.29   13.91
  -8  -5  -4   52.65   10.91
  -8   5   4   61.75   16.41
   8   5  -4   69.50   16.17
   8   5  -4   35.80   13.35
   8  -5  -4   79.29   14.40
  -8  -5  -4   85.02   14.70
   8  -5   4   47.26   14.70
   8   5   5   50.10   15.19
   8  -5  -5   47.61   11.85
  -8  -5  -5   51.37   11.99
  -8   5   5   65.76   17.39
   8   5  -5   51.51   14.82
   8   5  -5   62.57   17.41
   8  -5   5   64.99   18.03
   8   5   6   67.48   18.49
  -8   5   6   69.00   17.81
   8   5  -6   75.90   17.19
   8   5  -6   87.92   21.28
   8  -5  -6   83.43   16.99
  -8  -5  -6   83.32   16.29
   8  -5   6   65.68   18.44
   8   5   7   10.22    7.09
  -8   5   7   12.11    8.19
   8   5  -7   14.49    8.20
   8   5  -7    3.31    2.48
  -8  -5  -7    9.60    5.21
   8  -5   7    3.10    5.77
   8   6   0   89.65   20.07
   8  -6   0  100.18   14.48
  -8  -6   0  102.08   14.69
   8   6   0  138.36   23.02
  -8   6   0   95.98   17.55
   8   6   1   -1.51    2.03
   8   6  -1   -1.83    4.52
   8  -6  -1    0.33    0.78
  -8   6   1   -1.63    3.11
  -8  -6  -1    1.81    2.26
   8  -6   1   -3.35    4.20
  -8  -6   1    0.40    0.89
  -8   6  -1    1.44    1.89
   8   6  -1    0.32    3.57
   8  -6  -1   -2.58    2.94
  -8  -6  -2   53.78   11.64
   8  -6  -2   62.51   11.69
  -8  -6  -2   67.53   12.28
   8  -6  -2  102.91   16.70
  -8  -6  -2  122.41   17.71
   8   6  -2   55.70   16.03
   8   6   2   67.08   14.44
   8  -6   2   63.09   17.39
  -8   6   2   87.28   18.02
  -8   6  -2   85.24   15.68
   8   6  -2  104.00   20.45
   8   6   3    0.65    1.66
   8  -6  -3    4.50    3.65
  -8  -6  -3    2.90    2.25
  -8  -6  -3    8.20    5.37
  -8   6   3    3.50    6.04
  -8  -6  -3    3.78    2.76
   8   6  -3    9.91    6.61
   8   6  -3    1.36    0.48
   8  -6   3    4.79    6.79
  -8  -6  -4  202.52   21.45
   8   6  -4  223.56   32.62
   8  -6   4  232.95   34.14
   8   6   4  201.82   28.76
  -8   6   4  183.67   28.96
   8  -6  -4  168.31   23.24
  -8  -6  -4  165.54   22.34
   8   6  -4  173.45   26.61
   8   6   5   44.26   13.83
  -8   6   5   48.58   14.52
  -8  -6  -5   67.07   14.66
   8   6  -5   49.93   13.82
   8   6  -5   41.19   14.81
   8  -6  -5   89.72   17.18
   8  -6   5   41.14   14.35
  -8  -6  -6    4.01    3.61
   8   6   6   -6.91    7.74
  -8   6   6    0.79    5.08
   8   6  -6    1.25    0.78
   8   6  -6   -0.18    0.56
   8  -6   6   -1.02    4.22
   8  -6  -6   -1.25    2.70
   8  -7   0   46.85   10.30
  -8  -7   0   44.92   10.43
  -8   7   0   58.16   15.17
   8   7   0   47.67   14.19
   8  -7  -1   59.20   12.04
  -8  -7  -1   58.34   12.18
  -8   7   1   84.15   17.90
   8  -7   1   71.42   13.55
  -8  -7   1   65.07   13.04
   8   7  -1   71.33   18.57
  -8   7  -1   73.41   16.46
   8   7   2   33.73   10.59
  -8  -7  -2   40.49   10.35
   8  -7  -2   61.76   14.06
   8  -7  -2   32.69    9.33
  -8  -7  -2   37.31    9.47
  -8   7   2   46.30   13.66
   8   7  -2   34.86   12.62
  -8  -7  -2   62.71   14.33
   8  -7   2   24.71   12.03
   8  -7  -3  103.44   18.34
  -8  -7  -3   97.09   15.39
  -8  -7  -3  126.25   19.86
   8  -7  -3   96.70   16.16
  -8  -7  -3   99.33   16.40
   8   7  -3   99.26   22.89
  -8   7   3  101.19   21.24
   8   7   3  100.10   19.65
   8  -7   3  100.26   22.95
   8   7   4   55.16   15.47
  -8  -7  -4   52.34   11.50
  -8   7   4   73.91   18.82
   8   7  -4   55.96   16.73
   8  -7  -4   65.26   15.16
   8  -7   4   44.72   15.47
  -8  -7  -4   70.59   15.83
   8   7   5   27.79   11.59
  -8   7   5   24.23   10.77
   8  -7  -5   46.21   13.46
  -8  -7  -5   36.50   11.36
   8   7  -5   29.16   13.15
   8  -7   5   22.31   11.46
   8  -8   0   65.72   13.82
  -8  -8   0   70.49   15.10
  -8   8   0   85.59   19.30
   8   8   0   71.24   17.69
   8  -8  -1    4.20    3.46
  -8  -8  -1    1.15    1.35
  -8   8   1    3.50    4.73
   8  -8   1   -1.91    2.00
  -8  -8   1   -2.11    2.21
   8   8  -1   -4.65    5.19
  -8   8  -1   -3.96    5.00
  -8  -8  -2   74.61   16.96
  -8  -8  -2   71.53   14.56
   8  -8  -2   50.28   12.48
  -8  -8  -2   60.15   13.96
  -8   8   2   58.99   16.32
   8  -8   2   72.25   15.18
   8   8  -2   80.20   20.44
   8  -8  -2   60.61   15.37
   8  -8   2   82.40   22.21
  -9   0   0   -1.66    1.93
  -9   0   0    0.22    2.94
   9   0   0   -0.77    3.69
  -9   0   1  887.69   43.90
  -9   0  -1  902.01   45.08
   9   0  -1  896.95   48.65
   9   0   1  885.51   51.81
  -9   0   1  880.72   38.25
  -9   0  -1  885.39   26.65
  -9   0   2    2.08    2.03
  -9   0   2    1.07    1.35
   9   0  -2    0.47    0.60
   9   0   2    1.50    3.30
   9   0  -3  698.16   39.88
  -9   0   3  694.08   41.36
   9   0   3  748.22   45.29
   9   0   3  734.57   51.37
  -9   0   4   -1.52    3.54
   9   0   4   -3.25    3.25
   9   0  -4   -1.27    1.39
   9   0   4   -0.33    2.55
  -9   0   5   25.35    9.05
   9   0   5   27.70    8.25
   9   0  -5   21.70    8.68
   9   0   5   25.02    8.80
  -9   0   6    4.46    5.15
   9   0   6    3.69    2.82
   9   0  -6   -0.89    1.69
   9   0   6   -0.96    3.10
   9   0  -7  404.14   39.84
  -9   0   7  351.84   39.29
   9   0   7  410.15   45.21
  -9   0   8    1.73    1.70
   9   0  -8    1.61    2.37
   9   0   8   -0.80    3.32
  -9  -1   0    1.52    2.21
  -9  -1   0    8.40    6.52
  -9   1   0   -2.17    2.99
  -9   1   0    0.70    1.49
   9  -1   0    0.85    2.10
   9   1   0    0.57    2.65
  -9  -1   1   30.27    6.65
   9   1   1   54.70   12.73
  -9   1   1   39.93    8.37
  -9  -1   1   12.53    6.26
  -9   1   1   15.19    5.32
  -9  -1  -1   18.19    7.12
  -9   1  -1   42.10    6.56
   9  -1  -1    5.84    5.19
   9  -1   1    3.89    4.42
   9   1  -1    6.32    4.60
   9   1   1    8.60    5.52
  -9  -1   2   10.03    4.69
   9   1   2   18.87    7.27
  -9   1   2   16.37    5.51
  -9   1   2    8.66    4.53
  -9  -1  -2   11.94    5.89
   9  -1  -2    0.45    1.05
   9   1  -2    1.58    1.23
   9  -1   2    9.77    6.54
   9   1   2   -1.94    3.76
  -9   1   3   17.71    6.63
   9   1   3   23.64    8.34
  -9   1   3    7.91    3.78
   9  -1  -3   -0.76    0.99
   9   1  -3   -0.44    1.98
   9  -1   3    3.96    2.32
   9   1   3    4.45    4.02
  -9  -1   3   15.28    5.95
  -9   1   4  150.45   18.03
   9   1  -4  144.99   23.01
  -9  -1   4  164.44   21.54
   9   1  -4  138.94   16.15
  -9   1   4  159.73   21.60
   9  -1   4  166.06   25.86
   9   1   4  164.81   25.25
   9   1   4  194.44   23.11
  -9   1   5   17.89    7.83
   9  -1   5   19.74    7.35
   9   1   5   20.55    7.77
   9   1  -5   34.33   11.59
   9  -1   5   37.30   12.52
   9   1   5   34.40   12.09
  -9  -1   5   13.63    7.20
   9   1  -6  267.34   33.83
  -9  -1   6  251.55   30.72
  -9   1   6  265.74   32.18
   9  -1   6  245.43   33.49
   9   1   6  272.67   35.50
   9   1   6  290.48   27.57
  -9   1   7   11.07    7.09
   9   1  -7   12.96    5.89
   9  -1   7   14.51    8.64
   9   1   7    9.00    5.41
  -9  -1   7   10.44    6.28
  -9   1   8   91.23   21.19
   9   1  -8   87.53   20.14
   9  -1  -8   77.26   17.12
   9  -1   8   77.82   19.90
   9   1   8   93.76   22.95
  -9  -1   8   81.25   20.19
  -9  -2   0    0.12    0.49
   9   2   0    1.23    0.84
  -9  -2   0   -2.04    2.13
  -9   2   0   -0.45    1.62
   9  -2   0    2.74    5.09
   9   2   0    3.22    3.59
  -9  -2   1  764.84   41.43
  -9  -2  -1  793.92   42.28
  -9   2   1  837.02   42.46
  -9  -2   1  780.33   35.03
   9  -2  -1  747.64   49.49
   9  -2   1  739.44   50.16
   9   2  -1  787.91   51.01
   9   2  -1  810.23   42.87
   9   2   1  780.35   46.71
   9   2   1  771.27   49.09
  -9   2   1  815.71   41.79
  -9   2  -1  793.41   33.72
   9   2  -2    3.84    4.59
   9   2   2   -0.10    2.79
  -9   2   2    2.05    1.58
  -9   2   2    2.72    2.85
  -9  -2  -2    2.26    2.21
  -9   2  -2   -0.10    0.99
   9  -2   2   -1.13    0.59
   9   2  -2    1.33    2.03
   9   2   2    1.36    2.93
  -9   2   3   86.16   13.25
  -9  -2  -3   81.25   14.09
   9   2  -3   77.94   16.98
   9   2  -3   91.64   12.51
  -9   2   3   80.47   15.27
   9   2   3   86.42   17.35
   9   2   3   77.86   15.43
   9  -2   3   74.95   17.37
  -9   2   4   40.50   11.49
  -9   2   4   33.48    8.25
   9   2   4   38.08   10.79
   9   2  -4   51.88   14.41
   9  -2   4   47.32   13.94
   9   2   4   36.60   12.17
  -9   2   5  572.53   34.80
   9   2  -5  551.48   48.95
   9  -2   5  579.92   51.11
  -9   2   5  532.74   44.42
   9   2   5  611.79   51.39
   9   2   5  567.16   41.16
  -9   2   6    4.80    5.69
   9   2   6    2.66    2.80
   9   2  -6    2.11    1.85
   9  -2   6    8.82    7.12
   9   2   6   -0.09    3.96
  -9   2   7   49.37   15.34
   9   2  -7   38.20   13.10
   9  -2   7   27.31   11.94
   9   2   7   31.72   13.57
  -9   2   8    0.86    1.19
   9   2  -8    4.48    4.80
   9  -2   8    3.12    3.73
   9   2   8    3.75    4.41
   9   3   0    2.76    2.91
  -9  -3   0   -1.16    2.15
  -9   3   0    0.66    0.27
   9  -3   0    4.92    4.89
   9   3   0    2.39    2.56
   9   3  -1   27.61   10.13
  -9  -3  -1    3.15    1.87
   9   3   1   24.18    8.99
  -9   3   1   11.95    5.51
  -9   3  -1   20.20    5.67
   9  -3   1    3.94    4.58
   9   3   1    0.24    1.47
  -9  -3  -2  137.19   17.86
   9   3  -2  156.09   24.29
   9  -3   2  136.36   22.93
   9   3  -2  141.75   15.43
   9   3  -2  121.20   20.84
   9   3   2  137.73   20.43
  -9   3   2  142.35   20.13
   9   3   2  147.02   22.63
  -9   3  -2  131.21   14.89
   9   3  -3    6.27    5.07
  -9   3   3   10.87    5.64
  -9   3   3   20.69    6.81
  -9  -3  -3   16.70    6.26
   9   3   3   14.13    6.81
   9   3  -3   23.91   10.20
   9  -3   3   23.19   10.98
   9   3   3   18.05    8.44
  -9   3   4  101.07   13.91
   9   3  -4  116.39   22.93
   9   3  -4  111.45   20.68
  -9   3   4  102.77   19.23
   9   3   4   99.70   20.18
   9  -3   4   98.37   20.78
   9   3   4  108.05   18.79
   9   3  -5    3.65    2.04
  -9   3   5   12.37    7.22
  -9   3   5    5.03    4.26
   9   3   5   11.22    5.89
   9   3  -5    4.35    5.14
   9  -3   5    2.74    3.22
   9   3   5   -3.75    3.93
   9   3  -6   70.08   16.71
  -9   3   6   60.20   15.79
   9   3  -6   45.82   14.95
   9  -3   6   60.84   17.45
   9   3   6   56.77   17.08
   9   3  -7    0.57    0.82
  -9   3   7    3.08    5.34
   9   3  -7    1.98    0.28
   9  -3   7   -0.15    3.26
   9   3  -8  223.75   34.68
  -9   3   8  221.78   34.29
   9  -3   8  225.35   35.00
   9   3  -8  218.86   30.37
   9   3   8  241.99   37.01
  -9  -4   0   -0.44    1.80
   9   4   0    3.18    2.14
  -9   4   0   -0.77    1.36
   9  -4   0   -1.14    0.95
   9   4   0    0.17    2.53
  -9  -4  -1   67.16   12.88
   9   4   1   77.54   16.71
   9   4  -1   61.05   15.90
   9   4   1   61.53   13.15
   9   4  -1   65.23   11.18
  -9   4   1   73.91   14.19
   9   4  -1   88.59   17.78
   9  -4   1   66.05   16.55
  -9   4  -1   79.19   13.37
   9   4  -2   23.61    9.44
  -9  -4  -2   34.99    9.43
  -9   4   2   30.28    9.28
   9   4   2   26.89    9.90
   9   4  -2   37.77   12.99
  -9   4  -2   31.30    8.36
   9  -4   2   27.93   10.68
   9   4   2   33.53   10.66
  -9  -4  -3  596.73   37.57
   9   4  -3  617.62   53.21
   9  -4   3  575.96   50.14
   9   4   3  624.58   47.33
  -9   4   3  598.52   45.27
   9   4  -3  591.99   47.69
   9   4   3  610.29   46.98
   9   4  -4   -1.37    0.86
  -9   4   4    1.23    1.53
   9   4   4    5.98    5.43
   9   4  -4    4.11    1.70
   9  -4   4    3.68    5.43
   9   4   4    1.03    3.36
   9   4   5    6.89    6.33
   9   4  -5    9.49    5.96
  -9   4   5    6.33    6.54
   9   4  -5    3.59    5.09
   9  -4   5    5.36    8.27
   9   4   6   15.83    9.11
   9   4  -6   -0.42    4.83
  -9   4   6    7.43    5.67
   9   4  -6    4.54    5.21
   9  -4   6    0.32    2.16
   9   4  -7  283.57   39.76
   9  -4   7  302.94   41.39
  -9   4   7  274.51   37.71
   9   4   7  277.24   39.67
   9   4  -7  250.47   31.81
   9   5   0   -0.82    2.06
  -9   5   0    4.91    4.75
   9   5   1   13.19    6.53
  -9  -5  -1   19.15    6.92
   9   5  -1   13.41    8.38
   9   5   1   12.17    6.55
  -9   5   1   16.18    7.33
  -9   5  -1   15.95    6.95
   9   5  -1   28.43   11.22
   9  -5   1   24.11    9.82
   9   5   2   56.89   13.69
  -9  -5  -2   62.71   12.63
   9   5  -2   76.98   18.09
   9   5   2   75.77   17.55
   9   5  -2   62.26   16.81
  -9   5   2   88.06   17.86
   9  -5   2   49.74   14.80
  -9   5  -2   64.19   12.79
   9   5   3   -3.24    4.94
  -9  -5  -3    4.92    3.47
   9   5  -3    9.85    5.43
  -9   5   3    5.13    4.21
   9   5  -3   -0.81    1.02
   9  -5   3    2.92    3.32
   9   5   4   51.94   14.86
  -9  -5  -4   55.52   12.22
   9   5  -4   56.97   15.59
  -9   5   4   57.61   15.10
   9   5  -4   78.62   20.37
   9  -5   4   51.38   16.29
   9   5   5   -2.06    3.58
  -9   5   5    1.74    1.28
   9   5  -5    3.00    1.99
   9   5  -5    0.75    2.92
   9  -5   5   -3.90    5.96
   9   5  -6  162.60   29.90
   9  -5   6  135.44   27.03
  -9   5   6  143.48   26.65
   9   5   6  134.72   26.98
   9   5  -6  150.13   25.19
   9   6   0    0.58    2.13
  -9   6   0    4.94    4.74
   9   6   1  110.64   22.05
  -9  -6  -1   84.22   15.13
  -9   6  -1   74.14   14.85
   9   6  -1   53.00   15.54
   9  -6   1   57.56   16.90
  -9   6   1   83.65   17.32
   9   6  -1   99.83   20.84
   9   6   2   -0.78    3.34
  -9  -6  -2    2.58    3.17
   9   6  -2    0.18    2.27
  -9   6   2    4.56    5.57
   9   6  -2   -2.94    3.95
  -9   6  -2   -3.64    3.58
   9  -6   2    1.39    3.21
   9   6   3    2.64    2.77
  -9  -6  -3    7.66    4.35
  -9   6   3   11.03    7.70
   9   6  -3   29.45   11.62
   9   6  -3    4.40    6.84
   9  -6   3    9.90    8.35
   9   6   4    3.05    2.88
  -9  -6  -4    4.61    3.84
  -9   6   4    2.20    2.05
   9   6  -4    7.90    6.56
   9   6  -4    3.36    4.12
   9  -6   4   -3.98    6.74
   9   6  -5  361.95   45.90
   9  -6   5  322.47   43.39
   9   6   5  285.34   37.46
  -9   6   5  287.12   37.75
   9   6  -5  326.86   38.48
  -9   7   0    0.08    1.37
   9   7   0   -2.31    4.87
  -9  -7  -1    6.39    3.39
  -9   7   1   -2.32    4.43
   9   7  -1    6.69    5.43
  -9   7  -1   10.75    6.65
  -9  -7  -2    3.88    4.04
  -9   7   2   -3.26    4.86
   9   7  -2   -2.41    4.38
   9  -7   2    3.54    4.35
   9   7   3    0.05    3.06
  -9  -7  -3    2.63    2.09
  -9   7   3    6.09    6.05
   9   7  -3    5.55    6.78
   9   7  -3   -0.07    5.51
   9  -7   3   -0.68    2.99
 -10   0   0   68.47   12.80
  10   0   0   95.48   17.13
 -10   0   1    0.26    1.82
 -10   0   1    2.03    2.86
 -10   0  -1    1.78    2.93
  10   0  -1   -0.09    1.47
  10   0   1   -0.98    3.61
 -10   0   2  441.37   33.10
  10   0  -2  440.68   35.52
 -10   0   2  506.92   32.94
  10   0   2  438.04   40.48
  10   0   3    8.40    4.45
 -10   0   3    6.85    3.94
 -10   0   3    0.44    2.27
  10   0  -3    0.28    0.37
  10   0   3   -1.29    2.61
 -10   0   4   25.69    8.68
  10   0   4   17.45    7.65
  10   0  -4   49.39   11.18
  10   0   4   47.57   13.63
 -10   0   5    3.07    2.90
  10   0   5    5.32    5.32
 -10   0   6   55.67   15.27
  10   0   6   68.74   18.55
 -10   0   7   12.66    6.33
  10   0  -7    4.84    3.59
  10   0   7    2.39    3.82
 -10  -1   0   80.99   14.22
 -10   1   0   86.78   14.41
  10  -1   0   89.69   17.98
  10   1   0  111.59   18.26
 -10   1   0   68.13   10.35
 -10  -1   1  271.95   26.35
 -10   1   1  256.10   24.74
 -10  -1  -1  275.59   25.85
  10  -1  -1  238.80   27.86
  10  -1   1  258.06   30.58
 -10  -1   1  266.71   20.90
  10   1   1  288.61   31.22
  10   1  -1  280.46   27.93
  10   1   1  266.49   29.30
 -10   1   1  272.00   23.40
 -10  -1   2  223.05   23.36
 -10   1   2  249.41   24.39
 -10  -1  -2  234.40   24.80
  10  -1  -2  263.59   28.65
 -10  -1   2  214.22   21.32
  10   1  -2  259.86   25.66
  10  -1   2  257.01   31.57
  10   1   2  195.99   26.24
  10   1   2  280.51   31.79
 -10   1   2  223.94   23.12
 -10   1   3  159.05   19.69
  10  -1  -3  158.16   22.54
 -10  -1   3  157.18   20.13
  10   1  -3  165.10   19.82
  10  -1   3  150.18   25.15
 -10   1   3  155.61   20.78
  10   1   3  159.53   24.22
  10   1   3  158.90   22.59
 -10   1   4  374.14   30.44
  10  -1  -4  402.47   36.29
 -10  -1   4  322.42   31.03
  10  -1   4  314.67   30.37
 -10   1   4  320.11   31.72
  10  -1   4  371.87   40.56
  10   1   4  411.28   41.53
  10   1   4  288.28   30.90
 -10   1   5   65.03   15.56
 -10   1   5   71.54   13.57
  10   1  -5   76.59   18.66
 -10  -1   5   87.22   17.77
  10  -1   5  108.64   17.54
  10   1   5   92.08   16.74
  10  -1   5   86.40   20.56
  10   1   5   65.40   16.94
  10   1  -6  155.73   25.98
 -10  -1   6  133.68   23.43
 -10   1   6  141.62   24.16
  10  -1   6  166.78   28.53
  10   1   6  181.02   30.09
  10   1   6  130.64   20.19
 -10  -1   7    9.20    6.87
 -10   1   7   12.13    8.75
  10   1  -7    0.65    2.33
  10  -1   7    9.38    6.87
  10   1   7   10.43    6.56
 -10  -2   0  492.79   35.49
  10  -2   0  452.75   40.63
  10   2   0  649.27   48.38
  10   2   0  432.26   34.47
 -10   2   0  583.20   32.80
  10   2  -1   53.33   14.34
 -10   2   1   68.86   13.19
 -10  -2   1   53.76   12.07
 -10  -2  -1   64.53   13.13
  10   2   1   75.23   16.23
 -10   2   1   60.42   11.52
  10  -2  -1   51.45   13.73
  10  -2   1   59.73   15.08
  10   2  -1   54.06   11.75
  10   2   1   56.73   13.31
  10   2  -2   43.48   13.29
  10   2   2   41.94   12.57
 -10   2   2   71.70   13.03
 -10  -2  -2   69.20   13.39
 -10   2   2   54.75   11.84
 -10  -2   2   59.69   11.02
  10  -2  -2   88.24   18.02
  10  -2   2   95.83   19.54
  10   2  -2   81.10   13.70
  10   2   2   84.11   16.99
 -10   2   3   75.06   13.23
 -10  -2   3   72.66   13.50
 -10   2   3   73.69   14.99
  10   2   3   77.29   16.40
  10  -2   3   76.43   18.11
  10   2   3   68.45   15.65
 -10   2   4  212.94   22.47
  10   2  -4  179.69   28.66
 -10  -2   4  204.35   24.95
  10  -2   4  209.54   31.29
 -10   2   4  233.98   27.66
  10   2   4  181.18   27.98
  10   2   4  274.31   30.25
 -10   2   5   10.08    5.92
 -10   2   5   12.47    5.13
  10   2   5   17.91    7.57
  10   2  -5    0.86    1.91
  10  -2   5    1.75    3.22
  10   2   5   12.96    8.30
 -10  -2   5   13.12    6.55
 -10   2   6    6.89    6.18
 -10   2   6    9.99    5.23
  10   2   6   -1.71    0.85
  10   2  -6   10.59    7.83
  10  -2   6   17.61    9.78
 -10  -2   6    4.55    6.07
  10   2   6    9.02    7.29
 -10   2   7   15.45    8.74
  10   2  -7   -2.74    1.57
  10  -2   7    1.64    3.96
 -10  -2   7    8.16    5.16
  10   2   7   11.77    8.99
 -10  -3   0  418.93   33.36
  10  -3   0  403.44   40.39
  10   3   0  434.76   34.54
  10   3   0  359.51   36.64
 -10   3   0  379.24   28.87
 -10  -3   1  207.02   23.51
 -10  -3  -1  210.10   23.41
  10  -3  -1  227.37   30.69
  10  -3   1  201.71   28.90
  10   3  -1  199.39   21.62
  10   3   1  216.41   26.00
  10   3  -1  195.44   27.89
  10   3   1  198.06   27.49
 -10   3   1  212.85   23.25
 -10   3  -1  203.48   19.63
 -10  -3  -2  175.47   21.37
  10  -3   2  190.36   29.09
  10   3   2  166.98   24.08
  10   3  -2  150.09   24.20
 -10   3   2  166.85   22.00
  10   3   2  152.22   23.67
 -10   3   3  201.86   21.75
 -10  -3  -3  186.49   22.40
  10   3  -3  167.69   27.97
  10  -3   3  166.91   27.98
  10   3  -3  215.10   30.04
  10   3   3  179.24   26.49
 -10   3   3  193.31   25.48
  10   3   3  222.15   29.02
  10   3  -4   68.88   17.18
 -10   3   4  108.10   15.51
  10   3  -4  111.24   22.90
  10  -3   4  105.82   22.77
 -10   3   4   75.93   17.45
  10   3   4   96.96   20.79
  10   3   4   79.83   17.35
  10   3  -5   20.11    9.15
 -10   3   5   37.58   13.23
 -10   3   5   29.24    8.19
  10   3   5   27.14   10.28
  10   3  -5   31.41   12.74
  10  -3   5   37.24   13.74
  10   3   5   29.34   11.57
  10   3  -6  178.66   31.53
  10  -3   6  168.29   30.31
  10   3  -6  119.31   23.73
 -10   3   6  113.12   22.31
  10   3   6  170.11   30.15
  10   3  -7   19.41    9.54
 -10   3   7   21.50   10.25
  10   3  -7   18.01    9.93
  10  -3   7   18.89   10.50
  10   3   7   23.66   12.24
 -10  -4   0  105.95   17.09
  10   4   0   61.43   16.97
  10  -4   0  138.96   25.02
  10   4   0  117.08   17.39
 -10   4   0   81.89   14.55
 -10  -4  -1    1.66    2.16
  10   4  -1    1.45    2.05
  10   4   1    4.48    4.66
 -10   4   1    1.72    1.15
 -10   4  -1    2.72    1.91
  10  -4  -1    1.79    2.46
  10  -4   1    4.73    5.19
  10   4   1    0.72    3.38
 -10  -4  -2  268.07   26.82
  10   4  -2  248.33   34.55
  10  -4   2  228.52   32.35
  10   4   2  269.33   30.85
 -10   4   2  330.35   32.53
  10   4  -2  327.84   36.78
  10   4   2  368.54   38.49
  10   4  -3   46.55   13.66
 -10  -4  -3   57.68   12.66
 -10   4   3   55.64   14.71
  10   4   3   53.32   14.94
  10   4  -3   76.58   19.09
  10  -4   3   63.85   17.85
  10   4   3   59.38   15.09
  10   4  -4   22.81   10.18
 -10   4   4   25.93   10.47
  10   4   4   20.96   10.39
  10   4  -4   48.17   15.50
  10  -4   4   44.82   14.63
  10   4   4   43.96   13.75
  10   4   5   66.13   17.95
  10   4  -5   66.67   16.75
 -10   4   5   60.30   16.68
  10   4  -5   76.87   21.23
  10  -4   5   75.23   20.22
  10   4   6   49.71   16.07
  10   4  -6   39.41   12.61
 -10   4   6   46.18   14.62
  10   4  -6   40.82   14.96
  10  -4   6   44.98   15.77
 -10  -5   0  224.77   25.89
  10  -5   0  249.19   35.90
 -10   5   0  217.10   25.81
  10   5   0  239.34   32.62
 -10  -5  -1  179.20   22.74
  10  -5   1  155.24   28.34
 -10   5   1  183.02   24.27
  10   5  -1  219.09   31.34
 -10   5  -1  185.26   22.51
  10   5   1  215.59   30.94
 -10  -5  -2  158.31   21.22
  10   5  -2  163.80   28.23
  10  -5   2  154.71   27.63
  10   5   2  167.16   24.72
 -10   5   2  158.09   23.75
  10   5  -2  166.85   27.57
  10   5   2  194.49   29.07
  10   5   3   66.40   16.12
 -10  -5  -3   73.91   14.44
  10   5  -3   61.75   16.31
 -10   5   3   55.51   15.33
  10   5   3   64.71   17.02
  10   5  -3   79.37   20.14
  10  -5   3   77.30   19.91
  10   5   4   53.26   15.82
 -10  -5  -4   65.06   13.76
  10   5  -4   44.30   13.82
 -10   5   4   34.12   12.63
  10   5  -4   57.88   17.49
  10  -5   4   55.26   17.56
  10   5   5   61.03   16.22
  10   5  -5   90.63   20.17
 -10   5   5   73.72   18.52
  10   5  -5   80.59   21.83
  10  -5   5   71.94   20.17
 -10  -6   0  175.96   23.65
 -10   6   0  222.17   27.68
 -10  -6  -1   -3.31    1.82
  10   6  -1   -3.29    4.56
  10   6   1    3.54    4.41
 -10   6   1    0.44    1.75
 -10   6  -1    0.98    1.55
  10   6  -1   -1.03    3.10
  10  -6   1    1.90    3.94
 -10  -6  -2   65.61   14.08
  10   6  -2   60.01   17.94
 -10   6   2   72.73   17.72
  10   6  -2   86.14   20.73
  10  -6   2   85.62   21.78
  10   6   3    7.51    5.92
 -10  -6  -3   11.50    5.30
  10   6  -3   13.91    8.50
 -10   6   3    4.06    6.48
  10   6  -3    8.41    8.87
  10  -6   3   12.14    6.69
 -11   0   0   -1.78    1.18
  11   0   0    1.34    2.25
 -11   0   1  507.58   37.15
 -11   0  -1  502.11   38.31
  11   0  -1  550.85   43.80
  11   0   1  593.52   48.02
 -11   0   2    5.82    3.68
 -11   0   2    4.22    3.57
  11   0  -2    3.80    5.46
  11   0   2   -2.12    3.76
  11   0   3   18.92    7.92
 -11   0   3    8.69    4.30
 -11   0   3    3.28    2.89
  11   0  -3    7.70    3.64
  11   0   3    5.59    6.06
 -11   0   4   17.52    7.18
 -11   0   4    9.48    5.28
  11   0   4    3.01    4.78
 -11   0   5  346.53   35.81
  11   0   5  428.03   45.87
  11   0   5  340.05   33.42
 -11   0   6   19.20    7.70
  11   0   6    4.12    5.78
 -11  -1   0    2.67    7.00
 -11   1   0    2.02    3.48
  11  -1   0    2.84    5.28
  11   1   0    3.06    4.47
 -11  -1   1  252.55   26.60
 -11   1   1  250.76   26.06
 -11  -1  -1  227.34   25.22
  11  -1  -1  202.54   27.42
  11  -1   1  220.11   30.27
  11   1  -1  220.38   26.59
  11   1   1  309.79   34.66
  11   1   1  230.19   29.10
 -11  -1   2   90.18   16.05
 -11   1   2   98.70   16.37
 -11  -1  -2   91.06   16.60
  11  -1  -2   93.42   18.09
  11  -1   2   90.74   19.75
  11   1  -2   78.16   15.06
  11   1   2  113.94   20.68
  11   1   2   95.91   19.23
 -11   1   2  112.57   16.58
 -11  -1   3  154.85   20.90
 -11   1   3  166.18   21.17
  11  -1  -3  150.23   22.71
 -11  -1   3  186.80   22.33
  11  -1   3  158.68   26.62
 -11   1   3  182.82   22.89
  11   1   3  166.32   26.36
  11   1   3  207.60   27.40
 -11   1   4  129.95   18.99
  11  -1  -4  145.88   22.43
 -11  -1   4  121.78   19.88
  11  -1   4  119.13   20.48
 -11   1   4  132.71   21.14
  11  -1   4  139.18   25.83
  11   1   4  160.13   27.12
  11   1   4  124.73   21.17
 -11   1   5  136.36   19.95
 -11  -1   5  157.16   24.52
 -11   1   5  137.26   23.51
  11  -1   5  139.83   26.79
  11  -1   5  176.97   23.91
  11   1   5  113.57   23.45
  11   1   5  156.15   23.30
 -11   1   6   86.11   15.93
 -11   1   6   75.23   18.62
 -11  -1   6   95.79   20.51
  11  -1   6   91.46   21.86
  11   1   6   77.48   20.47
  11   2   0    0.01    2.00
 -11  -2   0   -1.52    1.76
  11  -2   0   -4.46    4.06
  11   2   0    0.00    1.82
  11   2  -1   73.82   18.71
 -11  -2   1  116.30   18.37
  11   2   1   58.34   16.42
 -11  -2  -1  111.62   17.55
  11  -2  -1  151.42   24.54
  11  -2   1  120.86   23.02
  11   2  -1  141.71   19.99
  11   2   1  142.10   22.23
 -11   2   1   84.65   14.12
  11   2  -2   16.13    8.72
  11   2   2   10.53    5.25
 -11  -2   2    3.97    4.33
 -11   2   2    7.98    3.65
 -11   2   2    3.25    1.70
 -11  -2  -2    6.20    5.45
  11  -2  -2    5.16    2.22
  11  -2   2   -1.25    3.24
  11   2   2    1.24    2.74
 -11   2   3  455.80   34.70
 -11  -2   3  408.62   33.35
  11  -2  -3  511.56   45.53
  11  -2   3  508.88   49.70
  11   2  -3  382.97   41.01
  11   2   3  480.46   44.53
 -11   2   3  397.84   36.17
  11   2   3  373.03   37.95
  11   2  -4   42.43   13.71
 -11   2   4   36.60   11.26
 -11   2   4   25.24    8.47
  11   2   4   53.64   13.68
  11  -2  -4   22.07    9.71
  11  -2   4   31.85   13.10
  11   2   4   19.49   10.27
 -11  -2   4   34.70   10.70
 -11   2   5   20.32    8.88
 -11   2   5    9.06    4.62
  11   2   5   28.24    9.74
  11   2  -5    3.93    4.02
  11  -2   5    4.88    3.49
  11   2   5   -4.81    4.78
 -11  -2   5    7.52    5.00
  11   2  -6   31.56   10.98
 -11   2   6   24.70   10.33
 -11   2   6   15.80    6.73
  11   2   6   52.16   13.74
  11   2  -6   15.36    8.01
  11  -2   6   15.49    9.37
  11   2   6   17.67    9.51
 -11  -2   6   23.29    8.80
  11   3   0   -2.54    4.13
 -11  -3   0   -0.15    3.46
  11  -3   0   -1.83    3.43
  11   3   0    2.61    7.59
 -11  -3   1  154.53   21.44
 -11  -3  -1  162.26   21.90
  11  -3  -1  120.41   23.16
  11  -3   1  140.74   25.33
  11   3   1  145.99   22.19
  11   3  -1  205.51   29.36
  11   3   1  196.31   28.25
 -11   3   1  187.83   22.20
  11   3  -2   15.05    8.87
 -11  -3  -2   10.82    6.13
  11   3   2   12.89    6.32
 -11   3   2    8.39    5.68
  11  -3  -2   12.84    8.34
  11  -3   2   17.09    8.83
  11   3   2    8.09    4.94
 -11   3   3  203.75   23.23
 -11  -3  -3  198.79   24.37
  11  -3   3  194.87   31.61
  11   3  -3  246.26   32.97
  11   3   3  159.93   25.78
 -11   3   3  218.08   27.21
  11   3   3  259.27   32.37
  11   3  -4   90.02   20.84
 -11   3   4  102.34   16.40
 -11   3   4   87.75   18.15
  11   3  -4   82.12   20.78
  11  -3   4   88.87   21.83
  11   3   4   97.27   19.59
  11   3   4   72.06   18.63
 -11   3   5   88.34   19.88
  11   3  -5   76.95   20.46
  11   3  -5  102.04   21.85
  11  -3   5   88.58   22.49
  11   3   5   97.61   22.19
  11   3   5  113.52   21.50
 -11  -4   0   -2.49    3.06
  11   4   0   -2.62    1.13
  11  -4   0   -2.97    5.86
 -11  -4   1  124.92   19.89
 -11  -4  -1  124.96   19.49
  11   4  -1   74.47   18.72
  11   4   1   67.96   17.70
  11  -4  -1  151.50   27.66
  11  -4   1  134.85   26.16
  11   4   1  148.96   22.06
 -11   4   1  100.83   17.37
  11   4  -2   19.29    9.64
 -11  -4  -2   24.61    8.07
  11   4   2   27.29   11.21
 -11   4   2   20.24    8.02
  11  -4  -2   22.83   11.17
  11  -4   2   25.63   11.96
  11   4   2   16.28    7.94
  11   4  -3    7.30    4.16
 -11  -4  -3   22.66    7.76
 -11   4   3   15.46    8.28
  11   4   3   11.19    7.89
  11   4  -3   43.47   15.13
  11  -4   3   37.96   13.04
  11   4   3   37.60   12.53
  11   4  -4   33.07   11.58
 -11   4   4   32.10   13.36
  11   4   4   39.28   13.18
  11   4  -4   30.35   12.11
  11  -4   4   15.36    9.19
  11   4   4   22.22   10.20
 -11  -5   0   -0.92    0.77
  11   5   0    1.29    1.41
 -11   5   0    1.18    2.56
  11  -5   0    6.08    7.11
 -11  -5   1  114.53   19.76
 -11  -5  -1  109.32   18.87
  11  -5  -1  105.51   24.74
  11  -5   1  101.18   23.17
 -11   5   1  139.09   21.76
  11   5  -1  161.37   28.39
  11   5   1  161.06   27.94
 -11  -5  -2   13.65    6.07
  11   5  -2   12.95    8.66
 -11   5   2    9.11    6.40
  11   5   2    4.93    7.14
  11  -5   2    8.27    6.76
  11   5   3  115.17   23.58
  11   5   3   64.62   16.53
 -11  -5  -3   80.89   15.68
 -11   5   3   79.78   17.62
  11   5  -3   70.72   20.09
  11  -5   3   67.15   19.67
  11   5  -3  118.40   23.70
 -12   0   0  951.52   54.47
  12   0   0  928.01   61.28
 -12   0   1    0.07    1.22
  12   0  -1    6.52    6.72
  12   0   1    4.00    5.65
 -12   0   2   95.52   17.66
  12   0  -2   92.26   18.32
  12   0   2   97.18   19.99
  12   0   2   96.87   20.80
 -12   0   3   -2.07    2.08
  12   0   3    1.48    1.62
 -12   0   4  738.20   48.73
  12   0   4  692.28   58.32
  12   0   4  660.85   50.13
 -12   0   5   -1.66    1.93
  12   0   5    6.15    3.26
 -12   0   5   -1.95    3.32
  12   0   5    0.11    3.30
  12  -1   0    2.31    0.17
  12   1   0    6.17    5.27
 -12  -1   1  100.20   17.67
 -12   1   1   91.04   16.79
 -12  -1  -1   90.26   17.14
  12   1   1   98.56   20.71
  12   1  -1   91.99   17.77
  12   1   1   96.93   19.67
  12  -1  -1   87.59   18.90
  12  -1   1   91.17   20.05
  12   1   2   16.84    8.70
 -12  -1   2   13.04    6.24
 -12   1   2    3.78    1.87
  12  -1  -2    7.04    5.03
  12  -1   2    9.26    7.81
  12   1   2    2.23    2.44
 -12  -1   3  147.07   22.00
 -12   1   3  140.89   20.62
  12  -1  -3  123.01   21.79
  12  -1   3  134.15   25.54
  12   1   3  117.51   23.24
  12   1   3  155.33   24.89
  12  -1   4    1.51    2.06
 -12   1   4    7.00    5.22
 -12  -1   4   -1.11    2.26
  12   1   4   15.72    7.33
 -12   1   4   -1.47    2.34
  12  -1   4    4.09    6.20
  12   1   4    1.94    4.40
 -12  -1   5   57.23   14.74
 -12   1   5   70.34   17.17
 -12   1   5   72.16   14.99
  12   1   5   90.13   18.51
  12  -1   5   50.13   16.27
  12   1   5   54.83   16.41
  12   2   0   72.24   17.75
 -12  -2   0   65.06   14.11
  12  -2   0   61.16   17.03
  12   2   0   61.40   14.62
  12   2  -1    8.33    7.18
  12   2   1    0.53    2.45
 -12  -2   1    6.82    4.00
 -12  -2  -1    3.30    2.95
  12  -2  -1    0.86    3.88
  12  -2   1    5.87    5.41
  12   2   1    0.63    1.85
 -12  -2   2  827.91   52.17
 -12   2   2  876.53   52.05
 -12  -2  -2  859.75   53.17
  12  -2  -2  802.70   59.68
  12  -2   2  855.83   66.55
  12   2  -2  824.40   62.58
  12   2   2  782.85   57.87
  12   2   2  811.53   58.97
  12   2  -3    0.70    1.68
 -12  -2   3    2.42    2.32
  12   2   3    1.38    2.60
 -12   2   3    0.01    2.29
  12  -2  -3   -0.18    4.01
  12  -2   3    7.46    6.58
  12   2   3    1.07    2.59
  12   2  -4   25.37   11.42
 -12   2   4   30.41   10.99
 -12   2   4   27.54    9.28
  12   2   4   28.54   10.31
  12  -2  -4   28.19   11.55
  12  -2   4   36.63   13.57
  12   2   4   51.91   15.88
  12   3   0   12.97    7.71
 -12  -3   0   16.77    6.95
  12  -3   0   21.24    9.93
 -12  -3   1  175.08   24.25
 -12  -3  -1  180.69   23.59
  12  -3  -1  179.52   29.86
  12  -3   1  188.91   31.63
  12   3   1  178.39   25.87
  12   3  -1  188.08   29.82
  12   3   1  167.50   27.44
  12   3  -2   25.55   10.39
 -12  -3   2    4.75    5.18
  12   3   2   18.89    8.44
 -12  -3  -2    3.32    3.11
  12  -3  -2    0.12    0.33
  12  -3   2   -1.15    5.08
  12   3   2    4.86    3.16
  12   3  -3   60.91   17.22
 -12  -3   3   46.14   12.30
 -12   3   3   42.07   12.14
  12   3   3   55.34   15.53
  12  -3  -3   41.60   14.67
  12  -3   3   50.73   16.57
  12   3   3   39.79   14.06
 -12  -4   0  764.43   51.45
  12  -4   0  747.26   63.64
  12   4   0  696.70   59.76
 -12  -4   1    3.68    1.51
 -12  -4  -1   10.45    5.73
  12   4  -1    6.54    3.66
  12   4   1    8.08    5.44
  12  -4  -1   13.27    8.21
  12  -4   1   -0.33    2.04
 -12  -4   2    9.39    5.51
  12   4  -2   28.01   10.93
 -12  -4  -2    7.30    3.80
  12   4   2   24.81   11.34
  12  -4  -2    8.00    6.35
  12  -4   2   10.76    7.86
 -13   0   0    5.04    5.64
  13   0   0   -3.63    4.54
 -13   0   1  101.31   18.21
  13   0  -1   77.56   18.05
  13   0   1   74.58   18.53
  13   0   2   10.08    6.19
 -13   0   2    4.75    3.71
  13   0   2   -1.02    5.71
  13   1   0   -6.43    5.87
 -13  -1   0   -1.05    2.36
  13  -1   0    1.11    2.40
  13   1   0    0.34    1.39
 -13  -1   1  257.20   29.58
 -13   1   1  255.95   30.02
 -13  -1  -1  241.28   29.54
  13  -1  -1  286.23   36.65
  13   1  -1  191.44   31.45
  13  -1   1  345.78   41.92
  13   1   1  203.55   31.11
  13   1   1  271.06   34.07
  13   1   2   27.51   11.55
 -13  -1   2   16.05    7.01
 -13   1   2   18.25    8.03
  13  -1  -2   17.63    9.53
  13  -1   2   12.97    8.12
  13   1   2   16.57    8.92
  13   2   0    0.78   11.61
 -13  -2   0    4.85    5.24
  13  -2   0    5.15    7.17
   0   0   0    0.00    0.00


TITL A in Pnna
REM Pnna (#52, found as Pncn in cab setting)
CELL 0.71073  11.030638   8.657187  10.011440  90.0000  90.0000  90.0000
ZERR    4.00   0.001284   0.001407   0.001932   0.0000   0.0000   0.0000
LATT  1
SYMM -x+1/2,-y, z
SYMM -x+1/2, y+1/2,-z+1/2
SYMM  x,-y+1/2,-z+1/2
SFAC C H N O
UNIT 44.00 40.00 4.00 4.00
TREF
HKLF 4
END
_computing_structure_solution     'SHELXT 2014/5 (Sheldrick, 2014)'
;
_shelx_hkl_checksum              53723
_shelx_fab_file
;
0 0 2 15.6687 1.1872
0 0 4 -2.1012 -3.6857
0 0 6 -1.7635 0.7186
0 0 8 0.1764 -0.9509
0 0 10 1.1239 1.2080
0 0 12 -0.1482 0.4252
0 1 1 -29.7548 -1.5158
0 1 3 -2.0142 -0.0019
0 1 5 2.1363 0.7172
0 1 7 1.5355 -0.1576
0 1 9 -0.6759 0.0725
0 1 11 -0.4168 0.0940
0 2 0 26.5159 3.1500
0 2 2 14.5322 -1.8931
0 2 4 -2.1154 2.1319
0 2 6 -1.3983 -1.2785
0 2 8 -1.1454 0.9978
0 2 10 0.4008 -0.6737
0 3 1 -8.8048 -0.3041
0 3 3 -5.2035 0.4489
0 3 5 0.9915 -0.4656
0 3 7 1.0489 0.4553
0 3 9 0.5285 -0.3820
0 3 11 0.1185 0.6895
0 4 0 3.5927 -2.0029
0 4 2 0.2165 1.7768
0 4 4 2.3608 -1.6095
0 4 6 -0.7816 1.2538
0 4 8 -0.3067 -0.8600
0 4 10 -0.3261 0.3987
0 5 1 -0.6722 0.2177
0 5 3 -1.0906 -0.4435
0 5 5 -0.7886 0.6976
0 5 7 0.5559 -0.7817
0 5 9 -0.4680 0.3260
0 6 0 -1.2258 1.2631
0 6 2 3.1309 -1.1941
0 6 4 0.6528 1.0414
0 6 6 1.0495 -1.0149
0 6 8 -0.6778 0.6232
0 7 1 -1.7550 -0.2646
0 7 3 -1.9647 0.4166
0 7 5 -1.2214 -0.5900
0 7 7 -0.3152 0.4610
0 8 0 1.6828 -0.6201
0 8 2 1.4916 0.6918
0 8 4 2.1439 -0.5545
0 8 6 0.0392 0.5337
0 9 1 -1.2138 0.2298
0 9 3 -1.2097 -0.1992
0 9 5 -0.1577 0.2093
0 10 0 1.5231 -0.3075
0 10 2 -0.2272 -0.6667
1 0 3 8.5184 3.0069
1 0 5 1.0826 0.1283
1 0 7 -0.4277 2.7045
1 0 9 -0.7228 0.8504
1 0 11 0.3159 1.3917
1 1 1 0.6950 -2.7282
1 1 2 -13.8658 -0.6176
1 1 3 0.7294 1.9812
1 1 4 -4.1179 -0.6618
1 1 5 0.2701 -1.2893
1 1 6 -1.5818 -0.6048
1 1 7 0.8785 1.0268
1 1 8 0.4576 -0.7740
1 1 9 0.6460 -0.8740
1 1 10 -0.1343 -0.6108
1 1 11 -0.3630 0.4726
1 2 1 6.0179 0.3366
1 2 2 -4.2554 -0.7708
1 2 3 10.0004 -1.4594
1 2 4 -0.7965 -1.2125
1 2 5 2.8439 0.4501
1 2 6 -0.5400 0.0864
1 2 7 1.8550 -0.7796
1 2 8 -1.6627 -0.4453
1 2 9 0.1105 0.0195
1 2 10 0.0722 0.0072
1 2 11 0.3903 0.2741
1 3 1 2.1255 1.7420
1 3 2 -1.2750 0.0083
1 3 3 2.6823 -1.3736
1 3 4 -4.1301 0.7129
1 3 5 0.6392 1.3746
1 3 6 -2.0795 0.1493
1 3 7 1.1305 -1.3066
1 3 8 -0.9837 0.5919
1 3 9 0.5352 0.4343
1 3 10 -0.1117 -0.2337
1 3 11 0.5426 -0.3084
1 4 1 1.1003 -0.7754
1 4 2 -0.7584 -0.2984
1 4 3 -1.5262 1.3376
1 4 4 -1.2458 0.7161
1 4 5 1.9446 -0.9126
1 4 6 -1.2076 -0.1825
1 4 7 0.8409 0.7663
1 4 8 -0.3074 0.8179
1 4 9 0.5358 -0.4433
1 4 10 -0.2492 -0.0523
1 4 11 -0.4205 0.3483
1 5 1 0.6792 -1.3879
1 5 2 0.5179 -0.4584
1 5 3 0.3478 1.2125
1 5 4 -0.2018 -0.5816
1 5 5 1.5836 -1.0379
1 5 6 -1.0680 0.1320
1 5 7 0.4111 0.9312
1 5 8 -0.1286 -0.6484
1 5 9 0.0352 0.1106
1 5 10 -0.3007 0.4273
1 6 1 -2.3411 0.4118
1 6 2 0.1786 0.5757
1 6 3 1.0789 -0.4152
1 6 4 -0.2191 -0.4759
1 6 5 -0.1338 0.6162
1 6 6 -0.8889 0.5087
1 6 7 1.0134 -0.4667
1 6 8 0.1400 -0.3610
1 6 9 -0.3045 0.4626
1 7 1 0.0653 0.9938
1 7 2 0.1683 -0.1431
1 7 3 -1.2828 -0.6824
1 7 4 0.0844 0.6585
1 7 5 -0.2837 0.5715
1 7 6 0.0587 0.0337
1 7 7 0.3230 -0.4895
1 7 8 -0.4060 0.4560
1 8 1 0.3945 -0.5894
1 8 2 0.8094 -0.3840
1 8 3 -0.6418 0.3678
1 8 4 1.2025 0.1933
1 8 5 0.1714 -0.5364
1 8 6 0.1488 -0.3507
1 8 7 -0.5308 0.1842
1 9 1 -0.9204 -0.4635
1 9 2 -0.3994 -0.0027
1 9 3 -0.5485 0.2883
1 9 4 -0.3324 -0.1419
1 9 5 -0.5882 -0.6698
1 9 6 0.2420 -0.2035
1 10 1 1.1305 0.3402
1 10 2 -0.0866 0.3784
1 10 3 0.2831 0.0178
2 0 0 -8.5941 2.8564
2 0 2 -3.2537 2.1476
2 0 4 1.4757 1.7264
2 0 6 1.7347 0.2940
2 0 8 1.1723 0.5001
2 0 10 -0.0127 -0.7321
2 1 0 -3.0319 -0.7163
2 1 1 8.7253 -1.7308
2 1 2 -1.5885 0.0078
2 1 3 -0.9478 -0.3864
2 1 4 -0.0584 1.3544
2 1 5 -1.0694 -0.0142
2 1 6 -0.1082 -0.9490
2 1 7 -2.1455 -0.1408
2 1 8 0.3680 0.6349
2 1 9 -0.1431 0.4598
2 1 10 0.9323 -0.3927
2 1 11 -0.2719 0.0332
2 2 0 -7.6771 2.1008
2 2 1 7.2777 -0.1977
2 2 2 -4.8816 0.0344
2 2 3 -1.2183 0.0480
2 2 4 1.5559 -0.6887
2 2 5 -0.7835 0.2906
2 2 6 1.2735 -0.0608
2 2 7 0.7870 0.3072
2 2 8 0.6321 0.0453
2 2 9 -1.1500 -0.2690
2 2 10 -0.3284 -0.3748
2 2 11 0.4589 -0.1721
2 3 0 -5.9861 0.3545
2 3 1 2.2957 -0.6259
2 3 2 -2.5005 1.3354
2 3 3 2.1537 0.6077
2 3 4 1.4234 -1.5970
2 3 5 -0.7771 0.4360
2 3 6 0.3251 0.4616
2 3 7 0.1397 -0.2496
2 3 8 -0.1878 -0.5585
2 3 9 1.1786 -0.0748
2 3 10 -0.6017 0.3398
2 3 11 0.4561 -0.3851
2 4 0 -2.2063 2.2015
2 4 1 0.8224 -0.5208
2 4 2 0.4317 -0.5429
2 4 3 0.5612 -0.3506
2 4 4 -1.3055 0.1320
2 4 5 -0.8466 0.3373
2 4 6 -0.1679 -0.0017
2 4 7 -0.8909 -0.5683
2 4 8 -1.7732 0.4136
2 4 9 0.3917 0.1687
2 4 10 -1.4340 -0.0423
2 5 0 -1.5296 -0.4065
2 5 1 1.0466 -0.2419
2 5 2 0.0858 -0.8756
2 5 3 0.9121 0.0861
2 5 4 -0.1523 0.8513
2 5 5 0.0872 -0.2181
2 5 6 1.5195 -0.5283
2 5 7 0.3727 -0.1597
2 5 8 0.3479 0.6165
2 5 9 1.7029 -0.2969
2 5 10 0.4728 0.1748
2 6 0 1.4130 1.5187
2 6 1 0.7125 0.1868
2 6 2 -2.6549 -0.1651
2 6 3 0.4539 0.5014
2 6 4 0.4001 -0.2066
2 6 5 0.1563 -0.3250
2 6 6 0.1887 0.2449
2 6 7 -0.8342 0.2570
2 6 8 0.1205 -0.5010
2 6 9 -0.6525 -0.0148
2 7 0 -1.1004 0.1918
2 7 1 0.0324 -0.8701
2 7 2 0.4550 0.7267
2 7 3 0.4789 -0.2561
2 7 4 -0.7777 -0.5271
2 7 5 -0.2923 0.0578
2 7 6 -0.4200 0.4015
2 7 7 0.0444 -0.0457
2 7 8 1.3145 -0.1553
2 8 0 -0.4218 1.7472
2 8 1 0.3991 -0.0574
2 8 2 0.8229 -0.2135
2 8 3 -0.2005 -0.1092
2 8 4 -0.6724 -0.0799
2 8 5 0.5094 0.3482
2 8 6 0.1585 -0.0458
2 8 7 -0.4505 0.1946
2 9 0 0.2808 -0.1371
2 9 1 -0.2207 0.0036
2 9 2 -0.8050 -0.4735
2 9 3 0.3148 0.5578
2 9 4 0.3294 0.1648
2 9 5 0.0474 0.7581
2 10 0 0.0783 0.6496
2 10 1 0.9186 -0.0758
2 10 2 0.2619 0.1282
3 0 1 -2.9415 -0.8266
3 0 3 -2.6426 -1.3307
3 0 5 0.1584 -1.9435
3 0 7 0.6944 -1.9234
3 0 9 -0.0560 -1.7533
3 0 11 -0.5371 -1.5347
3 1 1 -0.7187 -0.7078
3 1 2 4.4173 1.0441
3 1 3 -1.1184 -0.0454
3 1 4 1.0294 0.8421
3 1 5 -0.4222 -0.1024
3 1 6 0.4677 0.4500
3 1 7 0.1892 -0.1034
3 1 8 -0.6082 0.4495
3 1 9 0.3176 0.0180
3 1 10 0.8318 0.5861
3 1 11 0.8893 -0.0562
3 2 1 -1.6099 -0.5123
3 2 2 5.0966 -0.0915
3 2 3 -3.9103 -1.2343
3 2 4 1.0774 0.1559
3 2 5 -0.8067 0.6882
3 2 6 -0.9173 0.0962
3 2 7 -0.0736 0.4476
3 2 8 0.5889 -0.1026
3 2 9 -0.4572 0.5922
3 2 10 -0.9638 -0.0255
3 2 11 -0.3418 0.1975
3 3 1 -1.2622 0.6576
3 3 2 1.8400 0.5496
3 3 3 -2.1999 0.4964
3 3 4 1.2290 -0.3229
3 3 5 -0.5153 -0.1712
3 3 6 -0.3768 -0.5877
3 3 7 0.7168 0.4371
3 3 8 0.2343 -0.0871
3 3 9 -0.1573 0.0389
3 3 10 0.5223 -0.3952
3 3 11 -1.1245 0.0272
3 4 1 -1.9096 0.5766
3 4 2 -0.9298 -0.0677
3 4 3 0.3647 0.2714
3 4 4 1.2286 0.0320
3 4 5 0.2780 0.4247
3 4 6 0.5377 -0.0809
3 4 7 0.2400 0.1582
3 4 8 -0.1700 -0.1960
3 4 9 -0.5278 -0.2254
3 4 10 1.1109 0.2465
3 5 1 -0.6897 -0.6246
3 5 2 0.9212 -0.0159
3 5 3 -0.4988 -0.5675
3 5 4 0.8306 -0.4244
3 5 5 -1.4255 0.1237
3 5 6 0.2850 0.2242
3 5 7 -0.3693 -0.4208
3 5 8 0.2628 0.3265
3 5 9 -1.5043 -0.1642
3 5 10 0.4552 -0.6531
3 6 1 1.2163 0.6800
3 6 2 0.2322 -0.1884
3 6 3 -2.7128 -0.4122
3 6 4 0.6997 0.1234
3 6 5 -1.1377 0.0583
3 6 6 0.9980 0.0138
3 6 7 -0.8343 -0.3719
3 6 8 1.3446 0.1525
3 6 9 -0.4938 -0.3357
3 7 1 -0.3903 0.2513
3 7 2 0.5023 0.5725
3 7 3 1.0443 0.5217
3 7 4 1.1724 -0.0287
3 7 5 -0.0443 0.0138
3 7 6 0.4552 0.1277
3 7 7 -1.2966 0.3067
3 7 8 0.9056 -0.0188
3 8 1 -1.3609 -0.1236
3 8 2 -0.2646 0.1303
3 8 3 0.4978 -0.3477
3 8 4 -1.0456 -0.0102
3 8 5 -0.2052 -0.3327
3 8 6 -0.0776 -0.2115
3 8 7 0.2896 -0.5774
3 9 1 0.7632 0.0134
3 9 2 -0.0232 0.0129
3 9 3 0.1164 -0.3938
3 9 4 0.1292 -0.2815
3 9 5 1.0381 0.0086
3 10 1 0.3786 0.1878
3 10 2 0.2007 -0.0483
4 0 0 -1.3602 -3.2317
4 0 2 -2.7176 -2.8451
4 0 4 -1.5997 -1.1092
4 0 6 -0.1109 -0.9150
4 0 8 1.6049 -0.0457
4 0 10 1.5179 0.3563
4 1 0 1.9665 -0.0486
4 1 1 2.0966 2.1486
4 1 2 1.0955 -0.1928
4 1 3 2.0744 0.4063
4 1 4 0.3025 0.5776
4 1 5 0.6911 0.0443
4 1 6 -0.4205 -0.6815
4 1 7 0.7643 -0.1101
4 1 8 -0.3669 0.4572
4 1 9 -1.7963 -0.3052
4 1 10 -0.0922 -0.0933
4 1 11 0.1462 -0.1587
4 2 0 -2.0759 -3.3330
4 2 1 -4.0444 -0.1917
4 2 2 -0.8259 0.7408
4 2 3 0.3231 -0.4028
4 2 4 -1.9832 0.2873
4 2 5 0.7982 0.2230
4 2 6 -1.6064 0.2562
4 2 7 -0.4798 0.1999
4 2 8 -0.2084 0.0757
4 2 9 0.7294 -0.0458
4 2 10 0.2513 0.0364
4 2 11 -1.1008 -0.0036
4 3 0 1.4311 -0.2968
4 3 1 0.3393 0.1317
4 3 2 1.0988 1.4453
4 3 3 1.8466 -0.7058
4 3 4 0.1952 -0.4157
4 3 5 1.3164 -0.4490
4 3 6 -1.3259 0.1114
4 3 7 0.2086 0.0922
4 3 8 0.3594 -0.2355
4 3 9 -0.3491 0.3639
4 3 10 0.6641 -0.0099
4 4 0 0.6832 -1.6566
4 4 1 1.2415 -0.2426
4 4 2 -1.8524 0.5110
4 4 3 -0.8106 -0.1812
4 4 4 -0.1937 0.2184
4 4 5 0.8237 0.4710
4 4 6 0.1133 -0.5538
4 4 7 1.0925 -0.1557
4 4 8 0.6158 0.2155
4 4 9 -0.3525 0.2057
4 4 10 0.7313 -0.3354
4 5 0 0.2640 0.4024
4 5 1 -0.0466 0.4877
4 5 2 -0.2399 -0.6426
4 5 3 0.2549 0.2410
4 5 4 -0.8105 -0.2305
4 5 5 0.4727 0.1499
4 5 6 -1.1052 -0.1536
4 5 7 0.1622 0.3938
4 5 8 0.1798 0.1407
4 5 9 -0.1810 -0.1661
4 6 0 -1.0295 -2.0423
4 6 1 -0.4366 0.2436
4 6 2 1.5227 0.4048
4 6 3 -0.0760 0.1540
4 6 4 -1.2463 -0.1663
4 6 5 1.0016 -0.1957
4 6 6 -0.7394 0.0230
4 6 7 -0.0179 -0.1887
4 6 8 -0.4612 0.3906
4 6 9 0.3707 0.0369
4 7 0 0.4020 -0.4665
4 7 1 0.4673 0.3981
4 7 2 -0.0783 0.1053
4 7 3 0.0514 -0.0175
4 7 4 0.2508 -0.0283
4 7 5 0.3171 0.0747
4 7 6 -0.3547 0.4068
4 7 7 -0.0468 0.0830
4 7 8 -0.5028 0.3859
4 8 0 0.9500 -1.2328
4 8 1 -0.3854 -0.3142
4 8 2 -1.3156 0.3255
4 8 3 -0.1809 -0.0286
4 8 4 0.5624 -0.1029
4 8 5 0.2518 0.2881
4 8 6 0.0325 -0.5846
4 9 0 0.1756 0.3194
4 9 1 -0.0618 -0.6324
4 9 2 0.8356 0.3703
4 9 3 -0.4184 -0.1294
4 9 4 -0.3227 -0.0543
5 0 1 0.1147 1.2924
5 0 3 -1.2127 1.4238
5 0 5 -0.9639 1.4182
5 0 7 -0.6712 1.8174
5 0 9 0.9982 1.5909
5 0 11 1.7092 1.0941
5 1 1 1.1807 2.0770
5 1 2 1.2606 0.0566
5 1 3 -0.0028 -0.3113
5 1 4 0.3428 -0.0435
5 1 5 -1.3493 0.0780
5 1 6 -0.5892 -0.2864
5 1 7 -1.6681 -0.2257
5 1 8 0.7441 -0.5131
5 1 9 -1.5644 0.3874
5 1 10 -1.7892 0.1789
5 1 11 -1.2084 -0.4603
5 2 1 -1.2171 -1.6061
5 2 2 -2.5243 -0.0424
5 2 3 0.6439 -0.2349
5 2 4 1.0862 0.6835
5 2 5 0.8941 -0.3417
5 2 6 2.9862 0.2430
5 2 7 0.2844 -0.5487
5 2 8 1.3405 -0.1533
5 2 9 0.2147 -0.4245
5 2 10 2.1657 0.1421
5 3 1 1.1589 -1.1482
5 3 2 -0.6634 -0.5315
5 3 3 -0.1307 0.2268
5 3 4 0.2665 0.4526
5 3 5 -1.2275 -1.0321
5 3 6 0.0643 -0.1198
5 3 7 -2.4418 0.5954
5 3 8 -0.2383 0.0431
5 3 9 -0.8090 -0.2349
5 3 10 -0.0903 0.6933
5 4 1 0.3605 -0.2136
5 4 2 0.2155 0.3450
5 4 3 -1.9438 0.6907
5 4 4 1.0836 0.0869
5 4 5 -0.4632 0.0874
5 4 6 1.1289 0.0325
5 4 7 -0.5792 0.0761
5 4 8 0.3064 -0.4572
5 4 9 -0.1015 0.4708
5 4 10 0.1559 0.4280
5 5 1 0.4813 0.5898
5 5 2 0.7372 -0.5509
5 5 3 0.0514 -0.2876
5 5 4 0.5178 0.1944
5 5 5 -1.7254 0.6313
5 5 6 0.7112 -0.4027
5 5 7 -0.1593 -0.0034
5 5 8 0.6267 -0.1307
5 5 9 1.2543 0.0443
5 6 1 -1.0664 -0.3439
5 6 2 -0.2764 -0.1815
5 6 3 1.2716 0.1088
5 6 4 0.3135 -0.1288
5 6 5 -0.6070 -0.1844
5 6 6 1.5124 -0.5234
5 6 7 -0.4707 0.1086
5 6 8 -0.9445 0.0403
5 7 1 -0.0368 -0.1762
5 7 2 0.2328 -0.1336
5 7 3 -0.4827 0.1763
5 7 4 -0.0233 0.4340
5 7 5 -0.3452 -0.3909
5 7 6 0.0142 0.0662
5 7 7 -0.4536 0.0220
5 8 1 1.0773 -0.2501
5 8 2 0.2421 -0.0231
5 8 3 -0.5558 0.2163
5 8 4 -0.2226 0.2242
5 8 5 0.6435 -0.2071
5 8 6 0.4362 0.6681
5 9 1 -0.0427 -0.1128
5 9 2 -0.5095 -0.4817
5 9 3 0.7350 -0.2220
5 9 4 -1.0299 0.2845
6 0 0 -0.1358 -0.4700
6 0 2 0.3329 1.3996
6 0 4 0.7739 1.7487
6 0 6 1.5023 0.6901
6 0 8 0.2434 0.1947
6 0 10 -0.5487 -0.4071
6 1 0 -1.0815 0.1004
6 1 1 -0.8780 0.9136
6 1 2 0.6367 0.1065
6 1 3 0.4178 -0.3913
6 1 4 -0.3300 -0.1741
6 1 5 -1.2239 -0.3042
6 1 6 -0.4007 0.0998
6 1 7 -2.4774 -0.0981
6 1 8 0.0491 -0.0626
6 1 9 0.4457 0.0804
6 1 10 -0.2470 0.0540
6 2 0 1.6778 1.8017
6 2 1 1.4254 0.0245
6 2 2 -0.7557 -0.6477
6 2 3 0.2284 -0.0004
6 2 4 1.2192 -0.4975
6 2 5 0.6489 0.0619
6 2 6 2.0893 0.3059
6 2 7 0.3407 -0.0520
6 2 8 1.6628 -0.3472
6 2 9 -0.3560 0.0839
6 2 10 0.3600 0.1123
6 3 0 -2.3293 0.2420
6 3 1 0.2875 -0.0133
6 3 2 -0.8779 -0.2733
6 3 3 -1.5799 -0.4639
6 3 4 -1.6876 0.3632
6 3 5 -1.6762 0.3615
6 3 6 0.2438 -0.3557
6 3 7 -0.6521 -0.1872
6 3 8 -0.1925 0.1796
6 3 9 -0.4357 -0.0929
6 3 10 -0.0247 -0.1520
6 4 0 0.0054 1.7964
6 4 1 1.0916 0.0912
6 4 2 1.9298 -0.1340
6 4 3 0.8930 -0.1067
6 4 4 1.0632 0.6666
6 4 5 1.1369 -0.0044
6 4 6 1.3914 0.0729
6 4 7 -0.1133 0.1693
6 4 8 -0.4750 -0.2316
6 4 9 0.0345 -0.1176
6 5 0 -0.3548 -0.0727
6 5 1 -1.0300 -0.9139
6 5 2 -0.7735 0.2611
6 5 3 -1.7539 -0.4355
6 5 4 0.2491 -0.2712
6 5 5 -2.1214 0.2485
6 5 6 -0.3142 0.4784
6 5 7 -0.5229 -0.0903
6 5 8 -0.4298 -0.1915
6 5 9 0.0447 -0.2096
6 6 0 1.2987 1.9257
6 6 1 0.2282 0.0092
6 6 2 0.0771 -0.3020
6 6 3 -0.0210 0.0612
6 6 4 2.9767 -0.4835
6 6 5 -1.7090 0.1677
6 6 6 0.7520 -0.1471
6 6 7 0.4711 -0.2800
6 6 8 0.1052 -0.0797
6 7 0 0.2270 0.0182
6 7 1 -0.3418 0.1485
6 7 2 0.2310 -0.2274
6 7 3 -0.6982 0.2490
6 7 4 0.4904 0.0958
6 7 5 -0.2953 0.2023
6 7 6 1.2974 -0.3470
6 7 7 -0.0154 -0.1161
6 8 0 -1.4121 1.1941
6 8 1 -0.4355 -0.1515
6 8 2 0.1377 -0.0168
6 8 3 0.4541 -0.1542
6 8 4 -0.8975 0.7652
6 8 5 -0.6187 0.0012
6 9 0 0.3357 0.1336
6 9 1 1.3257 -0.0894
6 9 2 -0.2874 0.2274
7 0 1 -0.8409 -1.2909
7 0 3 -1.0256 -1.4505
7 0 5 -0.3077 -1.2499
7 0 7 -0.6565 -1.7310
7 0 9 -0.2294 -1.3860
7 1 1 -1.1220 1.9604
7 1 2 0.1765 0.2338
7 1 3 0.3882 -0.0389
7 1 4 0.9421 -0.0531
7 1 5 0.3034 -0.1495
7 1 6 1.0320 0.4227
7 1 7 0.3243 -0.0221
7 1 8 0.0108 0.5440
7 1 9 0.3053 0.2583
7 1 10 0.2092 -0.3074
7 2 1 0.5195 1.4451
7 2 2 0.6081 -0.0204
7 2 3 -1.6351 0.5265
7 2 4 0.0825 0.6654
7 2 5 -0.1745 0.2037
7 2 6 -0.1566 0.3803
7 2 7 -1.0704 0.4138
7 2 8 -0.7412 -0.2380
7 2 9 0.0621 0.0592
7 3 1 -1.0490 -0.7518
7 3 2 2.4677 0.5511
7 3 3 0.1020 -0.3132
7 3 4 0.4812 -0.5707
7 3 5 -0.3125 -0.5176
7 3 6 -0.5855 0.1705
7 3 7 1.0269 0.0432
7 3 8 0.8197 0.0437
7 3 9 0.6636 -0.1297
7 4 1 -2.2044 0.0974
7 4 2 0.6037 0.4495
7 4 3 -1.2847 -0.8724
7 4 4 -0.8446 -0.0491
7 4 5 0.0130 0.1346
7 4 6 -0.2058 -0.1946
7 4 7 0.9559 -0.1720
7 4 8 -0.5578 -0.0550
7 4 9 -1.0909 -1.0648
7 5 1 0.2739 0.3141
7 5 2 1.8387 0.4409
7 5 3 -0.5785 0.1168
7 5 4 0.7167 -0.1082
7 5 5 0.4719 0.1048
7 5 6 -0.9058 0.1169
7 5 7 0.2094 0.5404
7 5 8 0.2624 0.1935
7 6 1 0.4334 0.6403
7 6 2 0.5621 -0.2207
7 6 3 -1.7654 -0.1707
7 6 4 1.0880 -0.1213
7 6 5 1.2150 0.0875
7 6 6 -1.1385 0.0039
7 6 7 -0.1957 0.4897
7 7 1 -0.5551 0.0055
7 7 2 -0.4160 0.3334
7 7 3 -0.3355 -0.1175
7 7 4 -0.7352 -0.2943
7 7 5 -0.0365 0.1672
7 7 6 0.0484 -0.5844
7 8 1 0.1397 -0.1270
7 8 2 -0.1872 0.2011
7 8 3 1.3296 -0.1657
7 8 4 0.0913 -0.2163
8 0 0 0.1381 -3.0763
8 0 2 0.4244 -2.3439
8 0 4 1.1472 -1.1557
8 0 6 0.8547 -0.6489
8 0 8 -1.8330 -0.1340
8 1 0 0.0595 0.2297
8 1 1 1.1111 1.4936
8 1 2 -1.1021 0.1373
8 1 3 -0.9622 0.5630
8 1 4 0.1856 -0.5358
8 1 5 -1.5460 -0.1000
8 1 6 0.3213 0.4127
8 1 7 0.5734 0.0064
8 1 8 0.5007 0.1089
8 1 9 1.5447 -0.1197
8 2 0 -3.0791 -2.7040
8 2 1 0.9767 0.1274
8 2 2 -0.2593 0.5204
8 2 3 -0.3633 0.3082
8 2 4 0.7689 0.5466
8 2 5 -0.4478 -0.0950
8 2 6 1.9358 0.1259
8 2 7 0.0505 0.0354
8 2 8 -1.3671 0.1079
8 2 9 -0.3694 -0.1335
8 3 0 -0.3695 0.1205
8 3 1 0.9157 0.2545
8 3 2 -0.6638 -1.1591
8 3 3 0.5190 -0.3214
8 3 4 0.7918 0.4548
8 3 5 -1.3351 -0.5036
8 3 6 0.1202 -0.0807
8 3 7 -1.2889 0.4434
8 3 8 0.1268 0.0349
8 4 0 0.4645 -1.5255
8 4 1 0.1376 0.2281
8 4 2 -0.9802 0.3255
8 4 3 0.6312 0.2003
8 4 4 0.0852 0.0926
8 4 5 -0.7852 -0.3925
8 4 6 0.7179 -0.3485
8 4 7 -0.0555 -0.0256
8 4 8 1.5305 0.2469
8 5 0 -0.5918 -0.1276
8 5 1 0.0306 0.4829
8 5 2 0.4777 0.4034
8 5 3 0.5112 -0.0638
8 5 4 -0.3228 0.1073
8 5 5 0.2332 -0.1017
8 5 6 -0.2164 -0.0310
8 5 7 -0.8223 0.3397
8 6 0 -1.3277 -1.9153
8 6 1 -0.1119 -0.0618
8 6 2 1.2349 0.2634
8 6 3 -0.2008 -0.2324
8 6 4 -1.1520 0.4011
8 6 5 1.3157 0.1268
8 6 6 0.3615 -0.3605
8 7 0 0.7311 -0.0282
8 7 1 0.0849 0.5225
8 7 2 -0.3252 0.1800
8 7 3 -0.3295 -0.0189
8 7 4 -0.3728 -0.2844
8 7 5 0.0659 -0.0871
8 8 0 -0.0348 -0.9239
8 8 1 -0.4071 0.1892
8 8 2 0.0544 -0.6468
9 0 1 0.6824 0.0973
9 0 3 1.0887 1.1597
9 0 5 0.1391 1.5958
9 0 7 0.1020 1.5928
9 1 1 0.6707 -0.1533
9 1 2 -0.2016 -1.2207
9 1 3 0.3018 0.2239
9 1 4 -0.2211 -0.7467
9 1 5 0.6557 -0.1734
9 1 6 0.1934 -0.3621
9 1 7 0.4532 0.1290
9 1 8 0.0027 0.0330
9 2 1 -0.5952 0.3872
9 2 2 0.5338 -0.0824
9 2 3 0.0088 1.2736
9 2 4 -0.7950 0.0879
9 2 5 -0.5794 -0.5954
9 2 6 -0.7443 0.0216
9 2 7 0.8172 -0.8896
9 2 8 -0.4207 0.0727
9 3 1 -0.2357 0.4764
9 3 2 -0.3290 -0.8187
9 3 3 -1.0049 -0.3638
9 3 4 -0.1633 0.4163
9 3 5 0.0042 0.2346
9 3 6 -0.4560 0.5936
9 3 7 0.3489 -0.0486
9 3 8 -0.2977 1.0438
9 4 1 0.9099 -0.5643
9 4 2 0.2395 0.0657
9 4 3 0.6117 -0.2397
9 4 4 1.3084 0.1384
9 4 5 0.4139 -0.3192
9 4 6 -0.1532 -0.0661
9 4 7 -0.2817 -0.3024
9 5 1 -0.7415 -0.2784
9 5 2 -0.8556 0.2189
9 5 3 -0.1538 0.1014
9 5 4 -0.6973 0.1391
9 5 5 0.1290 -0.2179
9 5 6 -0.0068 -0.4666
9 6 1 -1.3458 -0.2749
9 6 2 1.0510 0.0899
9 6 3 1.6895 0.4331
9 6 4 -0.3176 -0.1287
9 6 5 0.2909 0.9638
9 7 1 -0.3339 -0.1486
9 7 2 0.4954 -0.6145
9 7 3 -1.0559 0.3800
10 0 0 -0.3095 3.4418
10 0 2 -0.2156 1.7594
10 0 4 1.0196 1.1006
10 0 6 1.2586 0.9512
10 1 0 -0.8314 0.4535
10 1 1 -0.2525 -1.3014
10 1 2 -0.4338 -0.1538
10 1 3 -0.3644 -0.2585
10 1 4 -0.6103 -0.4618
10 1 5 -1.4268 0.0969
10 1 6 -0.8912 -0.3274
10 1 7 -0.1172 -0.0452
10 2 0 0.7247 2.0506
10 2 1 -0.2265 0.1188
10 2 2 0.2184 -0.5011
10 2 3 0.6677 0.0739
10 2 4 0.5946 -0.2987
10 2 5 0.7410 -0.3158
10 2 6 0.4526 -0.3436
10 2 7 1.6273 0.1031
10 3 0 0.1968 -0.2997
10 3 1 -0.2904 -0.1797
10 3 2 0.8925 -0.7793
10 3 3 0.3966 0.2247
10 3 4 -0.4223 0.4436
10 3 5 -0.2707 0.4396
10 3 6 -1.5862 0.6736
10 3 7 -0.9938 -0.3920
10 4 0 0.1270 1.5543
10 4 1 0.3003 0.3820
10 4 2 0.2214 -0.1638
10 4 3 -0.8352 0.4485
10 4 4 0.0004 -0.3605
10 4 5 1.0598 -0.5609
10 4 6 0.6353 0.1021
10 5 0 -0.5726 0.4110
10 5 1 0.2259 -0.5846
10 5 2 -0.3909 -0.3082
10 5 3 -0.2699 0.1543
10 5 4 -0.0269 0.2114
10 5 5 -0.3839 0.4111
10 6 0 0.7177 1.4373
10 6 1 -0.1059 -0.3713
10 6 2 -1.5431 0.1005
10 6 3 0.4467 0.1014
11 0 1 -0.4058 -0.2392
11 0 3 -1.4241 -1.5484
11 0 5 -0.5913 -0.9221
11 1 1 0.2974 -1.5372
11 1 2 0.6746 0.0264
11 1 3 -0.0955 0.5149
11 1 4 0.9646 0.1827
11 1 5 -0.3296 -0.5362
11 1 6 -0.8767 0.1321
11 2 1 -0.3550 0.5432
11 2 2 -0.8081 -0.2602
11 2 3 -0.5053 0.6154
11 2 4 -0.2027 -0.6415
11 2 5 -0.0312 0.4317
11 2 6 -0.9268 -0.0218
11 3 1 -0.2249 0.7572
11 3 2 -0.0027 0.1768
11 3 3 1.2554 -0.0928
11 3 4 0.6510 -0.6113
11 3 5 0.9366 0.6238
11 4 1 -0.2070 0.5258
11 4 2 -0.0628 -0.3977
11 4 3 -0.1377 -0.3388
11 4 4 -0.8880 -0.3162
11 5 1 0.0895 -0.5188
11 5 2 1.2320 0.2683
11 5 3 0.2033 0.4260
12 0 0 -0.0302 -0.5096
12 0 2 -0.0549 -0.7462
12 0 4 -0.8338 -2.1228
12 1 0 1.3926 -0.4045
12 1 1 0.1232 -0.2049
12 1 2 2.0003 -0.5762
12 1 3 0.0792 0.1906
12 1 4 0.9989 0.5257
12 1 5 0.8902 0.2396
12 2 0 -0.0653 -0.2576
12 2 1 -1.5744 -0.0285
12 2 2 -0.1474 -0.4579
12 2 3 -0.9107 -0.0892
12 2 4 0.1852 1.2792
12 3 0 1.9172 0.2088
12 3 1 0.8233 0.0670
12 3 2 -0.4046 0.8447
12 3 3 -0.1735 -0.3065
12 4 0 -1.4323 -2.3395
12 4 1 -0.1738 -0.1466
12 4 2 -1.0789 0.7379
13 0 1 0.7432 0.5209
13 1 1 -0.5155 -2.6500
13 1 2 -0.3977 -0.1226
0 0 0 0.0 0.0
;
_shelx_fab_checksum              10350
_olex2_submission_special_instructions 'No special instructions were received'
_oxdiff_exptl_absorpt_empirical_details
;
Empirical correction (ABSPACK) includes:
- Absorption correction using spherical harmonics
- Frame scaling
;
_oxdiff_exptl_absorpt_empirical_full_max 1.226
_oxdiff_exptl_absorpt_empirical_full_min 0.644
loop_
_space_group_symop_operation_xyz
'x, y, z'
'-x+1/2, -y, z'
'-x+1/2, y+1/2, -z+1/2'
'x, -y+1/2, -z+1/2'
'-x, -y, -z'
'x-1/2, y, -z'
'x-1/2, -y-1/2, z-1/2'
'-x, y-1/2, z-1/2'
loop_
_atom_site_label
_atom_site_type_symbol
_atom_site_fract_x
_atom_site_fract_y
_atom_site_fract_z
_atom_site_U_iso_or_equiv
_atom_site_adp_type
_atom_site_occupancy
_atom_site_site_symmetry_order
_atom_site_calc_flag
_atom_site_refinement_flags_posn
_atom_site_refinement_flags_adp
_atom_site_refinement_flags_occupancy
_atom_site_disorder_assembly
_atom_site_disorder_group
Cu1 Cu 0.250000 0.500000 0.46811(7) 0.0245(2) Uani 1 2 d S T P . .
Br1 Br 0.91741(6) 0.250000 0.750000 0.0588(3) Uani 1 2 d S T P . .
N1 N 0.6852(3) 0.3357(4) 0.6637(3) 0.0267(8) Uani 1 1 d . . . . .
N2 N 0.3831(3) 0.4170(4) 0.5774(4) 0.0326(8) Uani 1 1 d . . . . .
C2 C 0.5679(3) 0.3028(5) 0.6983(4) 0.0227(8) Uani 1 1 d . . . . .
C3 C 0.4660(4) 0.3673(5) 0.6310(4) 0.0270(9) Uani 1 1 d . . . . .
C1 C 0.7485(5) 0.250000 0.750000 0.0291(14) Uani 1 2 d S T P . .
loop_
_atom_site_aniso_label
_atom_site_aniso_U_11
_atom_site_aniso_U_22
_atom_site_aniso_U_33
_atom_site_aniso_U_23
_atom_site_aniso_U_13
_atom_site_aniso_U_12
Cu1 0.0165(4) 0.0313(4) 0.0256(4) 0.000 0.000 0.0014(2)
Br1 0.0143(3) 0.0791(6) 0.0831(6) 0.0506(5) 0.000 0.000
N1 0.0161(16) 0.0321(18) 0.0319(19) 0.0090(15) 0.0011(15) -0.0003(13)
N2 0.0202(18) 0.043(2) 0.035(2) 0.0095(17) -0.0034(16) 0.0002(16)
C2 0.0144(19) 0.029(2) 0.024(2) 0.0046(17) 0.0011(16) 0.0025(15)
C3 0.020(2) 0.035(2) 0.026(2) 0.0029(18) 0.0045(18) -0.0033(17)
C1 0.008(3) 0.044(4) 0.035(3) 0.011(3) 0.000 0.000
loop_
_atom_type_symbol
_atom_type_description
_atom_type_scat_dispersion_real
_atom_type_scat_dispersion_imag
_atom_type_scat_source
Br Br -0.2901 2.4595 'International Tables Vol C Tables 4.2.6.8 and 6.1.1.4'
C C 0.0033 0.0016 'International Tables Vol C Tables 4.2.6.8 and 6.1.1.4'
Cu Cu 0.3201 1.2651 'International Tables Vol C Tables 4.2.6.8 and 6.1.1.4'
N N 0.0061 0.0033 'International Tables Vol C Tables 4.2.6.8 and 6.1.1.4'
loop_
_geom_angle_atom_site_label_1
_geom_angle_atom_site_label_2
_geom_angle_atom_site_label_3
_geom_angle
_geom_angle_site_symmetry_1
_geom_angle_site_symmetry_3
_geom_angle_publ_flag
N1 Cu1 N1 100.67(19) 6_556 5_666 ?
N2 Cu1 N1 111.19(14) 2_565 5_666 ?
N2 Cu1 N1 111.20(14) . 6_556 ?
N2 Cu1 N1 110.40(13) . 5_666 ?
N2 Cu1 N1 110.40(13) 2_565 6_556 ?
N2 Cu1 N2 112.4(2) . 2_565 ?
C2 N1 Cu1 129.1(3) . 5_666 ?
C1 N1 Cu1 127.9(3) . 5_666 ?
C1 N1 C2 102.5(3) . . ?
C3 N2 Cu1 174.1(4) . . ?
N1 C2 C2 109.1(2) . 4_556 ?
N1 C2 C3 123.0(4) . . ?
C2 C2 C3 127.9(2) 4_556 . ?
N2 C3 C2 178.9(4) . . ?
N1 C1 Br1 121.5(2) . . ?
N1 C1 Br1 121.5(2) 4_556 . ?
N1 C1 N1 116.9(5) 4_556 . ?
loop_
_geom_bond_atom_site_label_1
_geom_bond_atom_site_label_2
_geom_bond_distance
_geom_bond_site_symmetry_2
_geom_bond_publ_flag
Cu1 N1 2.068(3) 6_556 ?
Cu1 N1 2.068(3) 5_666 ?
Cu1 N2 1.967(3) . ?
Cu1 N2 1.967(3) 2_565 ?
Br1 C1 1.863(5) . ?
N1 C2 1.370(5) . ?
N1 C1 1.336(4) . ?
N2 C3 1.144(5) . ?
C2 C2 1.381(8) 4_556 ?
C2 C3 1.424(6) . ?
loop_
_geom_torsion_atom_site_label_1
_geom_torsion_atom_site_label_2
_geom_torsion_atom_site_label_3
_geom_torsion_atom_site_label_4
_geom_torsion
_geom_torsion_site_symmetry_1
_geom_torsion_site_symmetry_2
_geom_torsion_site_symmetry_3
_geom_torsion_site_symmetry_4
_geom_torsion_publ_flag
Cu1 N1 C2 C2 -172.8(3) 5_666 . . 4_556 ?
Cu1 N1 C2 C3 9.1(6) 5_666 . . . ?
Cu1 N1 C1 Br1 -7.7(3) 5_666 . . . ?
Cu1 N1 C1 N1 172.3(3) 5_666 . . 4_556 ?
C2 N1 C1 Br1 -179.6(2) . . . . ?
C2 N1 C1 N1 0.4(2) . . . 4_556 ?
C1 N1 C2 C2 -1.0(5) . . . 4_556 ?
C1 N1 C2 C3 -179.1(4) . . . . ?
loop_
_smtbx_masks_void_nr
_smtbx_masks_void_average_x
_smtbx_masks_void_average_y
_smtbx_masks_void_average_z
_smtbx_masks_void_volume
_smtbx_masks_void_count_electrons
_smtbx_masks_void_content
1 -0.491 -0.605 -0.917 364.2 52.7 ?
