#------------------------------------------------------------------------------
#$Date: 2020-08-22 02:03:56 +0300 (Sat, 22 Aug 2020) $
#$Revision: 255551 $
#$URL: file:///home/coder/svn-repositories/cod/cif/4/13/51/4135198.cif $
#------------------------------------------------------------------------------
#
# This file is available in the Crystallography Open Database (COD),
# http://www.crystallography.net/
#
# All data on this site have been placed in the public domain by the
# contributors.
#
data_4135198
loop_
_publ_author_name
'Yan, Yong'
'Carrington, Elliot J.'
'P\'etuya, R\'emi'
'Whitehead, George F. S.'
'Verma, Ajay'
'Hylton, Rebecca K.'
'Tang, Chiu C.'
'Berry, Neil G.'
'Darling, George R.'
'Dyer, Matthew S.'
'Antypov, Dmytro'
'Katsoulidis, Alexandros P.'
'Rosseinsky, Matthew J.'
_publ_section_title
;
 Amino Acid Residues Determine the Response of Flexible Metal-Organic
 Frameworks to Guests.
;
_journal_name_full               'Journal of the American Chemical Society'
_journal_paper_doi               10.1021/jacs.0c03853
_journal_year                    2020
_chemical_formula_moiety         'C6 H5 N3 O3 Zn, 0.76(C2 H6 O S)'
_chemical_formula_sum            'C7.51 H9.54 N3 O3.76 S0.76 Zn'
_chemical_formula_weight         291.61
_space_group_crystal_system      trigonal
_space_group_IT_number           161
_space_group_name_Hall           'R 3 -2"c'
_space_group_name_H-M_alt        'R 3 c :H'
_atom_sites_solution_hydrogens   geom
_atom_sites_solution_primary     direct
_audit_creation_date             2018-06-20
_audit_creation_method
;
Olex2 1.2
(compiled 2018.05.29 svn.r3508 for OlexSys, GUI svn.r5506)
;
_cell_angle_alpha                90
_cell_angle_beta                 90
_cell_angle_gamma                120
_cell_formula_units_Z            18
_cell_length_a                   28.0952(14)
_cell_length_b                   28.0952(14)
_cell_length_c                   10.1517(5)
_cell_measurement_reflns_used    10248
_cell_measurement_temperature    100
_cell_measurement_theta_max      26.4410
_cell_measurement_theta_min      2.4830
_cell_volume                     6939.6(6)
_computing_cell_refinement       'CrysAlisPro 1.171.38.46 (Rigaku OD, 2015)'
_computing_data_collection       'CrysAlisPro 1.171.38.46 (Rigaku OD, 2015)'
_computing_data_reduction        'CrysAlisPro 1.171.38.46 (Rigaku OD, 2015)'
_computing_molecular_graphics    'Olex2 (Dolomanov et al., 2009)'
_computing_publication_material  'Olex2 (Dolomanov et al., 2009)'
_computing_structure_refinement  'ShelXL (Sheldrick, 2015)'
_computing_structure_solution    'ShelXS (Sheldrick, 2008)'
_diffrn_ambient_temperature      100
_diffrn_detector                 'CCD plate'
_diffrn_measured_fraction_theta_full 0.999
_diffrn_measured_fraction_theta_max 0.999
_diffrn_measurement_details
;
List of Runs (angles in degrees, time in seconds):

  # Type    Start    End  Width  t~exp~   \w     \q     \k     \f   Frames
--------------------------------------------------------------------------
  1  \w   -110.00  15.00   1.00   10.00    --  -20.00 -68.00   0.00  125
  2  \w   -110.00  15.00   1.00   10.00    --  -20.00 -68.00 120.00  125
  3  \w   -110.00  15.00   1.00   10.00    --  -20.00 -68.00 240.00  125
  4  \w   -110.00  15.00   1.00   10.00    --  -20.00 -30.00  90.00  125
;
_diffrn_measurement_device       'abstract diffractometer'
_diffrn_measurement_device_type
'Rigaku Mo Rotating Anode Source With Saturn Detector'
_diffrn_measurement_method       '\w scans'
_diffrn_orient_matrix_type
'CrysAlisPro convention (1999,Acta A55,543-557)'
_diffrn_orient_matrix_UB_11      -0.0042264000
_diffrn_orient_matrix_UB_12      0.0228402000
_diffrn_orient_matrix_UB_13      -0.0039040000
_diffrn_orient_matrix_UB_21      0.0266019000
_diffrn_orient_matrix_UB_22      0.0172353000
_diffrn_orient_matrix_UB_23      0.0264067000
_diffrn_orient_matrix_UB_31      0.0111302000
_diffrn_orient_matrix_UB_32      0.0056389000
_diffrn_orient_matrix_UB_33      -0.0645691000
_diffrn_radiation_monochromator  graphite
_diffrn_radiation_probe          x-ray
_diffrn_radiation_type           MoK\a
_diffrn_radiation_wavelength     0.71073
_diffrn_reflns_av_R_equivalents  0.0824
_diffrn_reflns_av_unetI/netI     0.0452
_diffrn_reflns_Laue_measured_fraction_full 0.999
_diffrn_reflns_Laue_measured_fraction_max 0.999
_diffrn_reflns_limit_h_max       33
_diffrn_reflns_limit_h_min       -35
_diffrn_reflns_limit_k_max       35
_diffrn_reflns_limit_k_min       -35
_diffrn_reflns_limit_l_max       12
_diffrn_reflns_limit_l_min       -10
_diffrn_reflns_number            25728
_diffrn_reflns_point_group_measured_fraction_full 0.963
_diffrn_reflns_point_group_measured_fraction_max 0.955
_diffrn_reflns_theta_full        25.242
_diffrn_reflns_theta_max         26.369
_diffrn_reflns_theta_min         2.511
_diffrn_source                   'fine-focus sealed X-ray tube'
_diffrn_source_type              'Enhance (Mo) X-ray Source'
_exptl_absorpt_coefficient_mu    1.695
_exptl_absorpt_correction_T_max  1.00000
_exptl_absorpt_correction_T_min  0.93047
_exptl_absorpt_correction_type   multi-scan
_exptl_absorpt_process_details
;
CrysAlisPro 1.171.38.46 (Rigaku Oxford Diffraction, 2015)
Empirical absorption correction using spherical harmonics,
 implemented in SCALE3 ABSPACK scaling algorithm.
;
_exptl_crystal_colour            white
_exptl_crystal_colour_primary    white
_exptl_crystal_density_diffrn    1.256
_exptl_crystal_description       needle
_exptl_crystal_F_000             2660
_exptl_crystal_preparation       'Solvent Exchange DMSO'
_exptl_crystal_size_max          0.245
_exptl_crystal_size_mid          0.025
_exptl_crystal_size_min          0.024
_refine_diff_density_max         1.255
_refine_diff_density_min         -0.781
_refine_diff_density_rms         0.167
_refine_ls_abs_structure_details
;
 Flack x determined using 1020 quotients [(I+)-(I-)]/[(I+)+(I-)]
 (Parsons, Flack and Wagner, Acta Cryst. B69 (2013) 249-259).
;
_refine_ls_abs_structure_Flack   -0.003(16)
_refine_ls_extinction_method     none
_refine_ls_goodness_of_fit_ref   1.061
_refine_ls_hydrogen_treatment    constr
_refine_ls_matrix_type           full
_refine_ls_number_parameters     132
_refine_ls_number_reflns         3026
_refine_ls_number_restraints     23
_refine_ls_restrained_S_all      1.057
_refine_ls_R_factor_all          0.0852
_refine_ls_R_factor_gt           0.0752
_refine_ls_shift/su_max          0.000
_refine_ls_shift/su_mean         0.000
_refine_ls_structure_factor_coef Fsqd
_refine_ls_weighting_details
'w=1/[\s^2^(Fo^2^)+(0.1576P)^2^+39.9716P] where P=(Fo^2^+2Fc^2^)/3'
_refine_ls_weighting_scheme      calc
_refine_ls_wR_factor_gt          0.2169
_refine_ls_wR_factor_ref         0.2268
_reflns_Friedel_coverage         0.902
_reflns_Friedel_fraction_full    0.926
_reflns_Friedel_fraction_max     0.911
_reflns_number_gt                2640
_reflns_number_total             3026
_reflns_threshold_expression     'I > 2\s(I)'
_cod_data_source_file            ZnGlyPyr_DMSO_100K.cif
_cod_data_source_block           ZnGlyPyr_DMSO_100K
_cod_original_cell_volume        6939.6(8)
_cod_original_sg_symbol_H-M      'R 3 c'
_cod_database_code               4135198
_shelx_shelxl_version_number     2014/7
_chemical_oxdiff_formula         'Zn C8 H8 N3 O3'
_shelx_space_group_comment
;
The symmetry employed for this shelxl refinement is uniquely defined
by the following loop, which should always be used as a source of
symmetry information in preference to the above space-group names.
They are only intended as comments.
;
_reflns_odcompleteness_completeness 99.88
_reflns_odcompleteness_iscentric 1
_reflns_odcompleteness_theta     26.31
_olex2_refinement_description
;
1. Fixed Uiso
 At 1.2 times of:
  All C(H) groups, All C(H,H) groups, All N(H) groups
 At 1.5 times of:
  All C(H,H,H) groups
2. Rigid bond restraints
 N2, N1
 with sigma for 1-2 distances of 0.01 and sigma for 1-3 distances of 0.01
 Zn1, N1
 with sigma for 1-2 distances of 0.01 and sigma for 1-3 distances of 0.01
 N1, C1
 with sigma for 1-2 distances of 0.01 and sigma for 1-3 distances of 0.01
3. Uiso/Uaniso restraints and constraints
C3 \\sim N2 \\sim N1 \\sim C2 \\sim C1: within 2A with sigma of 0.04 and sigma
for terminal atoms of 0.08
O4 \\sim O4A: within 2A with sigma of 0.04 and sigma for terminal atoms of 0.08
S1A \\sim S1: within 2A with sigma of 0.04 and sigma for terminal atoms of 0.08
C7 \\sim C7A: within 2A with sigma of 0.04 and sigma for terminal atoms of 0.08
Uanis(N2) = Uanis(N1)
Uiso(C7) = Uiso(C8)
4. Others
 Sof(S1)=Sof(O4)=Sof(C7)=Sof(H7A)=Sof(H7B)=Sof(H7C)=Sof(C8)=Sof(H8A)=Sof(H8B)=
 Sof(H8C)=Sof(S1A)=Sof(C7A)=Sof(H7AA)=Sof(H7AB)=Sof(H7AC)=Sof(C8A)=Sof(H8AA)=
 Sof(H8AB)=Sof(H8AC)=Sof(O4A)=0.5*FVAR(2)
5.a Free rotating group:
 S1(O4,C7,C8), S1A(C7A,C8A,O4A)
5.b Secondary CH2 refined with riding coordinates:
 C5(H5A,H5B)
5.c Me refined with riding coordinates:
 C7(H7A,H7B,H7C), C8(H8A,H8B,H8C), C7A(H7AA,H7AB,H7AC), C8A(H8AA,H8AB,H8AC)
5.d Aromatic/amide H refined with riding coordinates:
 N3(H3), C2(H2), C1(H1)
;
_shelx_res_file
;
    yy_zn_gly_pyr_dmso.res created by SHELXL-2014/7

TITL YY_Zn_Gly_Pyr_DMSO in R3c #161
REM reset to R3c #161
CELL 0.71073 28.095171 28.095171 10.151741 90 90 120
ZERR 18 0.001372 0.001372 0.000537 0 0 0
LATT -3
SYMM -Y,+X-Y,+Z
SYMM +Y-X,-X,+Z
SYMM +Y-X,+Y,0.5+Z
SYMM +X,+X-Y,0.5+Z
SYMM -Y,-X,0.5+Z
SFAC C H N O S Zn
UNIT 135.23 171.7 54 67.62 13.62 18
DELU N2 N1
DELU Zn1 N1
DELU N1 C1
SIMU C3 N2 N1 C2 C1
SIMU O4 O4A
SIMU S1A S1
SIMU C7 C7A
EADP N2 N1
EADP C7 C8

L.S. 16
PLAN  20
TEMP -173.15
BOND
fmap 2
acta
REM <olex2.extras>
REM <HklSrc "%.\\YY_Zn_Gly_Pyr_DMSO.hkl">
REM </olex2.extras>

WGHT    0.157600   39.971600
FVAR       0.79710   0.75645
ZN1   6    0.353810    0.329995    0.329630    11.00000    0.03575    0.03840 =
         0.01022    0.00196    0.00215    0.02256
O1    4    0.400508    0.328502    0.472278    11.00000    0.03650    0.02903 =
         0.01776   -0.00300   -0.00525    0.01417
C4    1    0.553425    0.464443    0.513131    11.00000    0.03720    0.03593 =
         0.02268    0.00382   -0.00148    0.00824
O3    4    0.545914    0.452662    0.394021    11.00000    0.07991    0.03656 =
         0.01949    0.00145   -0.02079   -0.00407
C6    1    0.431462    0.360975    0.559485    11.00000    0.03317    0.02305 =
         0.01645    0.00106    0.00060    0.01083
C3    1    0.591102    0.521266    0.556282    11.00000    0.02870    0.02727 =
         0.02001   -0.00141   -0.00773    0.00652
N3    3    0.529010    0.426437    0.607937    11.00000    0.02612    0.03511 =
         0.01681   -0.00161   -0.01111    0.00789
AFIX  43
H3    2    0.537593    0.435727    0.691002    11.00000   -1.20000
AFIX   0
C5    1    0.487804    0.369076    0.573946    11.00000    0.02765    0.02616 =
         0.02070    0.00086    0.00105    0.00939
AFIX  23
H5A   2    0.487453    0.344253    0.643634    11.00000   -1.20000
H5B   2    0.498629    0.358951    0.490351    11.00000   -1.20000
AFIX   0
N2    3    0.387249    0.356519    0.047060    11.00000    0.03147    0.02943 =
         0.01184   -0.00472   -0.00436    0.00975
N1    3    0.402688    0.359568    0.177230    11.00000    0.03147    0.02943 =
         0.01184   -0.00472   -0.00436    0.00975
C2    1    0.613156    0.566846    0.477092    11.00000    0.04687    0.03350 =
         0.00938    0.00514   -0.00227    0.00786
AFIX  43
H2    2    0.607662    0.566013    0.384595    11.00000   -1.20000
AFIX   0
O2    4    0.416370    0.383836    0.646851    11.00000    0.02689    0.03792 =
         0.03377   -0.01393    0.00627    0.00744
C1    1    0.608325    0.541622    0.684479    11.00000    0.02210    0.03047 =
         0.02450    0.00435   -0.00238    0.00824
AFIX  43
H1    2    0.599153    0.520225    0.762642    11.00000   -1.20000
AFIX   6

PART 1
S1    5    0.417942    0.493847    0.210696    20.50000    0.05752
O4    4    0.418313    0.488020    0.357897    20.50000    0.02641
C7    1    0.390327    0.538712    0.177257    20.50000    0.10741
AFIX  33
H7A   2    0.389386    0.543595    0.081892    20.50000   -1.50000
H7B   2    0.352989    0.522298    0.212917    20.50000   -1.50000
H7C   2    0.413672    0.574505    0.218878    20.50000   -1.50000
AFIX   5
C8    1    0.487901    0.542019    0.161563    20.50000    0.10741
AFIX  33
H8A   2    0.489431    0.546978    0.065798    20.50000   -1.50000
H8B   2    0.500130    0.577438    0.204951    20.50000   -1.50000
H8C   2    0.511977    0.527694    0.187367    20.50000   -1.50000
AFIX   6
PART 0
PART 2
S1A   5    0.424228    0.479619    0.301803    20.50000    0.11207
C7A   1    0.396147    0.515269    0.393565    20.50000    0.13867
AFIX  33
H7AA  2    0.392388    0.540971    0.335158    20.50000   -1.50000
H7AB  2    0.359994    0.488498    0.428666    20.50000   -1.50000
H7AC  2    0.420871    0.535618    0.466497    20.50000   -1.50000
AFIX   5
C8A   1    0.492640    0.538295    0.282089    20.50000    0.10012
AFIX  33
H8AA  2    0.491337    0.564575    0.220818    20.50000   -1.50000
H8AB  2    0.506366    0.556030    0.367713    20.50000   -1.50000
H8AC  2    0.517216    0.526014    0.247073    20.50000   -1.50000
AFIX   5
O4A   4    0.428959    0.441023    0.396414    20.50000    0.04181
AFIX   0
HKLF 4

REM  YY_Zn_Gly_Pyr_DMSO in R3c #161
REM R1 =  0.0752 for    2640 Fo > 4sig(Fo)  and  0.0852 for all    3026 data
REM    132 parameters refined using     23 restraints

END

WGHT      0.1576     39.9805

REM Highest difference peak  1.255,  deepest hole -0.781,  1-sigma level  0.167
Q1    1   0.4681  0.5564  0.3682  11.00000  0.05    1.26
Q2    1   0.3973  0.5225  0.1360  11.00000  0.05    1.08
Q3    1   0.4433  0.6517  0.0714  11.00000  0.05    1.08
Q4    1   0.4882  0.5345  0.2152  11.00000  0.05    1.02
Q5    1   0.4020  0.6410  0.1307  11.00000  0.05    0.94
Q6    1   0.5566  0.4736  0.6138  11.00000  0.05    0.65
Q7    1   0.3906  0.5816  0.0485  11.00000  0.05    0.60
Q8    1   0.3865  0.6242  0.0378  11.00000  0.05    0.59
Q9    1   0.4255  0.6873  0.1636  11.00000  0.05    0.59
Q10   1   0.6049  0.4789  0.3550  11.00000  0.05    0.57
Q11   1   0.4855  0.4230  0.6005  11.00000  0.05    0.52
Q12   1   0.5374  0.4944  0.7724  11.00000  0.05    0.51
Q13   1   0.5799  0.5261  0.3347  11.00000  0.05    0.51
Q14   1   0.5530  0.3460  0.4108  11.00000  0.05    0.51
Q15   1   0.5773  0.4981  0.3415  11.00000  0.05    0.50
Q16   1   0.5784  0.5198  0.6345  11.00000  0.05    0.50
Q17   1   0.4348  0.5628  0.2181  11.00000  0.05    0.49
Q18   1   0.3771  0.3535  0.3596  11.00000  0.05    0.48
Q19   1   0.3357  0.5537  0.4890  11.00000  0.05    0.48
Q20   1   0.4115  0.5062  0.2659  11.00000  0.05    0.47
;
_shelx_res_checksum              80392
_shelx_hkl_file
;
   0   0  -3 77.5541 154.568   1
   0   0   3-31.4698 126.390   4
   0   0   3-36.6520 152.190   1
   0   0   6 104499. 1599.08   4
   0   0   6 107234. 1899.64   1
   0   0   9 104.744 564.352   3
   0   0   9-20.6269 219.355   4
   0   0   9-144.478 295.122   1
   0   0  12 20659.1 1825.22   3
   0   1  -4 11317.2 583.474   1
  -1   0  -4 12168.2 507.960   1
  -1   0  -1 194.249 102.668   2
   1  -1  -1 48.6424 228.733   3
  -1   0  -1 20.1912 71.0059   4
  -1   0  -1-4.81410 321.786   3
   0   1  -1 31.1075 81.4674   1
   1  -1   2 3633.90 256.636   1
   0   1   2 3796.52 244.983   4
   0   1   2 3383.90 185.577   1
   1  -1   2 3631.35 188.159   4
  -1   0   2 3830.29 274.630   1
  -1   0   5 189.573 228.166   1
  -1   0   5 225.213 156.665   4
   0   1   5 6.41349 176.127   4
   1  -1   5 61.8992 193.395   1
  -1   0   5-341.972 1120.12   3
   0   1   5-386.967 703.564   3
   1  -1   5 109.650 154.812   4
   0   1   5-217.902 184.568   1
   1  -1   8 875.772 316.084   1
  -1   0   8 728.673 232.175   4
   0   1   8 651.070 573.419   3
   0   1   8 870.761 316.482   1
  -1   0   8 241.345 824.077   3
   1  -1   8 265.427 186.809   4
   1  -1   8-113.197 1052.42   3
   0   1   8 332.657 266.298   4
  -1   0   8 592.469 314.612   1
  -1   0  11 90.9156 358.160   1
   1  -1  11 5.00425 375.664   1
   1  -1  11-1076.78 757.941   3
  -1   0  11-426.606 604.901   3
   0   1  11 401.843 641.801   3
   0   1  11-34.2199 336.637   1
  -1   1  -5-22.0856 211.356   1
  -1   1  -2 3750.46 192.408   4
  -1   1  -2 4104.41 270.310   1
   1   0   1-85.7660 87.9454   2
   1   0   1 53.8349 347.916   3
   1   0   1 72.1096 76.2977   4
   0  -1   1-11.4309 86.9428   1
  -1   1   1 33.4158 107.288   3
  -1   1   4 1917.09 1066.62   3
   0  -1   4 12352.6 410.747   4
   0  -1   4 12387.7 591.488   1
  -1   1   4 11700.2 502.316   4
   1   0   4 12289.9 513.036   4
   0  -1   4 5796.68 1107.20   3
   1   0   4 3212.88 1233.75   3
  -1   1   4 12129.9 529.490   1
   1   0   4 11755.2 501.409   1
  -1   1   7 157.806 251.332   1
  -1   1   7-30.7731 620.354   3
   0  -1   7-32.3748 150.078   4
   1   0   7 596.480 760.516   3
   1   0   7 288.317 202.473   4
  -1   1   7-207.878 203.837   4
   1   0   7-29.3821 230.853   1
   0  -1   7 48.4691 1121.98   3
   0  -1   7-111.305 270.058   1
   1   0  10 420.162 354.652   1
  -1   1  10 1369.51 410.483   1
  -1   1  10 355.942 240.893   4
   1   0  10 956.650 672.462   3
   0  -1  10 441.019 379.972   1
   0  -1  10 72.9226 680.816   3
   0  -1  10 166.160 136.502   4
  -1   1  10 362.570 552.033   3
  -2   0  -5 26.3846 184.716   1
  -2   0  -2 1002.66 673.567   3
  -2   0  -2 1278.64 209.333   4
   0   2  -2 1070.47 216.391   1
  -2   0  -2 1328.36 235.576   2
  -2   0  -2 1480.10 158.343   1
   2  -2   1 67.8183 79.9398   2
   0   2   1 99.3288 128.502   3
   2  -2   1-11.5605 78.1585   4
   2  -2   1 107.496 132.729   1
  -2   0   1-40.1379 96.0867   2
   2  -2   4 15217.7 650.570   1
  -2   0   4 14587.1 674.926   1
   0   2   4 15608.1 929.439   3
   0   2   4 14955.2 641.131   4
   2  -2   4 15385.0 693.636   2
   0   2   4 15579.9 494.277   1
   2  -2   4 15752.9 490.705   4
  -2   0   7-765.406 1266.83   3
   2  -2   7 163.515 312.212   1
   2  -2   7 736.171 1355.94   3
   0   2   7-256.232 276.179   4
   0   2   7 496.537 497.252   3
   2  -2   7-53.5282 307.510   2
   0   2   7-84.8588 203.997   1
  -2   0   7 253.790 277.314   1
  -2   0   7-87.1383 148.096   4
  -2   0   7 18.2927 154.789   4
   2  -2   7-82.2393 151.597   4
   0   2  10 3245.83 457.796   1
   2  -2  10 2401.48 517.347   1
   0   2  10 3024.89 808.305   3
  -2   0  10 3829.80 945.411   3
  -2   0  10 1491.64 206.551   4
   2  -2  10 4818.24 1144.64   3
  -2   0  10 2382.70 483.689   1
  -2   1  -6 31292.0 1034.34   1
  -1   2  -3 98534.2 903.792   4
  -2   1  -3 97721.6 1247.98   4
  -2   1  -3 101237. 1327.27   1
  -1   2  -3 97844.6 1480.53   1
  -1  -1  -3 100641. 1045.61   1
  -1   2   3 96197.4 1106.94   1
   2  -1   3 94247.6 1284.06   1
  -1   2   3 105290. 1922.03   3
  -1  -1   3 94007.9 1462.70   1
   1   1   3 94220.7 1007.90   1
   1   1   3 97194.7 1378.04   4
   2  -1   3 91027.7 1511.94   2
   1  -2   3 96845.5 1495.49   1
   1  -2   3 88411.9 840.659   4
   2  -1   3 95270.6 1179.39   4
  -1   2   6 34416.6 1064.36   4
   1   1   6 30677.6 909.071   1
  -1  -1   6 32120.3 1163.74   1
   2  -1   6 31630.3 908.896   4
   2  -1   6 28946.3 1006.86   1
  -2   1   6 33477.3 1119.97   1
   1   1   6 30180.9 996.022   4
   1  -2   6 5395.94 1779.02   3
   2  -1   6 34310.8 1331.59   2
   1  -2   6 30217.3 713.317   4
  -1  -1   6 31140.0 719.834   4
   1   1   6 31467.4 1371.23   2
  -1   2   6 40646.0 1796.42   3
  -2   1   6 31422.6 922.179   4
   1  -2   6 29110.8 1098.44   1
   1   1   6 49082.6 2406.70   3
   1  -2   6 33818.9 1272.92   2
  -1   2   6 32985.8 984.777   1
  -1  -1   9 20982.3 1138.57   1
  -1   2   9 19177.0 931.492   1
  -1   2   9 22040.6 1562.46   3
   1  -2   9 1618.35 1195.55   3
   2  -1   9 15826.6 722.045   4
  -1  -1   9 12343.5 466.871   4
   1  -2   9 19192.5 1090.40   1
   2  -1   9 18464.0 979.565   1
  -2   1   9 15254.8 715.702   4
  -2   1   9 21901.3 1643.40   3
  -2   1   9 19893.0 1059.77   1
  -2   1   9 16355.8 723.498   4
   1   1   9 18358.8 918.913   1
   1  -2   9 12333.1 490.464   4
   1   1   9 16085.8 840.186   4
  -1   2   9 16970.2 854.331   4
   2  -1   9 28606.8 2094.54   3
   1   1   9 20439.6 1577.24   3
   2  -1  12 2825.57 904.402   3
  -2   1  12 3665.46 964.031   3
  -1   2  12 5180.54 1083.17   3
   1   1  12 3103.95 926.879   3
   1  -2  12 6485.51 1291.80   3
  -1  -1  12 4829.19 1018.68   3
  -2   2  -4 15624.6 669.857   1
  -2   2  -4 15265.2 512.375   4
  -2   2  -1 35.2370 73.9123   2
  -2   2  -1 10.7402 127.570   1
   0  -2  -1-23.5890 118.633   3
   2   0  -1-78.1691 87.8458   2
  -2   2  -1 38.2228 66.7921   4
   0  -2   2 1013.60 250.529   1
  -2   2   2 1145.54 240.196   3
   2   0   2 1230.67 188.184   4
   2   0   2 885.569 202.923   2
   2   0   2 1122.11 155.428   1
   2   0   5-82.1982 250.581   2
   2   0   5-92.0977 168.679   1
  -2   2   5 10.6747 181.128   1
   0  -2   5-601.541 966.699   3
   2   0   5-812.972 963.211   3
   0  -2   5 46.9752 86.2644   4
  -2   2   5-226.942 464.169   3
   0  -2   5 227.693 235.999   1
   2   0   5 297.797 193.362   4
   0  -2   8 3131.67 236.850   4
  -2   2   8 5154.15 519.912   1
   2   0   8 5490.79 960.959   3
   2   0   8 3856.36 440.388   4
   2   0   8 4327.85 477.208   1
   0  -2   8 452.187 1355.84   3
  -2   2   8 3342.31 431.237   4
   0  -2   8 4697.97 552.637   1
  -2   2   8 4668.97 818.711   3
   0  -2   8 2436.87 215.982   4
   0  -2  11 118.543 790.831   3
   0  -2  11-52.4094 422.115   1
   2   0  11 83.4376 616.669   3
  -2   2  11 10.1399 608.609   3
  -2   2  11 105.695 338.500   1
  -3   0  -6 118116. 1777.77   1
  -3   0  -3 62.2123 189.595   4
  -3   0  -3 22.6497 131.412   1
   3  -3  -3-354.176 734.563   3
  -3   0  -3-434.474 734.558   3
   0   3  -3 73.0016 214.529   1
   3  -3   0 198748. 1647.54   1
  -3   0   0 197919. 1486.19   2
   0   3   0 196995. 1460.19   1
  -3   0   0 197460. 1497.25   4
   3  -3   0 194908. 1505.49   4
   0   3   3-59.4631 250.883   3
   3  -3   3-59.8894 163.255   2
   0   3   3 148.529 211.178   4
   3  -3   3 220.531 221.831   1
   3  -3   3-55.2591 110.578   4
  -3   0   3-24.1370 99.7480   4
  -3   0   6 112395. 2185.45   1
  -3   0   6 115630. 1495.51   4
   0   3   6 110875. 1508.49   1
  -3   0   6 107460. 1353.81   4
   3  -3   6 109678. 2119.36   1
   0   3   6 113475. 2095.76   4
   3  -3   6 112692. 2240.49   2
   3  -3   6 101504. 1406.21   4
   0   3   6 117470. 2822.15   3
   3  -3   9 666.941 1379.34   3
   3  -3   9 150.368 172.975   4
   0   3   9 35.9429 233.806   1
  -3   0   9-497.156 801.273   3
   3  -3   9-13.9573 358.134   1
  -3   0   9-402.835 388.169   1
  -3   0   9 21.0157 130.245   4
  -3   0   9-27.1803 141.134   4
   0   3   9-64.3957 318.620   4
   0   3   9 58.3029 470.129   3
  -3   0  12 14920.4 1359.18   2
   0   3  12 18644.3 1734.11   3
   3  -3  12 18043.1 1867.57   3
   2  -3  -4 6.94032 833.723   3
  -2  -1  -4 85.6501 795.893   3
  -1   3  -4 86.4641 234.657   1
  -2  -1  -4 191.334 144.097   1
  -3   1  -4 96.1811 168.068   4
  -3   1  -4 186.155 176.135   1
  -2  -1  -1 7726.48 376.995   3
   2  -3  -1 7291.17 314.620   3
  -3   1  -1 7302.81 330.039   2
  -3   1  -1 7484.24 321.521   4
  -3   1  -1 7928.28 319.022   1
   3  -2  -1 7811.15 347.960   2
   1   2  -1 8282.53 375.105   1
   3  -2  -1 7490.03 307.226   4
  -1   3  -1 7449.37 365.855   1
  -2  -1  -1 6887.21 358.151   4
   2  -3  -1 7449.20 284.693   1
   3  -2   2 67669.0 914.412   4
   2  -3   2 66167.9 707.220   4
   2  -3   2 67619.4 1160.46   1
   3  -2   2 67454.0 1080.00   1
  -1   3   2 66547.6 1211.81   3
  -3   1   2 69425.4 1162.30   2
   1   2   2 70497.6 1280.97   2
   2  -3   2 68806.4 865.899   2
  -2  -1   2 69221.7 1196.54   1
   3  -2   2 67320.1 1056.51   2
   1   2   2 66228.5 1275.04   3
   1   2   2 69099.9 1166.32   4
  -2  -1   2 70640.9 1026.22   2
  -3   1   2 68896.8 885.208   4
   1   2   5 1201.81 350.162   2
  -1   3   5 1668.15 316.980   4
  -2  -1   5 392.922 876.410   3
   3  -2   5-427.877 1085.44   3
   1   2   5 1508.65 301.673   4
   1   2   5 2036.65 501.137   3
   2  -3   5 1358.75 163.220   4
  -3   1   5 1496.32 299.906   1
   3  -2   5 1731.50 310.061   1
  -3   1   5 540.595 1081.22   3
  -1   3   5 1494.19 218.716   1
  -1   3   5 1394.25 403.454   3
  -2  -1   5 1068.33 155.098   4
   1   2   5 1315.22 205.212   1
  -3   1   5 1428.74 216.668   4
   3  -2   5 1409.40 330.986   2
   2  -3   5 1439.96 309.634   2
  -2  -1   5 1206.15 143.443   4
  -2  -1   5 1677.22 329.143   1
   3  -2   5 1331.60 217.194   4
   2  -3   5 1731.38 326.957   1
  -2  -1   8 25.8404 112.115   4
  -3   1   8 166.924 278.753   1
   1   2   8 2.25077 438.553   3
  -1   3   8 337.103 257.375   1
  -1   3   8 694.241 543.226   3
  -3   1   8-33.3965 196.882   4
   3  -2   8 382.566 212.721   4
   2  -3   8-493.217 1347.71   3
   2  -3   8 207.782 334.934   1
  -2  -1   8 339.358 302.558   1
   2  -3   8 182.439 130.668   4
  -3   1   8 166.449 185.001   4
  -1   3   8 529.495 336.497   4
   1   2   8 137.815 251.641   1
   1   2   8 518.098 329.060   4
   3  -2   8-944.304 1327.47   3
   3  -2   8 354.024 350.288   1
  -3   1   8-140.196 667.759   3
  -2  -1   8 1321.97 1342.02   3
  -2  -1   8 97.3273 109.416   4
  -1   3  11 827.338 690.865   3
  -3   1  11 245.148 635.251   3
  -2  -1  11-146.126 666.240   3
   3  -2  11 10.5654 650.440   3
   2  -3  11 433.711 473.755   1
   1   2  11 197.828 588.544   3
  -3   1  11-62.9850 359.369   1
  -2  -1  11-293.797 383.933   1
   2  -3  11 849.153 832.034   3
   3  -2  11 67.3806 408.636   1
  -1  -2  -5 53.3429 914.702   3
   1  -3  -5-355.643 908.817   3
  -3   2  -5 1432.29 302.665   1
  -2   3  -5 974.526 322.110   1
  -3   2  -2 70081.4 1069.47   1
  -2   3  -2 68238.2 696.450   4
  -3   2  -2 66832.0 935.336   4
  -2   3  -2 66119.2 1160.64   1
   1  -3  -2 68181.9 1265.89   3
  -3   2  -2 65740.4 1052.24   2
  -2   3   1 6971.64 301.704   3
   3  -1   1 6723.21 306.140   1
  -2   3   1 6453.46 267.573   1
   2   1   1 6821.54 332.033   4
  -3   2   1 6699.62 298.841   4
   1  -3   1 6691.95 347.263   1
   3  -1   1 7322.57 320.371   2
   2   1   1 6415.97 329.581   3
   2   1   1 6218.49 330.172   2
   3  -1   1 6436.73 294.748   4
  -1  -2   1 6976.08 357.717   1
  -3   2   1 7045.56 339.467   2
   2   1   4 180.613 132.656   1
  -2   3   4 334.791 282.995   3
   2   1   4 391.059 255.201   2
  -3   2   4-113.145 516.346   3
   1  -3   4 37.4348 221.924   1
   2   1   4 64.3527 413.325   3
  -1  -2   4 477.227 267.080   1
   2   1   4 188.738 187.875   4
   3  -1   4 282.773 174.862   4
  -2   3   4 235.168 177.632   1
   3  -1   4 169.941 199.642   1
   3  -1   4 274.672 226.915   2
  -3   2   7 14827.2 818.868   1
  -2   3   7 15416.5 807.354   4
   1  -3   7 2963.38 1681.80   3
   3  -1   7 2074.86 1249.57   3
  -3   2   7 14785.7 724.480   4
  -2   3   7 16888.0 1181.83   3
  -1  -2   7 10656.6 335.973   4
  -1  -2   7 1937.61 1625.92   3
   3  -1   7 15154.2 729.467   4
   3  -1   7 16083.8 810.250   1
   2   1   7 15404.6 796.002   4
  -3   2   7 19445.6 1372.36   3
  -2   3   7 16311.8 751.900   1
   1  -3   7 14420.9 926.784   2
   2   1   7 14655.8 685.378   1
   1  -3   7 14274.8 906.704   1
   2   1   7 17540.1 1339.69   3
  -1  -2   7 15993.0 944.786   1
   3  -1  10 241.882 370.216   1
   2   1  10-213.368 295.817   1
  -3   2  10 254.465 248.563   4
  -2   3  10 274.666 541.377   3
  -1  -2  10-1156.79 1105.19   3
   1  -3  10 2075.61 1469.28   3
  -3   2  10 808.709 655.787   3
   1  -3  10 516.905 455.809   1
  -3   2  10 371.715 362.873   1
  -2   3  10-48.9789 308.150   1
   2   1  10 324.061 629.277   3
   3  -1  10 249.228 616.164   3
  -1  -2  10-460.948 385.193   1
  -3   3  -6 117827. 2199.26   1
  -3   3  -3 179.645 130.277   4
  -3   3  -3-53.9121 207.302   1
   0  -3  -3 45.5792 448.782   3
  -3   3   0 191626. 1212.30   3
   3   0   0 193261. 1461.90   4
  -3   3   0 189659. 1582.58   1
   3   0   0 194543. 1444.16   2
  -3   3   0 189921. 1339.13   2
   0  -3   0 188370. 1459.22   1
   0  -3   0 188779. 1489.72   3
  -3   3   0 194484. 1501.33   4
   3   0   3-89.7798 169.009   4
   3   0   3-2.68309 145.525   1
   3   0   3-301.238 613.133   3
   3   0   3-68.5526 218.794   2
  -3   3   3-26.8116 239.105   3
   0  -3   3 71.9782 229.423   1
  -3   3   6 124865. 2855.67   3
   3   0   6 118340. 2507.76   2
   3   0   6 115159. 1941.98   4
  -3   3   6 115793. 1915.06   1
   3   0   6 115515. 1775.99   1
   0  -3   6 113371. 2323.72   1
   3   0   9-336.664 635.573   3
   3   0   9 188.412 291.388   4
   3   0   9-8.47812 292.875   1
  -3   3   9-285.989 235.900   4
   0  -3   9 200.240 383.413   1
  -3   3   9 777.382 581.409   3
  -3   3   9-281.907 291.675   1
   0  -3   9-765.303 1390.00   3
  -3   3   9 51.8044 298.679   4
  -3   3  12 15717.1 1609.21   3
   3   0  12 19598.6 1872.18   3
   0  -3  12 18796.4 1873.74   3
   0   4  -4 9460.05 645.128   1
  -4   0  -4 9204.52 575.049   4
  -4   0  -4 9999.93 439.019   1
   4  -4  -1 81.1732 189.582   1
  -4   0  -1 169.500 180.123   4
  -4   0  -1-52.9718 247.810   3
   4  -4  -1 6.72584 125.038   3
  -4   0  -1 35.7684 150.659   1
  -4   0  -1 211.999 201.423   2
   0   4  -1-95.0125 196.258   1
   0   4   2 27198.1 863.476   3
   4  -4   2 27052.8 830.819   1
  -4   0   2 28108.2 757.486   2
  -4   0   2 27368.3 590.088   4
   4  -4   2 28153.4 649.297   4
   4  -4   2 26536.1 625.380   2
   4  -4   5 161.994 211.918   2
  -4   0   5-73.5669 236.852   1
   4  -4   5 360.321 290.149   1
   0   4   5 342.970 263.205   4
  -4   0   5-142.903 774.748   3
   4  -4   5-37.2107 131.936   4
   0   4   5-25.8877 92.9795   1
  -4   0   5-146.588 122.598   4
   0   4   5 3.10962 339.192   3
   4  -4   8 17785.4 1001.43   1
   0   4   8 17998.9 663.247   1
   4  -4   8 15613.5 594.172   4
  -4   0   8 14518.5 525.938   4
  -4   0   8 11440.5 535.631   4
   0   4   8 18711.7 1371.99   3
  -4   0   8 20344.6 1106.68   1
   4  -4   8 2013.98 1996.73   3
  -4   0   8 1016.38 1271.06   3
   0   4   8 16633.1 986.447   4
  -4   0  11 681.119 490.197   1
  -4   0  11-76.6905 709.339   3
   0   4  11-307.937 567.081   3
  -4   0  11-334.820 471.859   2
   4  -4  11-623.957 978.350   3
   4  -4  11-116.776 417.151   1
  -4   1  -5 6902.62 513.379   4
   3  -4  -5 1201.67 1100.90   3
  -4   1  -5 7054.60 463.899   1
  -3  -1  -5 7002.58 374.743   1
  -1   4  -5 6012.81 549.697   1
  -3  -1  -5 52.1663 1063.46   3
  -4   1  -2 3253.39 274.945   1
  -3  -1  -2 3214.81 346.039   2
   4  -3  -2-332.388 410.422   3
  -4   1  -2 3120.35 281.649   4
   3  -4  -2 2949.07 301.000   3
  -3  -1  -2 2704.84 190.313   1
  -1   4  -2 3162.01 360.160   1
  -3  -1  -2 2596.83 318.996   4
  -4   1  -2 3235.06 327.004   2
  -3  -1  -2 573.830 637.847   3
   1   3  -2 2500.17 314.720   1
   4  -3   1 9707.60 463.877   1
   1   3   1 9796.67 472.737   4
   3  -4   1 10292.1 368.281   4
  -3  -1   1 10415.3 325.746   3
  -1   4   1 9079.90 436.813   3
  -4   1   1 10225.9 423.776   2
  -3  -1   1 10190.6 350.204   4
  -3  -1   1 9690.62 366.234   2
   4  -3   1 10061.7 364.841   2
   1   3   1 9387.57 437.459   3
   1   3   1 8566.61 439.720   2
   3  -4   1 8587.92 264.226   2
  -1   4   1 10380.3 325.380   1
   3  -4   1 9800.58 472.885   1
   4  -3   1 9673.92 382.420   4
  -4   1   1 9299.02 378.213   4
   3  -4   4 2362.23 198.962   4
   1   3   4 2910.89 438.967   2
   4  -3   4 2863.21 269.971   4
  -1   4   4 2255.38 415.314   3
  -3  -1   4 2240.49 170.087   4
   1   3   4 2799.18 444.047   3
  -4   1   4 2840.42 248.197   4
   4  -3   4 2735.55 351.744   1
  -4   1   4 1128.98 829.586   3
   1   3   4 2979.91 366.833   4
   4  -3   4 2489.79 342.649   2
  -1   4   4 2396.95 189.150   1
   3  -4   4 2559.35 300.783   2
  -3  -1   4 2334.81 364.833   1
   3  -4   4 2907.74 390.445   1
  -3  -1   7 2242.57 207.684   4
  -4   1   7 671.572 1041.60   3
  -3  -1   7 2167.50 183.361   4
   3  -4   7 2442.39 229.920   4
  -3  -1   7 3659.71 517.076   1
   4  -3   7 3640.08 508.174   1
   3  -4   7 3495.48 521.206   1
  -1   4   7 2931.95 452.676   4
   1   3   7 3202.68 300.219   1
   4  -3   7 3345.75 332.139   4
   1   3   7 2429.16 420.615   4
  -3  -1   7 1160.04 1336.14   3
  -4   1   7 3013.72 332.042   4
   1   3   7 2274.87 549.771   3
  -4   1   7 3282.20 316.227   4
   3  -4   7 3167.35 495.887   2
   4  -3   7 3193.67 533.575   2
  -1   4   7 2734.98 321.154   1
   4  -3   7 400.745 1421.42   3
  -4   1   7 3721.82 478.257   1
   3  -4   7 1405.67 1289.69   3
  -1   4   7 2481.35 554.619   3
   4  -3  10 3023.27 555.846   1
  -3  -1  10 1537.06 906.418   3
  -3  -1  10 2594.45 546.451   1
   1   3  10 2557.50 764.773   3
   3  -4  10 3392.57 620.572   1
  -1   4  10 1932.26 349.624   1
  -4   1  10 1556.80 232.931   4
  -4   1  10 2599.03 749.580   3
   1   3  10 1950.65 313.827   1
   4  -3  10 4387.04 1214.84   3
  -1   4  10 3442.16 794.639   3
   3  -4  10-372.561 1379.67   3
  -4   1  10 2815.41 546.992   1
  -2   4  -6 22949.3 1047.24   1
  -4   2  -6 23253.2 920.193   1
  -4   2  -3 94189.6 1377.28   4
  -2   4  -3 95188.6 1669.87   1
  -4   2  -3 92971.7 1401.20   1
  -2  -2  -3 93649.2 1592.74   4
  -4   2  -3 92235.1 1606.38   2
   2  -4   0 19895.9 510.011   3
  -2  -2   0 20066.2 476.976   3
   2   2   0 20597.1 486.534   3
  -4   2   0 19858.5 519.659   4
  -2   4   0 20359.4 540.872   1
  -2  -2   0 19487.9 482.580   2
   2  -4   0 19730.4 545.210   1
  -4   2   0 20978.7 584.995   1
   4  -2   0 21950.6 534.939   2
   4  -2   0 21025.9 587.977   1
  -2   4   0 20012.4 518.421   3
  -2  -2   0 20115.0 543.803   4
   2   2   0 20395.6 530.869   4
  -4   2   0 20231.5 516.198   2
   2   2   0 20718.5 485.081   2
  -2  -2   3 96263.2 1693.37   1
  -2  -2   3 97074.2 1403.68   2
   4  -2   3 98141.0 1467.10   1
  -2   4   3 91705.3 1681.68   3
  -4   2   3 99142.9 1319.54   4
  -2   4   3 92880.7 1108.64   1
   2   2   3 94372.3 1874.66   3
   4  -2   3 98918.0 1346.15   4
   2  -4   3 99058.6 1249.02   2
   2  -4   3 92891.8 1652.46   1
   2   2   3 97571.1 1766.00   2
   4  -2   3 95253.4 1583.83   2
   2   2   3 101043. 1640.72   4
   2   2   6 22250.9 677.160   1
  -2  -2   6 22250.6 1036.57   1
   2  -4   6 22023.7 1041.94   1
   2   2   6 22268.1 1305.36   3
   2   2   6 23374.0 992.543   4
  -4   2   6 23556.6 795.198   4
  -2   4   6 22069.4 969.298   4
   4  -2   6 23857.7 826.362   4
   4  -2   6 3802.16 1960.73   3
  -2   4   6 23428.6 771.338   1
   2  -4   6 21894.1 980.958   2
   4  -2   6 22668.5 1085.89   2
   4  -2   6 24358.7 945.998   1
  -2   4   6 24580.3 1281.87   3
  -4   2   6 22532.9 966.355   1
   4  -2   9 22295.2 2089.53   3
  -2  -2   9 21400.4 1228.82   1
   4  -2   9 16626.4 776.331   4
   2  -4   9 20121.6 1221.17   1
  -4   2   9 18502.3 771.386   4
  -4   2   9 24825.4 1637.02   3
  -2   4   9 22386.5 1552.81   3
  -4   2   9 21703.1 1120.57   1
  -2   4   9 20074.2 878.461   1
   2  -4   9 240.705 1628.39   3
   2   2   9 16725.5 967.508   4
  -4   2   9 13636.6 731.777   4
   4  -2   9 20171.0 1048.14   1
   2   2   9 21349.0 1578.53   3
  -2   4   9 18868.9 1042.64   4
  -2  -2   9 797.853 1584.27   3
   2   2   9 19059.2 809.679   1
  -2   4  12 3829.83 991.384   3
   2  -4  12 5688.24 1265.38   3
   4  -2  12 7660.38 1324.39   3
  -4   2  12 5409.14 907.891   2
  -2  -2  12 4370.54 846.078   2
  -4   2  12 4187.73 970.273   3
  -2  -2  12 5714.40 1170.25   3
   2   2  12 4072.94 988.225   3
  -2  -2  12 3659.77 723.856   1
  -4   3  -7 3006.18 463.891   1
  -3   4  -7 2600.09 459.812   1
  -3   4  -4 1708.75 334.555   1
  -1  -3  -4 752.853 928.394   3
   1  -4  -4 205.631 894.799   3
  -4   3  -4 2477.89 348.465   1
  -3   4  -4 1917.01 206.422   4
  -4   3  -4 1455.74 219.704   4
  -4   3  -1 10193.2 386.032   4
   4  -1  -1 11109.6 391.288   4
   1  -4  -1 11341.9 459.557   3
   1  -4  -1 10450.4 332.803   1
  -4   3  -1 10737.7 481.586   1
  -3   4  -1 9666.21 280.294   2
  -1  -3  -1 11265.7 483.143   4
  -4   3  -1 10729.8 378.411   2
   3   1  -1 10897.6 390.628   2
  -3   4  -1 11912.5 492.971   1
  -1  -3  -1 11033.1 475.121   2
   4  -1  -1 11031.1 438.701   2
  -1  -3  -1 10823.6 467.200   3
  -3   4  -1 10731.7 368.299   4
   3   1  -1 11211.2 354.808   4
  -4   3   2 3548.46 299.073   4
   3   1   2 4051.15 361.828   2
  -1  -3   2 3423.56 352.317   1
   1  -4   2 3133.40 341.340   1
   4  -1   2 3133.63 311.564   2
  -4   3   2 3651.05 274.745   3
   3   1   2 4340.44 354.613   4
   4  -1   2 3230.23 284.082   4
  -3   4   2 3289.43 251.252   1
  -1  -3   2 3577.37 218.231   2
   3   1   2 3080.42 206.893   1
   4  -1   2 3452.77 284.807   1
   4  -1   2 2135.98 880.752   3
  -3   4   2 3512.08 321.792   3
   3   1   2 3851.53 389.715   3
  -3   4   5 5688.63 610.726   3
   4  -1   5 5102.14 419.449   4
  -4   3   5 6050.02 651.210   3
  -3   4   5 5367.11 401.102   1
   3   1   5 5714.37 478.960   4
   4  -1   5 6155.69 563.086   2
   3   1   5 6093.65 374.222   1
   3   1   5 6575.43 754.160   3
   4  -1   5 5707.12 436.798   1
   1  -4   5 6136.67 546.482   1
  -4   3   5 5446.24 458.664   1
  -1  -3   5 6023.33 558.461   1
   3   1   5 5699.79 580.823   2
   1  -4   8 6338.37 673.531   1
  -4   3   8 5788.27 804.773   3
   4  -1   8 5884.56 559.680   1
  -3   4   8 6638.81 844.022   3
  -4   3   8 5595.24 483.985   4
   4  -1   8 9386.41 1356.69   3
   4  -1   8 5401.54 511.187   4
  -3   4   8 5721.15 520.034   1
  -3   4   8 4867.53 561.821   4
  -1  -3   8 859.498 1496.03   3
   1  -4   8-451.064 1464.87   3
  -1  -3   8 6219.82 676.459   1
   3   1   8 4762.67 524.633   4
  -4   3   8 5274.99 501.688   4
   3   1   8 5230.57 464.347   1
   3   1   8 5446.57 846.804   3
  -4   3   8 6368.92 590.623   1
  -4   3  11 231.527 610.107   3
  -1  -3  11 651.517 475.733   1
   1  -4  11-274.927 501.840   1
   4  -1  11-348.494 628.921   3
  -4   3  11 357.176 385.086   1
   3   1  11 1103.99 685.108   3
   1  -4  11 169.877 1226.56   3
  -3   4  11 822.124 655.104   3
  -1  -3  11-590.884 1045.01   3
  -4   4  -8 18311.9 1048.90   1
  -4   4  -5 502.217 310.917   1
  -4   4  -5 78.0267 152.808   4
   0  -4  -2 29418.2 899.511   3
  -4   4  -2 29697.8 672.299   2
   4   0  -2 30185.0 624.313   4
  -4   4  -2 30671.9 868.408   1
  -4   4  -2 28389.1 635.302   4
   4   0  -2 29366.1 775.665   2
   0  -4   1-49.2750 199.842   1
  -4   4   1-158.596 167.680   2
   4   0   1 134.765 187.439   3
   4   0   1-111.630 164.286   4
  -4   4   1-133.451 178.307   1
  -4   4   1-105.178 180.086   4
   0  -4   1-127.044 171.688   3
   4   0   1-134.065 171.406   2
  -4   4   1-99.2509 133.424   3
   4   0   4 8421.80 520.454   4
  -4   4   4 7150.60 564.331   3
   4   0   4 8497.27 601.440   2
   0  -4   4 8482.12 628.948   1
   4   0   4 7685.19 415.654   1
   4   0   7-71.7006 506.448   3
  -4   4   7-151.727 262.123   1
   0  -4   7-9.58841 320.664   1
  -4   4   7 365.000 383.649   3
  -4   4   7 53.9007 242.955   4
   0  -4   7 103.841 1060.04   3
   4   0   7-39.4936 250.313   4
   4   0   7 41.3003 224.085   1
  -4   4  10 6033.91 642.426   1
   4   0  10 5856.87 578.771   1
   4   0  10 7896.83 1180.75   3
  -4   4  10 7835.69 1057.09   3
   0  -4  10 7575.08 814.983   1
  -4   4  10 6298.66 588.095   4
  -5   0  -5 95.3176 264.796   4
  -5   0  -5 327.995 190.630   1
   5  -5  -5-114.254 825.298   3
   0   5  -5-739.122 345.277   1
   0   5  -2 18735.5 771.942   1
   0   5  -2 16575.5 431.430   4
   5  -5  -2 16369.3 569.918   3
  -5   0  -2 17630.0 725.066   2
  -5   0  -2 17422.6 706.623   4
  -5   0  -2 18358.5 584.923   1
   0   5   1 199.712 214.601   2
   5  -5   1 210.144 172.364   4
   0   5   1-69.7084 214.612   3
  -5   0   1 115.706 170.266   2
  -5   0   1 85.1446 157.503   4
   5  -5   1 30.7195 241.107   1
   0   5   1-15.0100 137.166   1
   5  -5   1 124.359 131.955   2
  -5   0   1 41.2172 98.0239   3
   0   5   4 17782.5 903.006   4
  -5   0   4 18538.7 829.151   2
  -5   0   4 19752.1 577.758   4
   5  -5   4 18654.8 748.821   2
   5  -5   4 18331.0 872.646   1
   5  -5   4 20271.7 633.337   4
   0   5   4 17719.7 941.247   3
  -5   0   7-110.769 1124.13   3
   5  -5   7 502.838 318.045   1
   0   5   7 434.578 330.855   4
  -5   0   7 77.2952 272.399   2
   5  -5   7 133.744 291.621   2
   0   5   7-129.865 388.851   3
  -5   0   7-67.0641 129.438   4
   0   5   7-9.85572 95.9037   1
   5  -5   7 1016.18 1460.52   3
   5  -5   7-171.076 157.958   4
  -5   0   7-55.2630 275.565   1
  -5   0  10 16205.6 1145.68   1
  -5   0  10 15893.3 1233.92   2
   0   5  10 15539.5 1417.61   3
   5  -5  10 11939.7 970.232   1
  -1   5  -6 18270.4 1010.94   1
  -5   1  -6 19149.3 895.377   4
  -5   1  -6 19142.0 764.476   1
  -4  -1  -6 18103.3 625.154   1
  -5   1  -3 34691.0 1062.74   2
   1   4  -3 34039.6 1093.26   1
  -4  -1  -3 34984.9 1059.30   4
  -5   1  -3 34083.6 827.934   1
  -4  -1  -3 33419.5 1115.88   2
  -4  -1  -3 35309.4 662.248   1
  -1   5  -3 33145.1 1078.85   1
  -5   1  -3 32083.6 944.378   4
  -4  -1   0 28628.9 571.089   3
   5  -4   0 27475.2 780.079   1
  -5   1   0 27247.1 705.951   4
   5  -4   0 27647.4 676.110   2
   5  -4   0 27521.1 520.585   3
   4  -5   0 27698.8 773.669   1
  -1   5   0 27500.7 735.192   3
  -5   1   0 27655.5 702.824   2
  -4  -1   0 26823.3 707.807   4
   4  -5   0 27653.0 641.495   3
  -4  -1   0 28589.9 696.627   2
   1   4   0 27395.6 692.106   1
  -1   5   0 27623.3 715.955   1
   4  -5   0 27217.7 622.463   2
   5  -4   0 28515.8 727.411   4
   1   4   0 29946.3 744.160   4
   1   4   0 28571.1 617.303   2
   1   4   0 28519.2 712.999   3
   1   4   3 101561. 1816.80   4
   4  -5   3 95558.3 1788.17   1
  -4  -1   3 99915.2 1080.95   4
  -5   1   3 98340.7 1714.69   2
   4  -5   3 101934. 1203.30   4
   5  -4   3 98097.8 1337.26   4
   1   4   3 100239. 1935.94   2
  -5   1   3 101338. 1309.18   4
  -1   5   3 94621.3 1828.77   3
   4  -5   3 100309. 1357.14   2
   5  -4   3 102847. 1554.55   2
   5  -4   3 95582.5 1707.96   1
  -4  -1   3 98891.4 1567.01   2
   1   4   3 94424.0 1874.53   3
  -1   5   6 12874.8 801.424   4
   1   4   6 11710.1 785.237   4
  -4  -1   6 10385.5 372.498   4
  -5   1   6 12414.1 524.733   4
  -1   5   6 12238.7 447.100   1
  -5   1   6 12175.0 795.912   1
  -4  -1   6 12273.4 793.088   2
   4  -5   6 13005.9 828.728   1
  -4  -1   6 12706.4 805.834   1
   1   4   6 10512.9 354.275   1
  -5   1   6-475.805 1003.24   3
   5  -4   6 11383.7 799.974   2
   4  -5   6 12299.2 469.419   4
   5  -4   6 12410.8 775.013   1
  -1   5   6 11343.8 916.404   3
   1   4   6 11573.3 955.240   3
   5  -4   6 1929.85 1267.00   3
   5  -4   6 11447.9 550.512   4
   4  -5   6 11894.8 736.495   2
  -4  -1   6 1675.11 1111.36   3
   4  -5   9 24288.6 1289.30   1
   5  -4   9 23251.8 1201.86   1
  -5   1   9 15331.2 600.920   4
   4  -5   9 1188.97 1871.55   3
  -5   1   9 21798.0 1359.40   2
  -1   5   9 19216.9 703.700   1
  -1   5   9 25571.3 1643.52   3
   5  -4   9 17587.3 712.843   4
  -4  -1   9 27346.2 1466.98   2
  -5   1   9 20029.9 743.453   4
   1   4   9 26056.5 1700.53   3
  -5   1   9 34380.1 2119.33   3
  -5   1   9 28452.7 1377.13   1
  -4  -1   9 28241.3 1412.94   1
   5  -4  12 3430.62 1065.69   3
  -5   1  12 5642.09 1094.53   3
   1   4  12 4477.26 1045.36   3
   4  -5  12 5080.99 1390.05   3
  -1   5  12 5379.83 1060.95   3
  -4  -1  12 2713.21 654.199   1
  -4  -1  12 5825.32 1167.88   3
  -5   1  12 3020.01 760.540   2
  -4  -1  12 4982.80 877.035   2
  -5   2  -7 16405.2 837.249   1
  -2   5  -7 15875.8 986.193   1
  -3  -2  -4 2468.12 374.945   4
  -5   2  -4 1947.49 291.876   4
  -5   2  -4 1750.94 275.592   1
  -3  -2  -4 1701.74 154.807   1
  -5   2  -4 1914.66 335.259   2
  -2   5  -4 1603.32 353.696   1
   5  -3  -1 7185.64 380.480   4
  -2   5  -1 6200.30 413.272   1
  -3  -2  -1 6800.87 434.326   4
   2   3  -1 6544.84 347.136   3
  -5   2  -1 7374.60 403.560   2
  -3  -2  -1 7439.77 424.670   3
   2   3  -1 6661.67 279.738   2
   2   3  -1 7096.84 321.222   4
   3  -5  -1 6302.34 352.022   1
  -3  -2  -1 6754.90 413.445   2
  -5   2  -1 6489.59 391.067   1
   3  -5  -1 7091.68 373.220   3
  -5   2  -1 6793.20 384.283   4
   2   3   2 75696.1 1401.00   4
   3  -5   2 76491.4 967.924   4
   3  -5   2 77980.4 807.362   2
  -5   2   2 76565.0 1147.55   4
   5  -3   2 74024.0 1314.42   1
  -3  -2   2 77057.6 1107.41   2
   5  -3   2 74303.1 1168.77   4
  -3  -2   2 75081.6 1431.23   1
  -3  -2   2 75305.8 895.149   4
  -5   2   2 78090.3 1388.46   2
  -2   5   2 76850.8 1367.99   3
   3  -5   2 74371.2 1440.32   1
   2   3   2 74561.6 1444.56   3
  -2   5   2 74226.6 925.442   1
   5  -3   2 79389.2 1252.53   2
   2   3   2 74709.1 1437.52   2
  -2   5   5 7248.04 691.771   3
   3  -5   5 8340.44 537.452   2
   5  -3   5 8329.67 495.944   4
   2   3   5 7456.19 602.869   4
   5  -3   5 8476.05 645.392   2
   3  -5   5 7619.75 610.304   1
  -5   2   5 8873.64 472.237   4
   2   3   5 6510.64 276.314   1
  -3  -2   5 8727.47 671.268   1
   5  -3   5 7956.48 565.106   1
   2   3   5 8483.80 763.656   3
  -3  -2   5 8387.91 578.372   2
  -2   5   5 8305.18 390.483   1
   3  -5   5 6661.20 287.130   4
   2   3   5 8551.43 708.521   2
   2   3   8 13917.1 898.250   4
  -5   2   8 14605.0 670.628   4
  -3  -2   8 18127.4 1089.57   1
  -2   5   8 16163.6 1250.17   3
   2   3   8 16443.4 1298.97   3
  -5   2   8 20271.7 1473.42   3
   3  -5   8 14951.2 990.012   1
  -5   2   8 15368.7 950.873   1
   3  -5   8-664.567 1489.36   3
   5  -3   8 14843.6 910.560   1
   5  -3   8 14829.2 718.681   4
  -2   5   8 16425.9 708.513   1
   5  -3   8 1145.98 1510.18   3
  -2   5   8 15853.9 971.137   4
  -3  -2   8-65.9786 1485.19   3
   2   3   8 12546.6 549.596   1
  -5   2   8 13472.8 689.343   4
   3  -5  11 1032.83 564.501   1
  -3  -2  11 1096.70 534.354   2
   3  -5  11 763.128 1354.00   3
  -5   2  11 1052.39 546.200   2
  -3  -2  11 853.851 898.231   3
  -3  -2  11 1097.35 519.543   1
  -5   2  11 939.026 492.103   1
  -2   5  11 417.960 602.353   3
   5  -3  11 782.056 415.543   1
   2   3  11 660.700 733.126   3
   5  -3  11-311.753 839.191   3
  -5   2  11-65.2651 577.910   3
  -5   3  -8 16227.3 928.712   1
  -5   3  -5 8767.41 584.727   1
   2  -5  -5 839.046 1524.80   3
  -3   5  -5 8124.58 630.792   1
  -3   5  -5 7386.41 327.168   4
  -2  -3  -5 1491.58 1520.98   3
  -5   3  -5 7569.60 496.747   4
   5  -2  -2 82467.0 1193.60   4
  -5   3  -2 81935.7 1315.30   2
  -2  -3  -2 73769.5 1527.27   2
  -3   5  -2 82994.4 1482.98   1
   5  -2  -2 79151.1 1389.02   2
  -3   5  -2 79610.6 971.899   4
   3   2  -2 79836.5 884.120   4
   2  -5  -2 81458.4 959.876   1
  -2  -3  -2 82410.1 1498.34   4
  -3   5  -2 83711.6 847.934   2
  -2  -3  -2 75878.8 1497.50   3
  -5   3  -2 80359.6 1224.68   4
   2  -5  -2 81364.5 1426.76   3
   3   2  -2 82285.8 1156.23   2
  -5   3  -2 83311.3 1364.66   1
  -2  -3   1 7649.99 347.984   4
   3   2   1 8644.27 440.617   2
   3   2   1 8037.03 416.004   3
  -2  -3   1 7261.17 433.548   1
   2  -5   1 7239.82 420.707   3
  -3   5   1 8194.55 394.638   1
   3   2   1 8561.28 442.716   4
  -2  -3   1 7972.78 386.831   3
  -5   3   1 7859.57 432.401   2
  -3   5   1 8106.70 402.424   3
   5  -2   1 7448.10 384.063   4
   5  -2   1 7814.76 442.330   1
  -5   3   1 8268.07 412.061   4
  -2  -3   1 7182.89 297.774   2
   5  -2   1 8045.35 400.323   2
   2  -5   1 7623.44 469.247   1
  -5   3   1 7813.39 450.956   1
   2  -5   4 1604.88 364.577   1
  -5   3   4 1326.17 337.872   3
   5  -2   4 1792.84 281.845   4
  -3   5   4 1639.95 236.369   1
   3   2   4 1728.72 421.232   3
   5  -2   4 1343.49 310.940   2
  -5   3   4 1379.41 228.531   4
  -2  -3   4 1297.13 345.499   1
   3   2   4 1085.79 146.590   1
  -2  -3   4 1403.71 268.173   2
   2  -5   4 1429.17 232.954   2
   5  -2   4 1163.55 279.413   1
  -3   5   4 1350.95 345.727   3
   3   2   4 1393.96 357.188   2
   3   2   4 1731.54 332.322   4
   5  -2   4 1465.59 1227.64   3
   2  -5   7 16762.0 905.511   2
  -3   5   7 15187.9 915.536   4
   3   2   7 15380.3 883.010   4
   3   2   7 17821.9 1274.28   3
   5  -2   7 16528.7 846.608   1
   2  -5   7 14946.1 955.854   1
   3   2   7 15903.8 619.440   1
  -5   3   7 16810.5 904.110   1
  -2  -3   7 16599.8 1024.08   1
   5  -2   7 2161.00 1201.95   3
  -5   3   7 17366.9 763.098   4
   5  -2   7 17014.0 789.283   4
   2  -5   7 2587.88 1498.74   3
  -3   5   7 17877.7 1210.10   3
  -3   5   7 17442.3 728.157   1
  -5   3   7 17283.6 1180.14   3
   2  -5  10 7385.92 867.309   1
   2  -5  10 2179.68 1802.79   3
   3   2  10 4728.31 415.271   1
   5  -2  10 5281.03 611.419   1
  -2  -3  10 6721.48 812.349   2
  -3   5  10 7038.83 996.068   3
   3   2  10 6246.23 1051.07   3
  -5   3  10 5607.78 946.650   3
  -5   3  10 4830.95 465.639   4
  -2  -3  10 7900.33 861.842   1
  -2  -3  10-61.2846 1563.05   3
   5  -2  10 6861.93 1168.44   3
  -3   5  10 6438.37 563.312   1
  -5   3  10 6427.35 720.695   1
  -5   4  -6 12988.6 795.033   1
  -4   5  -6 13320.9 836.635   1
  -5   4  -6 12817.0 622.370   4
  -5   4  -3 98615.2 1555.85   2
   4   1  -3 96688.0 1080.44   4
  -4   5  -3 100297. 1374.78   2
  -5   4  -3 99108.1 1681.62   1
  -4   5  -3 96516.8 1166.44   4
  -4   5  -3 99083.8 1764.24   1
   1  -5  -3 94196.1 1872.45   3
  -5   4  -3 95982.1 1371.45   4
  -1  -4  -3 96458.9 1957.71   3
   5  -1  -3 98090.1 1315.97   4
  -4   5   0 23258.3 576.009   2
   1  -5   0 23858.5 657.130   1
   4   1   0 25399.0 535.734   3
  -5   4   0 24909.9 649.942   2
   4   1   0 24725.4 641.199   2
  -4   5   0 24694.3 681.774   4
   5  -1   0 24487.4 651.909   2
  -1  -4   0 24291.2 572.050   2
  -5   4   0 23407.3 660.550   4
  -4   5   0 23479.4 714.504   1
   1  -5   0 21995.0 640.380   3
  -1  -4   0 23589.7 644.735   1
  -5   4   0 24682.2 745.873   1
  -1  -4   0 25415.6 673.175   3
   5  -1   0 24773.7 663.411   4
   4   1   0 23704.6 656.682   4
  -4   5   0 24042.4 601.439   3
  -5   4   3 33968.3 927.576   4
   4   1   3 31497.7 662.815   1
   1  -5   3 31776.3 1088.15   1
   4   1   3 34061.4 1184.82   3
   5  -1   3 33469.3 835.007   1
  -1  -4   3 30696.1 1072.13   1
  -5   4   3 32113.1 911.258   3
   4   1   3 33858.3 1091.02   2
   5  -1   3 36829.7 1082.20   2
  -4   5   3 30052.6 952.107   3
  -4   5   3 33127.9 827.046   1
   5  -1   3 32473.7 931.480   4
  -1  -4   3 32712.2 714.599   2
   4   1   3 32942.7 987.518   4
  -5   4   6 17660.2 845.842   1
   4   1   6 17020.0 849.851   4
   4   1   6 17156.8 635.936   1
   1  -5   6 18404.8 862.822   2
   1  -5   6 16314.3 945.463   1
  -4   5   6 17660.2 1059.98   3
   5  -1   6 18025.2 829.017   4
   4   1   6 19717.1 1287.94   3
  -1  -4   6 16591.8 973.729   1
  -5   4   6 18666.2 820.879   4
   5  -1   6 16447.1 1008.23   2
   5  -1   6 17765.7 779.391   1
  -4   5   6 18115.8 752.923   1
  -5   4   6 18462.1 1079.77   3
  -1  -4   9 18985.5 1212.46   1
  -5   4   9 16310.6 848.264   4
   4   1   9 14742.4 926.285   4
   5  -1   9 15136.8 871.838   1
  -4   5   9 19838.6 933.621   1
   4   1   9 20152.1 1588.10   3
   5  -1   9 13291.7 812.982   4
  -5   4   9 17966.7 1002.03   1
  -4   5   9 20087.2 1447.45   3
  -5   4   9 20455.7 1438.19   3
   5  -1   9 19987.9 1636.13   3
  -4   5   9 14660.5 944.882   4
  -5   4   9 14469.8 892.843   4
   1  -5   9 18458.9 1200.26   1
   4   1   9 15732.7 731.794   1
  -5   4  12 2802.35 758.653   2
   1  -5  12 1511.79 603.648   2
  -1  -4  12 1587.19 597.185   1
   1  -5  12 1051.77 1448.16   3
   1  -5  12 1484.02 666.782   1
  -1  -4  12 3249.83 1249.84   3
   4   1  12 3710.22 1007.84   3
  -4   5  12 2522.18 836.342   3
   5  -1  12 3431.80 1026.90   3
  -1  -4  12 206.681 488.086   2
  -5   4  12 1496.14 783.481   3
  -5   5  -7 401.293 328.885   1
  -5   5  -4 17183.9 606.574   4
  -5   5  -4 17491.6 826.704   1
  -5   5  -1 136.799 160.809   4
   5   0  -1 69.9206 151.349   4
   5   0  -1 89.2750 168.183   2
   0  -5  -1-0.60888 147.117   1
  -5   5  -1 131.358 245.775   1
   0  -5  -1 88.0122 197.325   3
  -5   5  -1 57.3721 136.687   2
  -5   5   2 18155.5 660.757   1
   5   0   2 18586.0 741.519   2
   5   0   2 16457.8 665.316   4
   5   0   2 18231.6 770.770   3
  -5   5   2 16930.0 672.109   4
  -5   5   2 16503.5 558.991   3
   5   0   2 15781.0 554.338   1
   0  -5   2 16975.7 747.272   1
   5   0   5 31.7909 184.881   1
  -5   5   5 131.614 282.447   3
   5   0   5-64.0744 288.150   2
   0  -5   5-14.5000 325.654   1
   5   0   5 185.955 223.678   4
   5   0   8 2697.44 708.003   3
  -5   5   8 1405.67 407.867   4
   5   0   8 1721.94 343.418   1
  -5   5   8 2827.47 665.409   3
  -5   5   8 1844.96 378.653   1
  -5   5   8 1892.35 372.321   4
   0  -5   8 2212.50 476.507   2
   5   0   8 1975.57 408.633   4
   0  -5   8 2133.50 499.251   1
   0  -5  11-41.8705 484.305   1
   5   0  11 561.044 647.914   3
  -5   5  11-147.267 558.764   3
   0  -5  11-271.935 1878.63   3
   0  -5  11-286.488 428.015   2
   0   6  -6 46577.6 1694.24   1
  -6   0  -6 44976.5 1480.13   4
   6  -6  -3 189.270 240.748   3
   0   6  -3-217.894 301.254   1
  -6   0  -3-108.549 838.860   3
  -6   0  -3-38.0660 271.260   2
  -6   0  -3 107.470 175.806   1
   0   6  -3-17.2669 78.8864   4
  -6   0  -3-79.7365 257.721   4
  -6   0   0 27000.7 802.715   2
   0   6   0 26760.1 820.899   3
   0   6   0 27276.8 809.396   1
   0   6   0 30467.0 691.890   2
   6  -6   0 27362.1 825.485   4
   6  -6   0 27091.7 669.075   3
  -6   0   0 26357.9 821.881   4
   6  -6   0 28119.0 765.900   2
   6  -6   0 30170.9 954.140   1
  -6   0   0 28664.4 590.823   3
  -6   0   3 51.1563 141.836   4
   0   6   3 43.9373 266.193   4
   0   6   3 46.7613 259.581   3
  -6   0   3-93.6218 208.951   2
   6  -6   3 132.708 158.470   4
   6  -6   3-189.738 289.358   1
   6  -6   3-30.7756 154.941   2
   0   6   6 33121.2 1551.30   3
   0   6   6 31000.5 1313.45   4
   6  -6   6 32560.2 892.320   4
  -6   0   6 36019.6 1411.83   1
   6  -6   6 32070.2 1185.20   2
   6  -6   6 32260.0 1313.37   1
  -6   0   6 31548.3 1298.55   2
  -6   0   6 30121.5 763.999   4
  -6   0   9 546.116 408.463   2
   0   6   9 477.174 589.897   3
   6  -6   9-96.4751 172.384   4
   6  -6   9 867.000 505.887   1
  -6   0   9 211.930 113.461   4
  -6   0   9 98.9550 984.321   3
  -6   0   9-666.214 375.912   1
   6  -6   9 387.274 1793.54   3
  -6   0  12 17543.3 1697.56   3
   0   6  12 19398.4 1791.51   3
  -6   0  12 15448.4 1272.19   1
  -6   0  12 15261.3 1367.04   2
  -6   1  -7 16355.3 762.457   1
  -5  -1  -4 958.490 191.416   1
  -5  -1  -4 1230.00 343.868   2
  -5  -1  -4 1262.79 1038.33   3
  -6   1  -4 851.529 282.600   4
  -6   1  -4 1509.29 264.503   1
  -5  -1  -4 946.586 299.055   4
   1   5  -4 926.076 334.391   1
   6  -5  -4-295.259 882.592   3
   5  -6  -4-393.877 606.850   3
  -6   1  -4 1135.53 362.311   2
  -1   6  -4 1183.50 334.090   1
   6  -5  -1 127185. 1718.92   2
  -5  -1  -1 119391. 1576.60   3
  -5  -1  -1 121044. 1754.01   2
   6  -5  -1 123321. 1781.13   1
  -6   1  -1 121397. 1661.48   1
   1   5  -1 123711. 1086.57   2
   6  -5  -1 123642. 1153.23   3
   5  -6  -1 125339. 1717.73   1
   1   5  -1 122162. 1659.46   3
  -6   1  -1 122256. 1718.12   2
   1   5  -1 119019. 1799.06   1
  -1   6  -1 118993. 1709.39   3
  -6   1  -1 124993. 1751.46   4
   5  -6  -1 121751. 1421.08   3
  -5  -1  -1 119704. 1775.18   4
  -1   6  -1 121154. 1781.09   1
   1   5  -1 124511. 1502.01   4
   6  -5  -1 126956. 1732.49   4
  -6   1   2 1225.23 212.925   4
  -5  -1   2 1416.86 238.341   2
   5  -6   2 1123.17 199.437   4
   1   5   2 1833.15 321.315   2
   6  -5   2 1271.80 301.491   1
   6  -5   2 1501.43 232.224   2
   1   5   2 1532.87 314.983   4
  -5  -1   2 1289.52 205.612   4
   5  -6   2 1414.83 349.847   1
   6  -5   2 939.659 221.821   4
  -6   1   2 1326.28 262.743   2
   5  -6   2 1289.48 182.592   2
  -1   6   2 2248.56 383.108   3
   1   5   2 1108.80 298.439   3
  -1   6   2 1810.49 203.241   1
   6  -5   5 14586.3 764.811   2
  -5  -1   5 13866.3 779.835   2
  -1   6   5 13591.3 923.994   3
  -5  -1   5 13766.2 835.064   1
   6  -5   5 13085.1 783.656   1
   6  -5   5 14650.8 610.333   4
  -6   1   5 12643.0 790.787   2
  -6   1   5 13516.8 545.741   4
   5  -6   5 13419.4 509.583   4
  -5  -1   5 12946.7 434.333   4
   1   5   5 13631.7 919.856   2
   1   5   5 11851.1 791.032   4
   5  -6   5 12996.9 673.929   2
   5  -6   5 15165.1 866.519   1
   1   5   5 13669.7 923.413   3
  -1   6   5 14813.8 850.426   4
  -6   1   8 146.351 842.647   3
  -6   1   8 312.800 187.678   4
   6  -5   8 1690.10 470.812   1
  -6   1   8 494.219 323.947   1
  -6   1   8 578.153 197.823   4
  -1   6   8 891.563 509.010   3
  -1   6   8 466.661 131.778   1
   5  -6   8 346.403 361.301   1
  -1   6   8 247.899 122.462   1
  -6   1   8 748.991 401.246   2
   6  -5   8 948.225 256.732   4
  -5  -1   8 454.359 323.664   1
  -5  -1   8 283.535 92.1535   4
   5  -6   8 310.344 142.602   4
  -5  -1   8 849.423 377.343   2
  -5  -1   8 142.379 62.4089   4
   5  -6   8-288.725 1398.61   3
  -5  -1   8 1827.53 1528.26   3
   6  -5   8-981.509 1568.91   3
   1   5   8 615.719 477.134   3
  -6   1  11 1558.80 634.339   2
  -1   6  11 1668.32 748.581   3
   1   5  11 1314.91 843.238   3
  -5  -1  11 1502.75 535.548   2
  -5  -1  11 1206.87 548.682   1
   5  -6  11-900.161 1565.99   3
   6  -5  11 1349.03 1073.85   3
  -6   1  11 1389.93 535.396   1
  -6   1  11 3473.11 886.634   3
   5  -6  11 1978.40 558.624   1
  -5  -1  11 2016.73 889.568   3
   6  -5  11 1282.65 531.328   1
  -6   2  -8 480.974 314.981   1
  -6   2  -5 17096.2 737.780   1
  -6   2  -5 16640.9 802.995   4
  -4  -2  -5 15775.8 460.287   1
  -2   6  -5 16967.5 931.893   1
  -4  -2  -2 19105.1 502.950   1
  -6   2  -2 17988.1 668.971   1
   2   4  -2 18324.5 471.729   4
   4  -6  -2 18640.5 686.265   3
   2   4  -2 19772.0 806.676   1
   6  -4  -2 19932.8 704.262   4
  -2   6  -2 18297.4 493.992   4
  -4  -2  -2 19359.2 828.445   4
  -4  -2  -2 19599.8 804.968   3
  -6   2  -2 18712.6 710.956   4
  -4  -2  -2 17198.5 747.768   2
  -6   2  -2 18984.3 737.904   2
  -2   6  -2 20148.0 823.047   1
   2   4  -2 18630.8 503.083   2
   4  -6  -2 18832.2 619.396   1
   6  -4   1 19113.4 732.266   1
  -4  -2   1 18328.7 578.581   2
   4  -6   1 16937.2 737.486   1
   2   4   1 18006.3 689.248   4
  -6   2   1 19313.5 703.922   2
   6  -4   1 18641.3 619.208   2
   2   4   1 19022.5 690.908   3
   2   4   1 18683.5 671.197   2
  -2   6   1 18332.2 567.925   1
  -4  -2   1 18163.0 584.066   4
  -6   2   1 19915.2 641.781   4
  -4  -2   1 19962.5 547.555   3
   6  -4   1 20560.6 676.728   4
  -2   6   1 18611.7 679.226   3
   4  -6   1 19110.7 441.738   2
   4  -6   1 19349.7 683.344   3
  -4  -2   4 9082.62 663.470   1
   2   4   4 9673.50 648.293   4
   6  -4   4 9752.10 515.726   4
   6  -4   4 11593.7 651.092   2
  -6   2   4 11022.8 509.416   4
   4  -6   4 10211.8 397.022   4
  -2   6   4 10391.6 713.736   3
  -4  -2   4 10695.9 602.804   2
   4  -6   4 10140.7 703.954   1
  -2   6   4 9601.57 370.757   1
   2   4   4 10433.8 723.947   2
   6  -4   4 10953.3 658.024   1
   2   4   4 10732.7 782.742   3
  -4  -2   4 9053.17 327.436   4
  -6   2   4 10816.9 685.305   2
   4  -6   4 10108.4 497.303   2
  -2   6   7 18662.3 1030.23   4
   2   4   7 17855.1 1261.99   3
   2   4   7 16770.0 995.111   4
   4  -6   7 13276.6 419.255   4
  -4  -2   7 18965.1 1042.58   2
   4  -6   7 18694.3 1069.80   1
   4  -6   7 17539.8 937.206   2
  -2   6   7 15473.0 582.648   1
   6  -4   7 17509.1 962.150   1
  -6   2   7 16419.6 1057.12   2
  -4  -2   7 1268.68 1249.38   3
   6  -4   7 2454.47 1779.27   3
  -6   2   7 19066.1 736.990   4
  -4  -2   7 18234.3 1077.56   1
   6  -4   7 16131.5 730.175   4
  -6   2   7 17569.9 996.123   1
  -2   6   7 18207.9 616.050   1
  -2   6   7 17907.2 1200.43   3
  -6   2   7 11430.2 1199.00   3
  -2   6  10 1824.78 670.779   3
  -6   2  10-329.641 421.393   1
  -6   2  10 658.229 213.957   4
  -6   2  10 1869.75 671.666   3
  -6   2  10 1343.18 552.076   2
  -4  -2  10 1100.54 460.017   1
  -4  -2  10 1066.53 519.103   2
   4  -6  10 611.112 486.197   1
   2   4  10 1033.85 661.424   3
   6  -4  10 1117.60 453.172   1
   6  -4  10 3104.18 1263.50   3
  -4  -2  10-682.442 1290.94   3
   4  -6  10 998.734 1881.77   3
  -6   3  -6 37533.1 1207.10   1
  -3   6  -6 36963.6 1423.56   1
  -6   3  -6 39042.9 1208.20   4
  -3   6  -3 12075.5 699.322   1
  -6   3  -3 11117.6 561.139   4
  -6   3  -3 11538.7 634.492   2
  -6   3  -3 11818.8 594.076   1
   3   3  -3 11094.1 331.995   4
  -3  -3  -3 12078.5 674.875   4
   3  -6  -3 11870.3 685.266   3
  -3  -3  -3 13601.4 874.219   3
  -3   6  -3 11714.0 377.120   4
  -3  -3   0 257842. 2108.17   2
  -6   3   0 262360. 2490.82   1
  -3  -3   0 258120. 2324.56   4
   3  -6   0 257512. 2348.34   1
   6  -3   0 263082. 2519.06   1
  -3   6   0 256500. 2217.31   3
   3   3   0 265691. 2299.85   4
   6  -3   0 263935. 2252.88   2
   3   3   0 263349. 2083.44   3
  -6   3   0 259946. 2225.17   2
   3  -6   0 257935. 2240.72   3
  -6   3   0 262091. 2264.07   4
  -3  -3   0 258622. 2061.29   3
  -3   6   0 258830. 2339.58   1
   3   3   0 256853. 2082.40   2
   6  -3   3 11931.4 620.060   1
  -6   3   3 11967.2 678.377   2
  -6   3   3 11183.1 540.826   4
  -3  -3   3 10882.9 341.152   4
   6  -3   3 11981.3 619.539   2
  -3  -3   3 12193.0 512.277   2
   3   3   3 11063.4 683.684   4
   6  -3   3 10924.5 539.356   4
   3  -6   3 11882.7 682.224   1
  -6   3   3 12663.0 596.607   3
  -3   6   3 11834.5 450.311   1
  -3   6   3 11538.3 649.146   3
  -3  -3   3 11225.8 690.909   1
   3   3   3 11737.2 692.213   2
   3   3   3 13037.5 749.161   3
   3  -6   3 11910.8 390.668   2
  -3  -3   6 38024.8 1281.20   2
   3  -6   6 39198.5 1452.16   1
  -3   6   6 37451.2 940.166   1
  -3   6   6 41182.3 945.658   1
   3  -6   6 40374.0 1206.41   2
  -6   3   6 39490.7 1084.47   4
  -3  -3   6 38952.3 1455.36   1
   3   3   6 38675.4 1361.77   4
  -6   3   6 40787.4 1364.59   1
   6  -3   6 39392.3 1132.64   4
  -6   3   6 49607.7 1849.46   3
  -3   6   6 40420.2 1611.26   3
   3   3   6 39500.4 1713.80   3
   6  -3   6 38427.9 1255.19   1
   6  -3   6 37029.3 1421.00   2
   3   3   9 789.301 178.086   1
   3  -6   9 884.220 520.395   1
   3  -6   9-314.477 1723.72   3
  -3   6   9 1280.63 296.308   1
  -6   3   9 1188.87 458.009   1
  -6   3   9 732.151 548.031   3
  -6   3   9 897.885 331.116   4
  -3  -3   9-752.456 1628.94   3
  -3  -3   9 1138.02 504.953   1
   3   3   9 1157.69 650.432   3
  -6   3   9 1023.88 302.043   4
   6  -3   9 1721.21 451.251   1
  -3   6   9 623.121 284.145   1
  -3   6   9 941.698 561.481   3
   6  -3   9 811.716 313.989   4
   6  -3   9 1190.13 895.707   3
  -6   3   9 659.249 418.868   2
  -3  -3   9 1425.44 454.470   2
   3  -6  12 9906.15 1055.08   1
  -6   3  12 8821.83 1145.60   2
  -3  -3  12 13546.4 1830.64   3
  -3   6  12 11577.1 1415.62   3
   6  -3  12 12296.6 1598.00   3
   3   3  12 12007.8 1471.61   3
  -3  -3  12 9497.01 1068.64   1
  -6   3  12 12165.1 1409.78   3
  -3  -3  12 7534.09 992.928   2
  -6   4  -7 18987.5 841.136   4
  -4   6  -7 17808.7 1062.49   1
  -6   4  -7 17404.2 933.415   1
  -4   6  -4 10991.1 704.889   1
  -6   4  -4 10122.2 546.386   4
  -4   6  -4 11059.3 417.782   4
   2  -6  -4 11261.0 841.080   3
  -6   4  -4 10939.8 627.994   1
  -6   4  -4 11591.4 667.666   2
   4   2  -1 19471.0 590.838   2
  -4   6  -1 17669.8 580.731   4
  -2  -4  -1 18810.3 532.812   1
   2  -6  -1 18503.2 569.184   1
  -6   4  -1 18659.6 631.838   4
  -4   6  -1 17065.6 422.104   2
  -2  -4  -1 18530.6 680.444   2
   6  -2  -1 19686.8 650.363   4
   6  -2  -1 20039.7 695.255   2
   4   2  -1 19162.1 573.359   4
   2  -6  -1 18397.4 660.408   3
  -2  -4  -1 16827.1 651.404   3
   4   2  -1 18754.8 522.703   3
  -2  -4  -1 17521.4 715.650   4
  -6   4  -1 18732.4 617.365   2
  -6   4  -1 16825.3 691.752   1
  -4   6  -1 16988.8 696.310   1
   6  -2   2 18231.8 699.914   2
  -6   4   2 19037.7 517.882   3
  -6   4   2 19251.1 731.806   1
  -6   4   2 18754.0 675.616   4
  -2  -4   2 19439.4 810.573   1
   4   2   2 19801.0 776.910   2
  -2  -4   2 18141.8 488.791   4
   4   2   2 19614.2 762.167   4
   6  -2   2 18123.1 677.555   4
  -4   6   2 17681.6 613.071   1
   2  -6   2 18459.4 793.718   1
   6  -2   2 18509.1 690.184   1
  -2  -4   2 17766.1 476.906   2
  -6   4   2 18883.0 771.680   2
  -4   6   2 18218.4 674.951   3
   4   2   2 18603.9 763.892   3
   6  -2   5 15383.0 885.722   2
  -6   4   5 15960.6 895.695   3
   4   2   5 14974.8 948.346   2
  -2  -4   5 14962.1 896.845   1
   4   2   5 12984.7 450.266   1
   4   2   5 16579.6 845.422   4
   2  -6   5 15018.6 642.454   2
  -2  -4   5 15820.5 719.993   2
   2  -6   5 15240.9 891.897   1
   4   2   5 15737.4 1029.11   3
  -4   6   5 15719.1 652.419   1
   6  -2   5 16669.7 750.634   1
   6  -2   5 17328.7 774.691   4
  -6   4   5 14878.6 694.065   4
  -4   6   5 15090.8 908.720   3
  -4   6   8 323.687 327.384   4
  -6   4   8 354.969 398.779   3
  -2  -4   8 1039.82 433.848   1
   6  -2   8 419.905 288.943   4
  -6   4   8 728.094 272.077   4
  -4   6   8 847.165 511.242   3
   6  -2   8 428.123 320.714   1
   4   2   8 133.995 440.235   3
  -2  -4   8 1226.62 1336.27   3
   2  -6   8-501.775 1411.51   3
   4   2   8 175.332 318.044   4
   2  -6   8 753.485 358.939   2
   2  -6   8 120.839 391.869   1
  -6   4   8 185.022 313.799   1
   6  -2   8 196.433 733.027   3
  -2  -4   8 644.457 345.895   2
  -4   6   8 55.9989 236.261   1
   4   2   8 313.977 188.229   1
   2  -6  11 1926.00 1975.70   3
  -6   4  11 2532.35 766.400   3
   2  -6  11 1061.89 543.676   1
  -6   4  11 2488.12 550.227   1
  -2  -4  11 1469.35 582.963   1
  -6   4  11 2070.18 701.939   2
   4   2  11 1964.86 801.394   3
  -4   6  11 1129.14 428.010   4
  -4   6  11 1877.49 725.614   3
   6  -2  11 1730.34 883.618   3
  -2  -4  11 191.050 1547.55   3
  -2  -4  11 1284.81 511.408   2
  -6   5  -8 945.038 386.872   1
  -5   6  -5 16120.5 895.302   1
  -5   6  -5 14232.6 547.538   4
  -6   5  -5 15097.9 833.810   1
  -1  -5  -5 3921.70 1925.86   3
  -6   5  -5 15932.9 679.089   4
   5   1  -2 973.528 217.788   2
   6  -1  -2 674.920 210.562   2
   1  -6  -2 1538.67 389.229   3
  -5   6  -2 834.663 191.838   4
  -6   5  -2 1021.70 234.568   4
  -6   5  -2 1013.86 206.754   2
   1  -6  -2 1388.20 224.032   1
   6  -1  -2 1096.68 220.496   4
  -5   6  -2 1077.59 173.098   2
  -5   6  -2 731.741 269.978   1
   5   1  -2 804.418 175.495   4
  -1  -5  -2 666.724 117.152   1
  -6   5  -2 964.680 260.224   1
  -1  -5  -2 998.759 296.096   3
  -1  -5   1 124636. 1118.29   2
  -6   5   1 125660. 1156.05   3
  -6   5   1 122294. 1786.64   1
  -5   6   1 121173. 1669.47   2
   5   1   1 122084. 1573.74   3
   1  -6   1 120577. 1810.77   1
  -1  -5   1 125432. 1660.28   3
   1  -6   1 126256. 1718.35   3
   6  -1   1 119576. 1633.85   1
   6  -1   1 122404. 1708.74   4
   5   1   1 126147. 1745.76   4
  -6   5   1 125707. 1734.12   2
  -6   5   1 120859. 1680.37   4
   5   1   1 126177. 1738.90   2
   6  -1   1 115598. 1524.71   3
  -5   6   1 123431. 1424.24   3
  -5   6   1 119949. 1667.13   1
  -1  -5   1 118098. 1774.10   1
   6  -1   1 127297. 1708.92   2
  -5   6   1 122763. 1756.97   4
   5   1   4 439.945 274.913   2
  -6   5   4 632.194 241.556   3
  -5   6   4 762.788 236.886   1
   5   1   4 847.849 416.415   3
   6  -1   4 1516.90 356.875   2
  -1  -5   4 730.678 318.901   1
   1  -6   4 834.176 336.834   1
   6  -1   4 240.351 686.446   3
   6  -1   4 974.443 239.294   1
  -5   6   4 1041.66 330.045   3
   5   1   4 835.512 203.135   1
   6  -1   4 584.441 229.276   4
  -1  -5   4 792.268 208.050   2
  -6   5   4 1163.55 278.952   4
   5   1   4 783.171 296.633   4
  -6   5   7 16548.2 1104.41   3
   1  -6   7 16265.6 1041.86   1
   1  -6   7 15223.4 845.920   2
   6  -1   7 15651.9 855.830   4
   5   1   7 16062.4 1247.93   3
   5   1   7 15143.9 630.061   1
  -5   6   7 17123.2 1148.08   3
  -5   6   7 15809.4 786.169   1
   5   1   7 13945.9 873.553   4
  -6   5   7 14647.5 795.905   4
   6  -1   7 16111.2 774.919   1
  -6   5   7 14856.7 836.829   1
  -1  -5   7 15471.6 1033.00   1
  -6   5  10 345.450 279.655   4
   1  -6  10 478.865 525.392   1
  -6   5  10 921.669 393.794   1
  -1  -5  10 621.306 396.220   2
   5   1  10 1039.13 602.674   3
   1  -6  10 1799.50 1787.40   3
   5   1  10 351.870 223.705   1
  -5   6  10 716.118 384.193   4
  -1  -5  10 653.425 431.883   1
   6  -1  10 472.792 333.734   1
  -5   6  10 349.937 330.778   1
   6  -1  10 44.9958 673.788   3
  -1  -5  10 630.043 1954.62   3
  -5   6  10 589.277 560.780   3
  -6   5  10 982.282 612.579   3
  -6   6  -6 28623.0 1232.89   1
  -6   6  -6 31551.6 933.457   4
  -6   6  -3 7.33033 164.909   2
  -6   6  -3-60.1457 292.772   1
   6   0  -3 40.6180 166.532   4
   0  -6  -3 74.3069 292.526   3
   6   0  -3 309.495 234.635   2
  -6   6  -3-113.072 166.162   4
   0  -6   0 19875.5 694.860   1
   6   0   0 20811.3 496.476   3
  -6   6   0 19274.4 704.941   4
  -6   6   0 19785.2 765.160   1
   6   0   0 19472.7 679.749   4
  -6   6   0 19643.4 575.233   3
  -6   6   0 19586.3 632.925   2
   0  -6   0 19836.0 702.303   3
   6   0   0 20446.2 687.217   2
  -6   6   3-64.7853 193.728   1
  -6   6   3-136.462 192.572   3
   6   0   3-117.190 236.186   2
   6   0   3 34.0987 303.182   3
   0  -6   3 141.733 273.549   1
   6   0   3 140.217 235.669   4
   6   0   3-153.309 170.669   1
  -6   6   3 182.839 242.128   4
   0  -6   3 157.167 100.569   2
   0  -6   6 45092.9 1628.89   1
   6   0   6 42585.4 1083.10   1
  -6   6   6 40889.9 1532.75   3
   6   0   6 44065.0 1413.08   4
  -6   6   9 473.012 316.321   1
   0  -6   9 27.6701 395.736   1
  -6   6   9 395.476 304.406   4
   6   0   9 253.809 259.285   1
  -6   6   9-164.148 456.538   3
   6   0   9 372.754 577.466   3
   0  -6   9-1286.73 1673.93   3
  -6   6  12 8643.64 1231.17   3
   0  -6  12 6316.06 878.806   2
   6   0  12 9975.50 1445.55   3
   0  -6  12 4918.76 894.240   1
  -6   6  12 7135.50 1102.20   2
  -7   0  -7 94.9562 204.022   1
  -7   0  -7-73.6070 290.735   4
   0   7  -4 7004.18 663.198   1
  -7   0  -4 7589.01 686.404   2
  -7   0  -4 7064.98 640.991   4
  -7   0  -4 7924.69 472.438   1
  -7   0  -1 53.5241 223.568   2
   7  -7  -1 447.376 270.480   4
   0   7  -1-59.1456 239.546   1
  -7   0  -1 265.253 211.663   1
  -7   0  -1 199.992 278.384   4
   0   7  -1 53.9471 230.239   3
  -7   0  -1 180.531 226.041   3
   7  -7  -1 115.968 254.472   1
   0   7  -1 27.8747 105.415   2
   7  -7  -1-40.7013 209.158   2
   7  -7  -1 160.400 176.035   3
  -7   0   2 46300.3 1052.93   4
  -7   0   2 46276.1 1169.33   2
   0   7   2 47484.6 1298.68   3
   7  -7   2 48262.6 1380.09   1
  -7   0   2 49169.1 826.271   3
   0   7   2 47459.9 826.084   1
   0   7   2 46767.8 1338.33   2
   7  -7   2 47831.9 1108.66   4
   7  -7   2 47525.4 953.429   2
   0   7   5-366.529 374.216   3
   7  -7   5 52.7208 205.528   2
   0   7   5-317.683 312.460   4
  -7   0   5-37.0742 238.457   2
  -7   0   5-46.5336 136.918   4
   7  -7   5 59.8587 321.438   1
  -7   0   5-139.812 726.582   3
   7  -7   5-28.4584 174.888   4
   7  -7   8 20684.6 760.200   4
   7  -7   8 24938.3 1326.55   1
  -7   0   8 18656.1 586.468   4
  -7   0   8 28076.4 1401.60   1
  -7   0   8 25109.7 1340.09   2
   0   7   8 28237.7 1659.47   3
  -7   0  11 97.0056 446.135   1
   7  -7  11 705.033 1540.34   3
  -7   0  11-194.286 473.538   2
   7  -7  11 513.157 555.016   1
  -7   0  11-478.753 594.918   3
   0   7  11 272.402 616.503   3
  -7   1  -8 2941.11 416.593   1
   7  -6  -5 401.283 853.585   3
  -7   1  -5 2762.76 498.358   2
  -7   1  -5 2758.90 323.582   1
  -1   7  -5 2398.17 467.207   1
   6  -7  -5 1624.38 1115.16   3
  -7   1  -5 1979.81 380.930   4
   1   6  -5 2089.21 452.859   1
  -6  -1  -5 2710.99 256.458   1
  -6  -1  -5 2117.44 431.590   4
   1   6  -2 3456.70 278.758   4
   7  -6  -2 3093.34 278.375   3
   1   6  -2 3609.01 430.348   1
   6  -7  -2 3021.78 317.070   3
  -6  -1  -2 2948.31 313.116   1
  -7   1  -2 3329.57 393.687   2
  -6  -1  -2 3691.51 420.966   4
  -1   7  -2 2839.83 393.656   1
  -7   1  -2 3365.33 353.783   1
  -6  -1  -2 3083.20 401.766   2
  -7   1  -2 2806.36 364.250   4
   6  -7  -2 3329.26 361.185   1
  -6  -1  -2 4666.81 539.572   3
   1   6  -2 3047.83 187.629   2
   7  -6   1 2481.78 372.426   1
   1   6   1 3236.66 439.305   4
  -6  -1   1 2481.43 310.906   2
   1   6   1 2915.95 299.746   1
   7  -6   1 2501.55 307.430   4
   1   6   1 2983.37 362.176   2
   7  -6   1 2097.51 266.245   2
  -1   7   1 2304.82 371.674   3
   6  -7   1 2820.66 323.768   4
   6  -7   1 2261.37 393.877   1
  -1   7   1 2410.62 265.980   1
  -6  -1   1 2518.80 310.754   4
   1   6   1 2737.04 372.237   3
   6  -7   1 2298.32 235.173   2
  -7   1   1 2602.94 307.942   4
  -6  -1   1 2431.36 212.153   3
  -7   1   1 2780.56 330.890   2
   6  -7   4 9136.46 505.593   2
   7  -6   4 8805.19 518.876   4
   6  -7   4 9926.28 734.424   1
  -7   1   4 9404.58 481.963   4
   1   6   4 9199.89 695.043   4
   6  -7   4 8818.76 459.578   4
   1   6   4 7285.79 681.868   3
   7  -6   4 8956.11 661.422   1
   7  -6   4 9060.66 573.521   2
  -7   1   4 8479.10 620.421   2
  -6  -1   4 8799.86 421.576   4
  -1   7   4 9327.75 736.600   3
   1   6   4 8247.41 715.756   2
  -6  -1   4 8630.19 589.258   2
  -6  -1   7-683.298 1101.82   3
   7  -6   7 6149.68 629.111   2
  -1   7   7 5934.70 751.304   3
  -7   1   7 855.380 1080.94   3
   6  -7   7 6593.60 699.355   1
   1   6   7 5384.50 748.073   3
   6  -7   7 4868.96 533.526   2
   7  -6   7 6050.44 658.025   1
   7  -6   7 3154.01 1560.92   3
  -6  -1   7 6874.30 728.983   1
  -7   1   7 6490.93 419.214   4
   6  -7   7 5643.09 372.363   4
  -6  -1   7 6334.47 656.689   2
  -6  -1   7 4910.70 280.487   4
  -7   1   7 5757.09 665.596   2
  -7   1   7 6801.22 689.779   1
   7  -6   7 6418.69 469.154   4
   6  -7  10 2471.99 630.526   1
   7  -6  10 1254.48 472.974   1
   7  -6  10 2145.07 1670.41   3
  -7   1  10 3458.19 894.600   3
  -6  -1  10 1042.35 458.767   2
  -6  -1  10-492.374 1015.94   3
  -6  -1  10 2012.57 547.681   1
   6  -7  10-380.065 1951.31   3
  -7   1  10 2292.74 551.771   1
   1   6  10 1304.42 608.080   3
  -7   1  10 1744.12 565.596   2
  -5  -2  -6 9231.31 384.328   1
  -7   2  -6 10546.3 651.781   1
  -2   7  -6 9697.22 814.471   1
  -7   2  -6 11293.2 755.009   4
   2   5  -3 82692.7 1821.46   1
  -5  -2  -3 78623.9 1738.37   4
  -2   7  -3 74133.7 926.929   4
   2   5  -3 74388.8 862.637   4
  -5  -2  -3 77927.2 1779.26   2
   5  -7  -3 74924.0 1583.93   3
  -2   7  -3 76686.8 1782.49   1
  -7   2  -3 76961.9 1678.39   2
  -5  -2  -3 79015.3 1071.36   1
  -7   2  -3 75689.1 1585.69   4
  -7   2  -3 77520.9 1471.03   1
  -5  -2   0 98783.5 1578.55   4
  -5  -2   0 96143.5 1486.65   2
  -7   2   0 98096.6 1545.07   2
  -2   7   0 99141.1 1549.56   1
   5  -7   0 98976.0 1454.16   3
  -5  -2   0 99206.9 1286.10   3
   7  -5   0 102183. 1588.24   4
  -7   2   0 95485.4 1543.57   4
   2   5   0 98385.8 1563.14   4
   2   5   0 101628. 1376.40   2
   2   5   0 97906.9 1505.51   3
  -7   2   0 97415.4 1645.78   1
   2   5   0 97514.5 1482.80   1
  -2   7   0 94039.1 1553.58   3
   5  -7   0 99751.9 1679.79   1
   7  -5   0 102316. 1082.79   3
   7  -5   0 102435. 1516.87   2
   7  -5   0 89025.3 1636.68   1
   7  -5   3 73111.2 1406.88   2
  -7   2   3 74630.8 1621.11   2
   5  -7   3 69694.4 1024.67   2
   7  -5   3 72450.0 1612.49   1
   2   5   3 72689.4 1701.81   4
   5  -7   3 69137.7 1653.65   1
   5  -7   3 74997.7 1179.32   4
  -5  -2   3 71793.4 1364.70   2
  -2   7   3 70941.1 1646.67   3
  -2   7   3 73309.5 950.790   1
   2   5   3 69878.2 1720.11   3
   7  -5   3 71820.6 1350.82   4
  -7   2   3 74684.1 1352.28   4
  -5  -2   3 70267.2 1078.27   4
   7  -5   6 7375.77 508.309   4
  -7   2   6 7113.91 692.295   2
   7  -5   6 3008.07 1478.95   3
   2   5   6 8350.33 721.249   4
  -7   2   6 8411.51 490.369   4
  -2   7   6 6620.91 299.281   1
   5  -7   6 6772.08 353.622   4
  -5  -2   6 7080.41 696.397   1
  -2   7   6 7866.47 724.755   4
   7  -5   6 8430.35 686.685   1
  -5  -2   6 8269.27 660.077   2
  -7   2   6 7515.58 682.443   1
  -2   7   6 8448.40 820.440   3
  -7   2   6 861.310 766.485   3
   2   5   6 7329.82 816.457   3
   5  -7   6 6772.17 536.283   2
  -5  -2   6 5526.17 251.719   4
  -2   7   6 5679.18 296.134   1
   7  -5   6 6505.68 607.538   2
   5  -7   6 8606.97 751.842   1
  -7   2   9 19053.0 1167.03   1
   5  -7   9 1168.31 1880.19   3
  -5  -2   9 20339.2 1236.39   2
   5  -7   9 19106.0 1237.32   1
   7  -5   9 15130.0 749.854   4
  -7   2   9 13369.1 633.150   4
   2   5   9 19509.0 1490.45   3
   7  -5   9 16520.2 1061.39   1
  -5  -2   9 48.0162 1572.64   3
   7  -5   9-1437.49 1545.88   3
  -5  -2   9 19024.4 1254.55   1
  -7   2   9 11387.2 637.111   4
  -2   7   9 16715.5 1373.66   3
  -7   2   9 20114.9 1451.76   3
  -7   2   9 16807.8 1234.74   2
   7  -5  12 4705.49 1213.17   3
  -2   7  12 6183.47 1160.89   3
   2   5  12 3504.61 980.771   3
  -7   2  12 2092.50 677.104   2
   5  -7  12 1288.84 1684.54   3
   5  -7  12 2723.80 716.019   1
  -5  -2  12 3554.37 1058.44   3
  -5  -2  12 2521.25 720.734   2
  -7   2  12 2760.69 874.504   3
  -5  -2  12 2496.52 719.636   1
  -7   3  -7 556.417 291.680   1
  -7   3  -7 403.732 285.756   4
  -7   3  -4 8606.37 582.163   4
  -7   3  -4 8963.32 580.909   1
   4  -7  -4 9692.36 729.776   3
  -3   7  -4 9586.76 694.249   1
  -4  -3  -4 9583.50 1515.08   3
  -7   3  -4 9059.40 651.521   2
  -3   7  -4 7473.78 286.389   4
  -4  -3  -4 9411.85 672.796   4
   4  -7  -1 46267.5 1024.43   3
  -7   3  -1 45233.9 1069.59   4
   3   4  -1 44958.8 982.423   3
   4  -7  -1 46467.1 1042.59   1
  -4  -3  -1 45829.8 1114.64   2
  -3   7  -1 42939.6 573.759   2
  -3   7  -1 47115.7 1165.94   1
   3   4  -1 46201.1 957.525   4
  -4  -3  -1 45429.1 1176.54   4
  -7   3  -1 45398.8 1061.44   2
  -4  -3  -1 45613.3 1063.70   3
   7  -4  -1 46676.1 1062.45   4
  -7   3  -1 46874.8 1145.65   1
   3   4  -1 45856.0 837.752   2
   7  -4  -1 46694.8 1114.19   2
  -4  -3   2 9995.47 632.165   1
   3   4   2 10231.4 632.442   4
   4  -7   2 10054.2 641.289   1
   4  -7   2 8949.46 270.182   2
  -4  -3   2 10566.3 459.317   2
   3   4   2 10813.4 650.422   3
  -3   7   2 9870.78 569.317   3
   7  -4   2 10185.8 520.781   2
  -7   3   2 10679.6 522.602   4
  -4  -3   2 10017.8 436.861   4
  -4  -3   2 9259.71 491.465   3
  -7   3   2 10994.3 611.133   2
   7  -4   2 10016.5 515.254   4
  -7   3   2 10703.9 354.339   3
   3   4   2 9221.19 583.829   2
   7  -4   2 10209.6 599.020   1
  -3   7   2 10567.0 455.787   1
  -7   3   5 3025.23 353.699   4
   4  -7   5 2637.53 305.935   2
  -7   3   5 2180.21 418.265   2
   4  -7   5 2045.80 401.503   1
   7  -4   5 1881.17 1327.72   3
   3   4   5 3596.46 532.998   2
   7  -4   5 1985.36 302.113   4
   3   4   5 3209.22 461.629   4
   7  -4   5 2189.49 397.349   2
   4  -7   5 2057.67 190.220   4
  -3   7   5 1848.02 425.278   3
  -3   7   5 2876.00 265.438   1
  -7   3   5 3917.38 612.552   3
   3   4   5 2188.85 489.514   3
  -4  -3   5 2817.64 452.656   1
   7  -4   5 2564.80 396.594   1
  -4  -3   5 2829.44 377.333   2
  -7   3   8 6515.00 829.295   3
  -3   7   8 5363.42 410.072   1
  -7   3   8 6038.06 487.768   4
  -4  -3   8 6500.76 755.137   1
   3   4   8 6742.91 943.328   3
   7  -4   8-709.234 1263.88   3
   4  -7   8 4019.63 562.430   2
  -4  -3   8 6479.08 675.583   2
  -7   3   8 6199.72 755.963   2
   7  -4   8 5616.10 655.277   1
   4  -7   8-752.681 1510.31   3
  -7   3   8 7304.90 724.159   1
  -3   7   8 6498.77 827.044   3
  -4  -3   8-285.583 1230.72   3
   7  -4   8 5737.49 527.363   4
  -3   7   8 6281.22 409.733   1
   4  -7   8 7354.38 795.577   1
  -4  -3  11-1161.97 1310.14   3
   7  -4  11 78.2774 805.053   3
   4  -7  11 316.146 1935.68   3
  -3   7  11 355.838 614.315   3
   3   4  11 410.252 679.268   3
  -7   3  11 638.987 473.135   1
  -4  -3  11-358.616 534.069   1
   7  -4  11 574.754 453.607   1
  -7   3  11 860.337 570.686   2
  -7   3  11 972.621 620.531   3
  -4  -3  11-179.709 453.626   2
   4  -7  11 909.579 542.216   1
  -7   4  -8 6060.88 622.428   1
  -7   4  -5 2326.02 403.347   2
  -7   4  -5 2465.02 358.292   4
  -4   7  -5 1861.50 451.050   1
  -7   4  -5 2459.65 389.889   1
  -4   7  -5 2288.11 204.396   4
  -3  -4  -2 7491.81 564.357   4
   3  -7  -2 6952.77 496.144   3
  -4   7  -2 7155.72 379.717   4
   4   3  -2 7558.90 396.689   2
  -7   4  -2 7890.88 526.287   1
  -3  -4  -2 6366.73 493.992   3
   3  -7  -2 7745.36 407.810   1
   4   3  -2 7792.49 365.275   4
   7  -3  -2 7857.44 508.458   2
  -4   7  -2 7066.33 255.810   2
   7  -3  -2 7525.09 458.279   4
  -7   4  -2 7670.79 477.440   2
  -4   7  -2 7673.06 537.208   1
  -3  -4  -2 6939.37 541.381   2
  -7   4  -2 6860.71 458.834   4
   7  -3   1 48364.4 1071.82   4
   7  -3   1 48542.8 1177.21   1
   3  -7   1 48268.6 1126.78   3
  -4   7   1 46631.1 1046.59   1
   4   3   1 50056.6 1130.89   2
  -3  -4   1 46973.6 998.956   4
  -3  -4   1 50334.3 1030.88   3
   7  -3   1 49067.7 1083.51   2
   3  -7   1 49729.1 1248.83   1
  -3  -4   1 47781.4 1179.21   1
  -7   4   1 45181.6 1080.89   4
  -7   4   1 34089.1 965.184   2
  -3  -4   1 45364.9 859.520   2
  -4   7   1 47036.9 1043.14   3
   4   3   1 37235.1 1030.77   4
  -7   4   1 48665.7 1202.47   1
   4   3   1 48115.8 1083.49   3
   3  -7   4 8722.83 396.626   2
  -7   4   4 9610.22 577.029   4
  -4   7   4 9284.38 679.189   3
  -4   7   4 9862.65 476.309   1
  -3  -4   4 9470.43 728.453   1
   7  -3   4 8977.01 632.717   2
   7  -3   4 9763.37 576.800   4
   4   3   4 8900.29 638.173   4
  -7   4   4 9295.23 694.683   2
   3  -7   4 9488.85 714.465   1
   7  -3   4 8942.73 584.432   1
   4   3   4 9220.26 755.589   3
  -3  -4   4 9049.68 502.144   2
   4   3   4 10483.8 762.005   2
  -7   4   4 9293.29 595.587   3
   7  -3   7 66.3177 242.409   4
  -4   7   7 212.792 203.701   1
  -4   7   7 911.779 452.344   3
  -7   4   7 719.410 417.759   2
   4   3   7 167.399 89.1706   1
  -3  -4   7 315.109 330.230   1
   3  -7   7-97.9658 228.738   2
   4   3   7-38.1704 294.307   4
  -3  -4   7 307.122 286.470   2
  -7   4   7 730.528 400.460   3
   7  -3   7-161.718 288.272   1
  -4   7   7-67.5153 180.290   1
   3  -7   7 104.149 316.144   1
  -7   4   7 390.568 318.743   1
  -7   4   7 371.025 241.999   4
   4   3   7 403.240 435.042   3
  -7   4  10 2056.93 633.350   2
  -4   7  10 1777.85 673.032   3
   7  -3  10 1350.01 435.602   1
   7  -3  10 2471.93 949.253   3
   4   3  10 1791.00 752.893   3
  -7   4  10 2885.56 695.223   3
  -4   7  10 1238.12 297.788   1
  -7   4  10 1414.24 326.601   4
  -7   4  10 2458.31 540.095   1
  -3  -4  10 1446.59 494.005   2
   3  -7  10 1651.20 571.260   1
  -3  -4  10 2904.07 664.117   1
  -5   7  -6 7010.75 383.065   4
  -5   7  -6 6775.40 675.397   1
  -7   5  -6 8189.42 581.817   4
  -7   5  -6 6384.20 609.794   1
  -5   7  -3 71238.5 1078.52   2
   7  -2  -3 70769.4 1583.48   2
   7  -2  -3 72774.8 1316.24   4
  -2  -5  -3 67935.7 1707.65   3
   2  -7  -3 66484.7 927.337   1
  -7   5  -3 70501.9 1431.51   2
  -7   5  -3 68778.2 1346.02   4
   5   2  -3 71130.5 1378.33   2
  -5   7  -3 69074.9 1116.87   4
   2  -7  -3 69824.2 1645.31   3
   5   2  -3 72312.6 1073.18   4
  -7   5  -3 72783.4 1586.59   1
  -5   7  -3 71998.8 1674.33   1
   7  -2   0 98046.7 916.272   3
   7  -2   0 96123.5 1506.54   2
   7  -2   0 96989.8 1494.32   4
  -7   5   0 93977.6 1531.12   4
   5   2   0 96074.3 1267.04   3
  -7   5   0 95273.8 1692.69   1
  -5   7   0 93921.9 1294.01   2
  -5   7   0 92691.2 1385.95   3
   5   2   0 97072.2 1521.76   4
  -2  -5   0 94472.3 1338.07   2
  -7   5   0 98277.6 1495.13   2
  -2  -5   0 90499.4 1529.27   4
  -2  -5   0 96092.1 1481.94   3
  -2  -5   0 93142.3 1466.87   1
   2  -7   0 93564.2 1531.64   1
   5   2   0 97897.1 1447.07   2
  -5   7   0 94946.7 1617.06   1
   2  -7   0 96662.6 1535.44   3
  -5   7   0 96593.3 1557.37   4
   7  -2   3 77009.9 1520.37   4
   2  -7   3 74427.0 1757.55   1
  -5   7   3 77032.7 1552.45   3
  -7   5   3 76229.9 1526.29   4
   5   2   3 76622.4 1769.00   3
   5   2   3 77745.2 1673.94   4
  -7   5   3 75014.1 1599.84   1
   7  -2   3 80258.8 1496.87   1
  -5   7   3 77213.1 1377.32   1
   5   2   3 78216.3 1762.87   2
  -2  -5   3 77942.0 1102.38   2
  -7   5   3 74143.6 1301.74   3
  -7   5   3 76803.5 1731.74   2
  -2  -5   3 74270.6 1752.62   1
   7  -2   3 82620.8 1695.11   2
  -7   5   6 11144.6 670.037   4
  -7   5   6 10334.8 790.632   3
  -2  -5   6 11188.7 847.621   1
   5   2   6 10557.3 966.723   3
  -2  -5   6 10764.3 648.634   2
   7  -2   6 9461.41 623.178   1
  -5   7   6 11571.2 626.377   1
   2  -7   6 10229.1 601.003   2
   5   2   6 11179.7 774.709   4
   7  -2   6 10579.8 680.619   4
   5   2   6 8313.83 387.082   1
   2  -7   6 9426.40 795.099   1
  -5   7   6 9944.56 818.082   3
  -7   5   9 5301.96 855.281   3
   7  -2   9 8136.00 1196.79   3
  -7   5   9 4113.87 581.889   4
  -2  -5   9 6020.77 780.747   1
  -7   5   9 5097.42 630.585   1
  -7   5   9 4953.50 524.051   4
  -5   7   9 6411.04 550.766   1
  -2  -5   9 4904.00 635.110   2
   5   2   9 7354.07 1005.01   3
   2  -7   9 6550.81 794.636   1
  -5   7   9 4646.93 543.897   1
   7  -2   9 4699.27 541.530   1
  -5   7   9 7290.12 943.270   3
  -2  -5   9-80.0676 1525.31   3
   2  -7   9 114.131 1527.64   3
  -7   5  12 1491.35 705.038   2
  -2  -5  12 762.478 1390.95   3
   5   2  12 3276.55 1041.61   3
  -2  -5  12 1847.32 659.867   2
   7  -2  12 960.644 763.253   3
   2  -7  12-816.723 2103.40   3
   2  -7  12 127.009 554.893   1
  -2  -5  12 2848.15 737.009   1
  -7   5  12 2747.41 828.139   3
   2  -7  12 1019.53 537.934   2
  -5   7  12 1939.74 823.941   3
  -6   7  -7 6938.85 435.774   4
  -7   6  -7 6239.19 506.888   4
  -7   6  -7 5525.98 660.047   1
   7  -1  -4 8546.84 477.412   4
  -7   6  -4 7749.27 538.719   2
   6   1  -4 8966.79 418.553   4
   1  -7  -4 8938.44 748.220   3
  -7   6  -4 8405.14 637.872   1
  -6   7  -4 8961.63 526.484   2
  -1  -6  -4 9992.66 795.699   3
  -7   6  -4 9443.76 535.654   4
  -6   7  -4 9585.69 695.415   1
  -6   7  -4 9192.14 462.026   4
   1  -7  -1 1713.20 298.723   3
  -7   6  -1 2694.80 366.428   1
  -7   6  -1 2767.23 314.258   4
   1  -7  -1 1887.27 257.901   1
  -6   7  -1 2357.16 350.992   1
  -1  -6  -1 2843.42 374.342   3
  -6   7  -1 2749.86 327.078   4
   6   1  -1 2409.93 275.385   4
  -7   6  -1 2474.90 257.769   2
   6   1  -1 2672.01 305.387   2
  -1  -6  -1 2686.76 280.904   1
  -6   7  -1 2166.58 232.435   2
   7  -1  -1 3216.50 347.409   2
   7  -1  -1 2944.76 301.521   4
   6   1  -1 3103.47 226.067   3
  -1  -6   2 2933.34 186.715   2
  -6   7   2 3064.00 356.589   1
  -1  -6   2 2928.62 420.879   1
  -6   7   2 2893.94 309.967   3
   6   1   2 2882.51 378.501   4
   6   1   2 3084.68 388.368   3
  -7   6   2 3091.36 384.137   1
   1  -7   2 3352.99 423.975   1
  -7   6   2 2688.39 363.013   4
   1  -7   2 3589.40 403.390   3
   7  -1   2 2879.41 354.346   2
  -7   6   2 3081.79 261.446   3
   7  -1   2 3230.65 345.561   1
   6   1   2 3433.05 396.658   2
   7  -1   2 2648.47 390.850   3
  -7   6   2 2241.92 370.807   2
   7  -1   2 3191.88 356.528   4
  -1  -6   2 3643.85 375.376   3
  -6   7   2 3368.47 383.988   4
   6   1   5 1061.08 409.327   2
  -7   6   5 1357.58 315.742   4
   6   1   5 818.235 320.258   4
   7  -1   5 2036.08 402.390   2
  -1  -6   5 1148.72 384.895   1
   1  -7   5 1776.18 251.733   2
   6   1   5 1460.57 452.462   3
  -6   7   5 1388.78 351.591   3
   7  -1   5 1072.52 289.237   4
   6   1   5 1307.40 226.398   1
   1  -7   5 1916.58 430.013   1
  -1  -6   5 1595.37 259.192   2
   7  -1   5 1267.93 585.603   3
  -7   6   5 1702.58 355.978   3
   7  -1   5 1588.66 302.900   1
  -6   7   5 1148.08 261.736   1
   1  -7   8 1638.82 518.942   1
  -1  -6   8-109.663 1298.52   3
  -1  -6   8 1600.20 501.930   1
  -7   6   8 2608.53 599.241   3
  -6   7   8 2388.42 379.482   1
  -7   6   8 2314.17 528.133   1
   6   1   8 1652.70 627.632   3
   6   1   8 1825.67 278.411   1
  -1  -6   8 2015.70 415.943   2
  -7   6   8 1856.77 382.973   4
   7  -1   8 877.937 360.819   4
  -6   7   8 2186.95 567.139   3
   7  -1   8 1975.01 734.402   3
   7  -1   8 1889.30 371.615   1
  -6   7   8 1924.44 387.196   1
   1  -7   8 1516.14 400.121   2
  -6   7   8 2601.21 479.346   4
  -1  -6  11 4333.27 788.896   1
  -6   7  11 5346.68 976.854   3
  -7   6  11 4908.13 937.842   3
   7  -1  11 5399.79 1078.67   3
  -7   6  11 4050.41 878.018   2
   1  -7  11 3633.62 634.978   2
  -1  -6  11 1503.41 2248.67   3
   1  -7  11 4409.77 768.056   1
   6   1  11 5400.75 1057.27   3
  -6   7  11 3518.71 549.572   4
  -1  -6  11 3751.69 700.425   2
  -7   7  -5-19.9062 174.302   4
  -7   7  -5-136.915 283.333   1
   0  -7  -2 46358.5 1315.82   3
   0  -7  -2 47585.0 839.113   1
   7   0  -2 49350.9 1072.58   4
  -7   7  -2 48913.2 1115.75   4
  -7   7  -2 46885.2 980.062   2
  -7   7  -2 48282.0 1329.92   1
   7   0  -2 49700.9 1196.39   2
   0  -7   1-85.6551 211.390   3
  -7   7   1 231.078 216.736   2
   7   0   1 457.506 222.650   4
  -7   7   1-113.376 176.482   3
   7   0   1 134.971 201.656   3
  -7   7   1-21.9198 243.349   1
  -7   7   1 102.564 235.097   4
   0  -7   1-58.1649 263.225   1
   7   0   1 18.2151 205.021   2
   0  -7   1 60.4763 115.758   2
   7   0   4 5375.33 634.511   3
  -7   7   4 4749.14 463.599   3
  -7   7   4 5158.43 505.283   4
   7   0   4 5064.26 393.330   1
   0  -7   4 4671.12 555.836   1
   7   0   4 4799.74 537.405   2
   7   0   4 4552.82 518.854   4
  -7   7   4 5623.53 476.091   1
   0  -7   4 5180.50 300.213   2
  -7   7   7-56.9972 382.657   3
   7   0   7-36.8655 217.126   1
   0  -7   7 72.1958 344.672   1
  -7   7   7-96.6965 283.507   4
  -7   7   7-180.425 289.453   1
   0  -7   7 1.85892 242.373   2
   7   0   7-274.773 311.321   4
   7   0   7 182.655 468.539   3
   7   0  10 10475.4 628.553   1
  -7   7  10 17432.8 992.681   1
   7   0  10 21651.6 1749.79   3
  -7   7  10 13693.8 915.847   4
   0  -7  10 16171.7 1070.79   2
   0  -7  10 16063.5 1262.07   1
  -7   7  10 17829.2 1407.30   3
  -8   0  -8 10161.5 585.569   1
  -8   0  -5 215.262 210.464   1
   8  -8  -5 761.744 942.165   3
  -8   0  -5 49.3367 272.339   4
  -8   0  -5-102.041 309.792   2
   8  -8  -2 62574.2 1517.57   1
   0   8  -2 64872.6 1637.22   1
   8  -8  -2 61720.8 1194.79   3
   0   8  -2 64341.1 1220.26   4
  -8   0  -2 63285.3 1572.74   4
  -8   0  -2 63082.8 1597.80   2
  -8   0  -2 63360.6 1378.96   1
   0   8   1 296.154 279.870   3
  -8   0   1 66.4896 211.910   4
   8  -8   1-209.366 336.515   1
   8  -8   1-96.4332 196.499   4
  -8   0   1-107.801 220.965   2
  -8   0   1-3.77670 118.642   3
   8  -8   1 132.918 156.439   2
   0   8   1-323.381 198.362   1
   0   8   1-17.2882 230.168   2
   8  -8   4 20909.6 1074.65   1
  -8   0   4 22436.8 765.367   4
  -8   0   4 23009.3 992.957   2
   8  -8   4 22284.7 798.219   2
   0   8   4 20462.7 1136.43   2
   8  -8   4 22969.4 833.275   4
   0   8   4 20890.6 1064.30   4
   0   8   4 21089.3 1097.87   3
  -8   0   7-22.6684 141.943   4
   8  -8   7 159.865 375.418   1
  -8   0   7 213.193 315.654   1
   0   8   7-194.347 440.665   3
  -8   0   7 624.132 1045.98   3
   8  -8   7 100.717 292.074   2
   8  -8   7-76.5674 193.391   4
  -8   0   7-355.456 320.358   2
   0   8  10 9821.71 1185.75   3
   8  -8  10 7454.76 879.262   1
  -8   0  10 8765.89 978.092   2
  -8   0  10 9455.00 968.843   1
  -7  -1  -6 8271.81 754.581   4
  -8   1  -6 8273.76 713.016   4
  -7  -1  -6 9417.34 475.529   1
  -8   1  -6 8234.73 551.050   1
   1   7  -3 12528.4 447.812   4
  -7  -1  -3 12110.9 774.329   2
  -7  -1  -3 11822.0 746.965   4
   8  -7  -3 11615.1 606.997   3
  -8   1  -3 11773.8 752.724   2
  -7  -1  -3 11741.1 557.255   1
  -8   1  -3 11216.5 697.469   4
  -1   8  -3 11760.1 777.629   1
   1   7  -3 11727.0 765.296   1
   7  -8  -3 11584.6 647.464   3
  -8   1  -3 22548.9 1770.80   3
  -7  -1  -3 20678.4 1810.40   3
  -8   1  -3 11396.4 610.622   1
   8  -7   0 4861.03 486.786   1
  -1   8   0 3271.16 396.974   3
  -1   8   0 4005.29 387.267   1
   8  -7   0 4614.69 412.374   4
  -8   1   0 4889.17 294.272   3
   7  -8   0 4806.26 377.206   2
   1   7   0 4413.55 420.457   3
   1   7   0 4135.64 415.966   4
   7  -8   0 4345.29 470.825   1
   7  -8   0 4665.26 430.725   4
   7  -8   0 4409.83 361.599   3
  -7  -1   0 4109.77 405.098   2
   1   7   0 4947.83 424.744   1
  -8   1   0 4213.98 396.950   4
   1   7   0 4429.64 330.682   2
  -8   1   0 4238.06 409.633   2
  -7  -1   0 4355.09 418.932   4
  -7  -1   0 4231.08 313.619   3
  -1   8   0 4787.49 344.175   2
   8  -7   0 4167.20 301.300   3
   8  -7   0 4448.86 389.662   2
  -1   8   3 53500.7 821.285   1
   1   7   3 53788.3 1565.08   3
  -1   8   3 50041.6 1473.54   3
   7  -8   3 53062.6 1576.03   1
   7  -8   3 52919.9 1176.40   4
   1   7   3 53181.3 1549.27   2
  -7  -1   3 51986.9 1096.56   4
   8  -7   3 52231.2 1536.48   1
   1   7   3 49407.8 1549.38   4
  -8   1   3 57830.1 1459.82   2
  -8   1   3 55009.8 1192.29   4
  -7  -1   3 52874.6 1318.41   2
   7  -8   3 52840.2 1023.97   2
   8  -7   3 54893.0 1190.30   2
   8  -7   3 52627.1 1247.33   4
  -8   1   6 1720.83 1069.13   3
  -8   1   6 3714.08 337.923   4
  -1   8   6 4130.29 624.922   3
  -8   1   6 3311.62 512.043   1
  -7  -1   6 3334.58 580.411   1
   8  -7   6 3749.24 481.974   2
   7  -8   6 3796.58 439.176   2
   8  -7   6 3524.63 557.543   1
  -7  -1   6 3234.21 455.793   2
   8  -7   6 3854.51 400.571   4
   7  -8   6 3944.40 355.659   4
   1   7   6 4058.40 640.438   3
  -7  -1   6 3032.64 262.000   4
  -8   1   6 3252.80 483.883   2
   7  -8   6 4040.79 593.485   1
   7  -8   9 23017.7 1386.97   1
   8  -7   9 22360.2 1335.68   1
  -8   1   9 16343.6 605.699   4
  -8   1   9 25292.3 1455.24   2
   7  -8   9-444.596 1856.32   3
  -1   8   9 25071.5 1680.27   3
  -7  -1   9 22378.9 1341.81   2
   8  -7   9 1171.19 1952.60   3
  -8   1   9 34009.4 2081.30   3
  -8   1   9 22701.7 1337.50   1
   1   7   9 27738.2 1774.89   3
  -7  -1   9 23222.0 1421.72   1
   8  -7  12 3646.87 1442.06   3
  -7  -1  12 2184.25 689.093   1
  -8   1  12 1596.91 814.147   3
   1   7  12 3203.49 950.485   3
  -8   1  12 2041.96 724.796   2
  -7  -1  12 2725.16 706.081   2
  -1   8  12 3497.60 1004.57   3
  -8   1  12 1623.58 627.735   1
  -7  -1  12 2245.64 866.745   3
  -8   2  -7 33459.1 1151.82   1
  -8   2  -7 27664.1 1269.74   4
  -6  -2  -4 9008.17 702.927   4
  -8   2  -4 9466.57 694.386   2
  -2   8  -4 9507.92 750.346   1
   6  -8  -4 9199.52 704.564   3
  -8   2  -4 9121.09 573.124   1
  -6  -2  -4 7824.37 692.953   2
  -8   2  -4 8381.04 647.914   4
  -6  -2  -4 9135.72 417.157   1
  -2   8  -4 6333.69 261.941   4
  -6  -2  -4 8722.97 1880.71   3
   2   6  -1 35331.3 1086.48   1
   8  -6  -1 35071.3 1038.27   2
  -6  -2  -1 34718.6 958.828   3
  -2   8  -1 35475.7 1107.19   1
  -8   2  -1 34490.6 1026.03   4
   8  -6  -1 36472.6 1050.90   4
   2   6  -1 35483.7 740.232   2
   8  -6  -1 35394.2 630.460   3
  -6  -2  -1 32262.7 1058.53   4
  -8   2  -1 33723.8 1040.67   1
   6  -8  -1 35282.8 1065.80   1
   8  -6  -1 33647.8 1099.22   1
  -6  -2  -1 33076.5 1053.72   2
  -8   2  -1 32687.5 999.767   2
   2   6  -1 34498.2 928.391   4
  -2   8  -1 33431.3 587.989   2
  -2   8  -1 32247.0 1029.85   3
   6  -8  -1 34309.5 894.458   3
   2   6  -1 34435.1 991.440   3
  -6  -2   2 31719.7 899.198   2
  -2   8   2 31981.0 1066.51   3
  -6  -2   2 31764.5 861.192   4
   6  -8   2 30950.6 1134.99   1
   8  -6   2 31494.9 961.347   4
   8  -6   2 31714.0 883.430   2
   6  -8   2 32785.7 914.510   4
  -8   2   2 31623.8 917.761   4
   8  -6   2 31110.0 1096.58   1
  -2   8   2 31360.2 764.876   1
  -8   2   2 32927.2 1047.72   2
   2   6   2 31242.2 1109.90   4
   2   6   2 32439.6 1079.88   2
   2   6   2 32953.4 1100.65   3
  -6  -2   2 33692.5 822.649   3
   6  -8   2 31664.6 675.910   2
   2   6   5 4656.99 570.560   4
  -6  -2   5 4138.96 549.573   1
   2   6   5 4521.85 608.868   3
   8  -6   5 4940.20 482.913   2
  -6  -2   5 3874.10 282.242   4
   6  -8   5 4930.90 358.238   4
   8  -6   5 4257.76 560.384   1
  -2   8   5 4462.50 580.403   3
   6  -8   5 3663.34 539.222   1
   8  -6   5 4629.32 429.885   4
   6  -8   5 4238.83 371.452   2
  -8   2   5 4664.48 413.316   4
  -8   2   5 4534.43 529.782   2
  -6  -2   5 4129.06 451.325   2
  -8   2   8 8677.53 858.663   2
   8  -6   8 532.575 1617.13   3
   6  -8   8 8276.95 832.767   1
   8  -6   8 7995.60 574.829   4
  -6  -2   8 9417.36 831.302   2
   2   6   8 9670.87 1029.16   3
  -6  -2   8-118.037 1320.35   3
   6  -8   8 7085.24 689.479   2
  -8   2   8 8268.10 800.481   1
  -2   8   8 8597.34 966.406   3
   6  -8   8 363.585 1255.94   3
  -8   2   8 8635.79 527.218   4
  -6  -2   8 9256.21 889.147   1
   8  -6   8 7952.18 796.314   1
  -8   2   8 12349.1 1191.48   3
   6  -8   8 6629.58 330.632   4
   2   6  11 5974.74 1118.64   3
   6  -8  11 6531.18 933.468   1
   8  -6  11 5692.90 1445.70   3
  -8   2  11 5757.96 887.204   2
  -6  -2  11 2593.98 1284.19   3
  -2   8  11 6562.22 1069.72   3
  -6  -2  11 4932.99 820.759   1
   8  -6  11 5280.25 741.254   1
  -8   2  11 5079.02 792.828   1
  -6  -2  11 5103.95 819.425   2
  -8   3  -8 6308.70 613.745   1
  -8   3  -5 15100.1 815.301   4
  -3   8  -5 16085.3 978.899   1
  -5  -3  -5 14415.8 369.772   1
  -5  -3  -5 14623.9 948.601   4
  -8   3  -5 14946.1 928.264   2
  -8   3  -5 16062.2 766.200   1
   3   5  -2 9253.70 402.097   2
   3   5  -2 9425.84 434.393   4
  -5  -3  -2 7958.05 600.103   2
  -8   3  -2 8999.06 567.067   1
   5  -8  -2 8978.52 543.183   3
   8  -5  -2 10098.1 631.223   2
  -8   3  -2 9270.30 568.972   2
  -3   8  -2 9582.79 649.581   1
   5  -8  -2 8911.70 509.123   1
  -5  -3  -2 8799.83 608.939   4
  -8   3  -2 8339.30 558.238   4
  -5  -3  -2 9244.93 607.974   3
   8  -5  -2 8851.07 535.411   4
   5  -8   1 31801.3 947.028   3
  -5  -3   1 30658.5 882.654   4
   3   5   1 32049.6 986.663   3
   8  -5   1 32040.0 891.626   2
   3   5   1 33499.0 1061.25   4
   5  -8   1 32438.5 669.776   2
  -3   8   1 30289.4 957.228   3
  -8   3   1 31952.0 1058.52   1
  -5  -3   1 33372.4 813.670   3
   3   5   1 31622.8 957.942   2
   8  -5   1 31354.9 1057.47   1
  -8   3   1 31140.0 913.618   4
  -3   8   1 30189.7 870.706   1
  -5  -3   1 31461.6 838.605   2
  -8   3   1 31133.8 974.254   2
   5  -8   1 30830.7 1067.31   1
   8  -5   1 31935.5 961.560   4
   3   5   4 41439.6 1466.74   2
   3   5   4 42078.4 1524.76   3
  -5  -3   4 43630.2 811.989   4
   8  -5   4 38242.9 2647.34   3
  -8   3   4 44058.9 1415.29   2
   8  -5   4 45812.2 1383.89   1
  -3   8   4 43834.3 1449.71   3
  -3   8   4 44739.0 862.364   1
   8  -5   4 45695.7 1293.66   2
   5  -8   4 42621.7 888.867   2
   3   5   4 44730.1 1457.62   4
  -5  -3   4 45133.5 1513.22   1
  -5  -3   4 44440.9 1173.79   2
  -8   3   4 43971.8 1146.80   4
   8  -5   4 44584.5 1167.47   4
   5  -8   4 45350.4 932.355   4
   5  -8   4 44002.3 1487.95   1
   5  -8   7 7595.21 751.067   1
   8  -5   7 6746.17 672.357   1
  -3   8   7 6436.34 342.503   1
  -8   3   7 7383.28 678.616   1
  -8   3   7 6860.22 505.877   4
  -8   3   7 6911.44 742.889   2
   8  -5   7 5783.95 498.649   4
  -5  -3   7 7127.70 761.892   1
   5  -8   7 7202.91 606.746   2
  -3   8   7 6078.03 344.903   1
  -3   8   7 5577.90 752.625   3
  -8   3   7 8044.59 835.664   3
  -5  -3   7 6615.49 639.663   2
   3   5   7 5700.18 808.877   3
  -3   8  10 2655.68 754.455   3
  -8   3  10 2512.46 654.110   2
  -5  -3  10 2821.56 593.422   2
  -5  -3  10 2459.38 645.714   1
   5  -8  10 3433.06 719.247   1
   3   5  10 2079.37 749.127   3
  -8   3  10 2313.22 348.265   4
  -8   3  10 4046.87 829.837   3
   8  -5  10 2278.28 572.237   1
  -8   3  10 3230.35 633.923   1
   8  -5  10 1088.16 1129.78   3
  -8   4  -6 1661.69 368.399   1
  -8   4  -6 1721.62 355.098   4
  -4  -4  -3 39128.7 663.299   1
   4   4  -3 41723.1 977.753   2
   8  -4  -3 41891.0 1138.95   4
  -8   4  -3 43619.2 1229.44   1
  -4  -4  -3 41067.8 1342.95   4
   4  -8  -3 43523.5 957.446   1
  -4  -4  -3 38856.2 1361.43   2
  -4  -4  -3 41036.6 1386.03   3
   4   4  -3 43556.7 791.492   4
  -4   8  -3 40095.6 826.308   4
  -8   4  -3 41231.5 1202.96   2
   4  -8  -3 40919.3 1263.78   3
  -8   4  -3 41275.1 1172.23   4
  -4   8  -3 42087.1 1379.99   1
  -4   8   0 48444.7 1202.68   1
   8  -4   0 49918.0 1139.82   2
  -4  -4   0 45596.1 1167.80   4
  -4   8   0 45478.6 1107.71   3
   4   4   0 46961.2 1041.13   3
   8  -4   0 46928.6 1136.47   4
   4   4   0 48907.9 1153.05   4
  -4  -4   0 45471.2 1018.31   3
   8  -4   0 47529.1 1256.52   1
   4  -8   0 48732.6 1123.31   3
  -8   4   0 47602.1 1145.45   4
  -8   4   0 47376.5 1116.98   2
  -4  -4   0 46317.3 1053.23   2
   4   4   0 47683.3 1048.57   2
   4  -8   0 47448.3 1189.86   1
  -8   4   0 47745.4 1257.75   1
   8  -4   3 41959.0 1241.15   1
  -4  -4   3 41314.0 1364.48   1
   8  -4   3 42925.9 2509.76   3
  -4  -4   3 43988.4 986.270   2
  -4   8   3 41628.0 946.794   1
   4   4   3 42246.9 1321.95   4
  -8   4   3 41560.0 1297.69   2
   8  -4   3 41896.7 1122.42   4
   4  -8   3 40825.8 1337.42   1
   4   4   3 42395.7 1363.98   3
   8  -4   3 43847.3 1216.36   2
  -4  -4   3 43049.6 847.666   4
  -8   4   3 41124.8 1117.58   4
  -4   8   3 41040.9 1239.50   3
  -8   4   3 40582.5 905.866   3
   4   4   3 44402.4 1401.83   2
  -4   8   6 3399.04 309.357   1
   8  -4   6 3493.56 479.326   1
  -4   8   6 3462.19 586.421   3
   4  -8   6 3491.39 571.213   1
   8  -4   6 3803.97 433.648   4
  -8   4   6 3643.73 523.937   3
   8  -4   6 2698.78 481.375   2
  -4  -4   6 3495.97 574.894   1
  -4  -4   6 3298.12 422.755   2
   4   4   6 3687.92 612.633   3
   4  -8   6 2861.50 339.129   2
  -8   4   6 3370.21 392.748   4
  -8   4   6 4401.55 592.260   2
   8  -4   6 2971.09 1587.55   3
   4   4   6 3703.89 530.103   4
  -4  -4   9 8272.95 903.440   1
  -4   8   9 10197.6 1112.93   3
  -8   4   9 7667.50 579.852   4
   4  -8   9 294.925 1490.08   3
   4  -8   9 8583.12 890.639   1
  -8   4   9 8065.00 923.798   3
  -4  -4   9 513.525 1567.71   3
  -8   4   9 8187.13 958.376   2
  -8   4   9 9455.36 853.316   1
   8  -4   9 6990.71 723.283   1
  -4   8   9 7389.32 457.401   1
   8  -4   9 1720.10 1192.61   3
  -4  -4   9 8919.46 824.025   2
   4   4   9 6635.28 990.387   3
   8  -4   9 6752.52 611.191   4
  -4  -4  12 1624.64 1408.69   3
  -8   4  12 2006.64 742.927   2
  -4  -4  12 1926.79 723.459   1
  -4   8  12 1210.78 818.713   3
   4  -8  12-358.356 1945.14   3
  -4  -4  12 1187.04 591.162   2
   8  -4  12 3105.74 1047.86   3
   4  -8  12 1744.15 691.717   1
   4   4  12 1926.76 886.675   3
  -8   4  12 1093.35 767.982   3
  -8   5  -7 4631.14 554.962   1
  -8   5  -7 6659.85 579.714   4
  -8   5  -4 45142.4 1354.36   1
   5   3  -4 43973.2 791.610   4
  -8   5  -4 44217.6 1223.42   4
  -5   8  -4 43104.2 866.028   4
   3  -8  -4 42508.3 1478.53   3
  -5   8  -4 45751.1 1518.92   1
  -8   5  -4 42881.9 1279.38   2
  -3  -5  -1 30567.6 944.557   2
  -8   5  -1 29735.3 880.287   2
   5   3  -1 31265.6 813.110   2
   3  -8  -1 30464.7 932.174   3
  -5   8  -1 29228.5 629.348   2
  -3  -5  -1 28525.2 777.315   1
   8  -3  -1 32377.5 931.638   4
   8  -3  -1 31318.3 958.080   2
  -8   5  -1 28993.5 906.610   4
   3  -8  -1 31750.2 892.384   1
  -8   5  -1 30422.5 1021.35   1
  -3  -5  -1 31071.8 956.627   3
  -5   8  -1 28918.1 851.303   4
   5   3  -1 31928.2 872.236   4
   5   3  -1 29779.1 764.249   3
  -3  -5  -1 31959.2 1056.39   4
  -5   8  -1 30591.7 1047.63   1
   3  -8   2 8770.35 644.365   1
   5   3   2 8542.35 593.325   4
   8  -3   2 8512.78 539.250   4
  -3  -5   2 8602.37 384.345   2
  -3  -5   2 9152.50 451.492   4
  -8   5   2 9670.42 345.176   3
  -3  -5   2 9294.67 545.907   3
   5   3   2 9162.01 602.432   2
   8  -3   2 9647.74 582.191   2
  -8   5   2 9820.43 612.395   2
  -5   8   2 9923.91 544.539   1
   8  -3   2 8671.06 579.105   1
  -5   8   2 9277.93 548.267   3
  -8   5   2 9347.66 609.938   1
  -3  -5   2 9629.85 664.029   1
   5   3   2 8974.77 608.918   3
   3  -8   2 8199.66 573.060   3
  -8   5   2 9730.63 573.903   4
   8  -3   5 15711.7 919.176   2
  -5   8   5 16097.7 950.356   3
  -3  -5   5 15389.9 702.398   2
  -3  -5   5 16429.9 988.437   1
  -5   8   5 15614.0 658.655   1
   3  -8   5 14736.3 938.014   1
   8  -3   5 15488.9 780.658   4
  -8   5   5 13476.4 782.905   3
   3  -8   5 15618.7 584.943   2
   8  -3   5 16117.9 805.085   1
  -8   5   5 16372.1 982.374   2
  -8   5   5 15811.5 770.525   4
   5   3   5 15509.2 1032.13   3
   5   3   5 14156.5 873.469   4
   5   3   8 5991.09 906.466   3
  -5   8   8 4893.50 469.308   1
   3  -8   8 4525.28 539.178   2
  -8   5   8 5632.98 735.219   3
  -5   8   8 5419.62 457.127   1
  -5   8   8 3500.66 633.267   3
   8  -3   8 4966.58 1177.55   3
  -8   5   8 5002.00 500.049   4
   3  -8   8 5767.80 782.813   1
   8  -3   8 4774.63 578.264   1
  -8   5   8 4922.90 752.088   2
  -3  -5   8 4983.18 743.093   1
  -3  -5   8 4828.71 599.300   2
  -8   5   8 5674.57 607.809   1
   8  -3   8 4812.95 548.976   4
   8  -3  11 3275.95 985.266   3
   5   3  11 2927.32 853.975   3
  -3  -5  11-1701.36 1825.41   3
  -5   8  11 1543.92 472.791   4
  -8   5  11 2828.10 758.164   2
   3  -8  11-2158.15 2323.63   3
  -8   5  11 3427.48 805.688   3
   3  -8  11 2639.41 682.622   1
  -5   8  11 3162.42 829.815   3
  -3  -5  11 2084.20 652.553   1
  -8   5  11 3326.83 656.991   1
  -3  -5  11 1602.69 556.083   2
  -8   6  -8 8460.73 617.243   4
  -8   6  -5 4985.68 519.748   2
  -6   8  -5 4878.65 346.561   4
  -8   6  -5 4835.98 442.181   4
  -8   6  -5 4388.80 516.129   1
  -6   8  -5 5361.09 601.890   1
   6   2  -2 33145.0 838.809   4
   8  -2  -2 33018.1 934.480   4
   8  -2  -2 32559.7 1038.41   2
  -8   6  -2 30531.3 932.928   4
  -6   8  -2 33183.8 895.729   4
   2  -8  -2 32481.2 789.295   1
  -6   8  -2 30846.9 672.669   2
  -2  -6  -2 32894.9 691.794   1
  -2  -6  -2 30327.2 1067.95   3
   6   2  -2 31921.5 908.831   2
  -8   6  -2 31670.2 1095.36   1
  -8   6  -2 31145.2 911.953   2
   2  -8  -2 30033.4 1034.82   3
  -6   8  -2 31454.6 1125.73   1
   8  -2   1 31626.4 1002.03   1
   2  -8   1 29416.2 1023.18   1
  -6   8   1 30464.4 980.183   1
   6   2   1 33125.4 1004.75   2
  -2  -6   1 31209.3 719.713   2
  -6   8   1 31057.8 1023.40   4
  -8   6   1 31527.0 996.554   2
   8  -2   1 30775.2 859.029   3
   8  -2   1 32345.1 971.680   2
   8  -2   1 30893.3 951.235   4
  -6   8   1 29755.6 842.718   3
   6   2   1 30153.7 870.752   3
  -2  -6   1 30413.2 1023.11   1
   2  -8   1 30051.3 998.927   3
  -8   6   1 31753.0 596.701   3
  -8   6   1 31690.8 1058.35   1
  -2  -6   1 30995.3 937.224   3
  -8   6   1 31261.0 988.755   4
  -6   8   1 29841.9 926.366   2
   6   2   4 9255.22 657.974   4
   8  -2   4 8083.78 557.950   1
  -8   6   4 8039.26 538.021   3
  -2  -6   4 8764.23 435.014   2
   6   2   4 8191.67 696.840   2
  -6   8   4 9009.57 558.020   1
   8  -2   4 9060.76 610.241   4
  -2  -6   4 8515.47 723.892   1
   8  -2   4 6536.02 1320.32   3
  -8   6   4 9357.38 649.124   1
  -6   8   4 8642.83 629.864   3
  -8   6   4 9835.93 626.645   4
   6   2   4 8661.60 739.313   3
  -8   6   4 8821.36 717.397   2
   8  -2   4 8622.24 675.992   2
   2  -8   4 7946.15 323.295   2
   2  -8   4 9484.01 761.274   1
   2  -8   4 7251.46 312.746   2
   6   2   7 31926.0 1715.67   3
  -8   6   7 32647.5 1474.27   3
  -8   6   7 32148.8 1202.21   4
  -2  -6   7 32825.4 1544.68   1
   2  -8   7 30077.5 1068.86   2
  -6   8   7 32902.4 1558.21   3
   2  -8   7 31308.0 1491.07   1
  -8   6   7 32050.3 1571.38   2
   8  -2   7 32089.3 1153.35   1
  -2  -6   7 32389.1 1179.07   2
   8  -2   7 32369.8 1255.75   4
  -6   8   7 34516.1 1087.48   1
  -6   8   7 32995.7 1115.34   1
   8  -2  10 8116.22 709.110   1
  -6   8  10 9454.38 866.128   4
  -8   6  10 9047.66 730.329   4
  -8   6  10 8522.54 1030.11   3
  -2  -6  10 2756.44 2441.55   3
   6   2  10 9908.59 1227.49   3
  -2  -6  10 9777.33 1020.25   1
  -8   6  10 10847.7 887.941   1
  -6   8  10 10566.5 1166.92   3
  -8   6  10 9977.47 1107.80   2
  -2  -6  10 9128.69 861.810   2
  -6   8  10 10413.9 688.242   1
   2  -8  10 10188.8 1052.21   1
   8  -2  10 12145.7 1409.91   3
   2  -8  10 419.472 1924.55   3
  -7   8  -6 2419.82 485.759   1
  -7   8  -6 3332.89 333.168   4
  -8   7  -6 3272.98 520.139   1
  -8   7  -6 2923.74 370.649   4
  -1  -7  -3 51282.6 1542.71   3
  -7   8  -3 53326.1 1081.82   2
  -8   7  -3 53410.3 1500.34   1
   8  -1  -3 53878.5 1180.02   4
  -7   8  -3 52982.5 1523.36   1
  -8   7  -3 52508.2 1217.95   2
   8  -1  -3 55216.7 1435.10   2
  -1  -7  -3 46548.2 660.637   1
   1  -8  -3 51497.2 1536.42   3
  -7   8  -3 50301.9 1127.07   4
   7   1  -3 53048.4 1323.91   2
   1  -8  -3 49456.9 823.945   1
  -8   7  -3 51094.3 1210.74   4
   7   1  -3 54867.6 1118.99   4
  -7   8   0 3368.87 336.598   2
  -8   7   0 4083.96 426.191   4
   8  -1   0 3585.10 364.671   4
   1  -8   0 3490.94 376.525   1
  -8   7   0 3935.96 461.857   1
  -1  -7   0 3689.64 386.232   1
   1  -8   0 3552.94 403.389   3
   8  -1   0 4055.26 251.652   3
   8  -1   0 4410.34 396.637   2
   7   1   0 3741.01 384.723   4
  -7   8   0 4005.79 406.370   4
  -1  -7   0 3745.49 394.410   3
  -7   8   0 3464.14 422.260   1
   7   1   0 3827.97 297.867   3
  -8   7   0 3387.31 361.978   2
   7   1   0 3858.38 369.243   2
  -7   8   0 3528.98 332.216   3
  -1  -7   0 4267.78 341.616   2
  -8   7   3 13980.7 743.387   4
  -1  -7   3 13127.6 823.727   1
   7   1   3 12668.4 768.107   2
  -8   7   3 13608.1 595.759   3
  -7   8   3 11213.4 613.518   3
  -8   7   3 14670.5 840.111   2
   8  -1   3 12749.3 708.384   4
   8  -1   3 14600.4 884.733   3
  -1  -7   3 11866.1 370.113   2
   7   1   3 13431.6 749.253   4
   7   1   3 12287.3 763.755   3
  -8   7   3 13231.2 724.534   1
  -7   8   3 12991.3 683.610   1
  -1  -7   3 13858.3 782.315   3
   1  -8   3 13064.3 831.700   1
   8  -1   3 12805.5 760.565   2
   8  -1   3 13622.8 659.631   1
  -7   8   3 12544.9 731.167   4
  -1  -7   6 7023.60 490.160   2
   8  -1   6 7265.03 909.770   3
  -7   8   6 6930.49 568.796   1
   8  -1   6 8219.77 552.926   1
  -8   7   6 7417.60 621.702   4
   7   1   6 7943.50 887.081   3
  -8   7   6 7588.71 635.853   1
   8  -1   6 5895.44 610.891   4
   1  -8   6 6421.47 438.060   2
   7   1   6 6402.32 409.189   1
  -1  -7   6 7426.46 734.374   1
   1  -8   6 7320.83 477.350   2
  -7   8   6 8061.48 750.492   3
  -8   7   6 7007.66 674.993   3
   7   1   6 7733.81 673.978   4
   1  -8   6 7319.03 769.740   1
  -8   7   9 5734.97 619.399   1
  -1  -7   9 4525.25 731.594   1
  -8   7   9 5629.44 828.376   3
   8  -1   9 5532.45 530.386   1
  -1  -7   9 1726.47 1450.11   3
  -7   8   9 5251.28 653.009   4
  -8   7   9 5322.14 584.194   4
  -7   8   9 6938.34 873.449   3
   1  -8   9 4968.32 576.374   2
   7   1   9 5943.20 1022.12   3
   8  -1   9 6695.17 1018.55   3
  -8   7   9 4255.57 774.458   2
   7   1   9 3395.59 338.483   1
  -1  -7   9 5272.30 615.696   2
  -7   8   9 5256.29 548.684   1
   1  -8   9 4349.36 719.904   1
  -8   7  12 2996.05 907.652   3
  -1  -7  12 2581.62 803.311   1
   1  -8  12 1887.60 673.705   1
   8  -1  12 3024.04 1018.70   3
  -1  -7  12 368.881 2051.24   3
  -7   8  12 854.918 715.342   3
   1  -8  12-1730.03 2589.59   3
  -8   7  12 740.925 601.800   2
  -7   8  12 1536.73 685.062   2
   7   1  12 595.885 785.284   3
  -8   8  -7 60.5036 215.051   4
   8   0  -4 25060.8 815.113   4
  -8   8  -4 25074.1 859.875   4
  -8   8  -4 24348.3 890.088   2
  -8   8  -4 24358.1 1110.11   1
   0  -8  -4 25760.4 1211.11   3
  -8   8  -1 66.6343 283.922   1
  -8   8  -1-264.996 233.428   4
  -8   8  -1-60.1959 165.148   2
   0  -8  -1 35.0047 235.611   3
   8   0  -1 28.9323 178.087   4
   8   0  -1-147.144 226.837   2
   8   0  -1 118.871 118.239   3
   0  -8  -1-35.5583 200.883   1
  -8   8   2 58897.0 1495.82   2
   0  -8   2 57098.6 1438.39   3
  -8   8   2 58287.6 1144.72   3
   8   0   2 56136.6 1385.26   3
   8   0   2 57389.4 1477.55   2
   0  -8   2 52415.4 638.736   2
  -8   8   2 55957.2 1451.39   4
   8   0   2 59147.8 1450.07   4
  -8   8   2 56451.7 1447.30   1
  -8   8   5-319.739 291.404   4
  -8   8   5-61.4613 256.832   3
   0  -8   5-69.3600 149.115   2
   0  -8   5-35.8289 362.676   1
   8   0   5 49.4810 368.192   3
   8   0   5-97.1722 275.653   4
  -8   8   5-75.9103 232.445   1
   8   0   5-6.03794 184.705   1
  -8   8   8 10928.4 978.271   3
  -8   8   8 11418.6 780.236   1
   0  -8   8 10987.2 718.632   2
  -8   8   8 10371.8 806.962   4
   0  -8   8 11494.8 1027.85   1
   8   0   8 11134.3 1191.03   3
   0  -8   8 9477.84 712.409   2
   8   0   8 9712.11 598.635   1
  -8   8   8 11339.6 848.900   1
   0  -8  11 201.800 507.708   1
   8   0  11 753.594 742.871   3
  -8   8  11-74.7542 353.116   4
  -8   8  11 483.241 641.904   3
  -8   8  11-547.258 628.107   2
   0  -8  11 442.848 417.929   2
  -9   0  -6 7764.52 518.016   1
  -9   0  -6 7519.36 733.650   4
  -9   0  -3-59.6897 220.139   1
  -9   0  -3-2.23827 294.012   4
   0   9  -3 366.902 189.700   4
  -9   0  -3-132.801 292.290   2
   0   9  -3 101.462 316.021   1
   9  -9  -3-50.9631 208.737   3
  -9   0   0 47869.2 1311.28   2
   9  -9   0 52655.9 1261.89   2
   0   9   0 51703.3 1321.40   1
   9  -9   0 50406.7 1115.66   3
   9  -9   0 50242.1 1360.79   4
   9  -9   0 53789.1 1551.52   1
   0   9   0 47974.3 1346.81   3
  -9   0   0 50353.0 1383.00   4
   0   9   0 51054.4 1097.28   2
  -9   0   0 48635.1 940.807   3
   0   9   3 37.0744 303.370   4
  -9   0   3 25.3914 154.125   3
   0   9   3 65.4376 328.994   3
   0   9   3-45.7542 131.281   1
   0   9   3 325.722 307.833   2
   9  -9   3-37.8059 182.242   2
   9  -9   3 99.7166 209.566   4
  -9   0   3 165.633 221.751   2
  -9   0   3 139.442 207.972   4
   9  -9   3-145.454 334.280   1
   0   9   6 3437.03 662.654   3
  -9   0   6 3118.92 334.736   4
   9  -9   6 2407.69 389.578   2
  -9   0   6 2696.14 522.633   1
  -9   0   6 3246.06 487.904   2
   9  -9   6 3583.69 585.110   1
   9  -9   6 2949.78 366.074   4
  -9   0   9 393.986 359.542   2
  -9   0   9-1139.88 886.007   3
  -9   0   9-121.543 421.774   1
  -9   0   9-45.2151 110.799   4
   9  -9   9-675.480 1849.87   3
   9  -9   9-283.462 485.651   1
   0   9   9 662.013 642.938   3
  -9   0  12 6120.95 965.556   1
   0   9  12 6513.41 1221.20   3
  -9   0  12 4448.31 840.570   2
  -9   0  12 7591.50 1201.73   3
  -9   1  -7 27362.3 1337.39   4
  -8  -1  -7 24750.2 784.748   1
  -9   1  -7 25741.9 966.714   1
  -8  -1  -7 26605.4 1365.11   4
  -8  -1  -4 4167.55 550.671   4
  -8  -1  -4 3635.13 530.412   2
   8  -9  -4 4769.68 516.604   3
  -1   9  -4 3522.17 256.745   4
   1   8  -4 4310.91 574.734   1
  -8  -1  -4 4010.10 355.283   1
  -1   9  -4 3651.30 232.832   4
  -9   1  -4 3939.84 508.208   4
   1   8  -4 3766.22 237.791   4
  -1   9  -4 4128.37 540.011   1
  -9   1  -4 3792.77 537.777   2
  -9   1  -4 3757.26 425.510   1
   1   8  -1 44381.7 857.766   2
   1   8  -1 43474.4 1156.61   4
   9  -8  -1 44438.1 1355.93   1
   9  -8  -1 43647.6 1280.18   4
   9  -8  -1 41075.0 1194.43   2
  -1   9  -1 40838.1 1223.86   3
   8  -9  -1 43720.0 1315.81   1
  -8  -1  -1 42164.2 1295.04   4
   1   8  -1 43189.3 1281.43   1
   1   8  -1 40283.4 1194.88   3
   8  -9  -1 42795.0 1007.75   3
  -1   9  -1 43538.1 771.608   2
  -1   9  -1 42002.6 1285.10   1
  -9   1  -1 42579.3 1229.57   1
  -8  -1  -1 39996.6 1057.85   3
  -9   1  -1 41554.6 1273.18   4
  -8  -1  -1 43484.8 1274.17   2
   9  -8  -1 42889.6 874.087   3
   8  -9   2 12991.4 661.451   4
  -9   1   2 13624.9 676.959   4
  -1   9   2 15051.3 591.065   1
   8  -9   2 14343.8 565.801   2
   9  -8   2 15436.5 737.684   4
   1   8   2 14258.2 843.103   4
   9  -8   2 13535.0 612.053   2
   1   8   2 14150.4 774.809   2
  -8  -1   2 14536.3 670.758   4
   9  -8   2 13441.1 809.893   1
  -8  -1   2 14942.9 720.051   2
   1   8   2 10775.0 702.838   3
  -9   1   2 13780.4 396.535   3
  -9   1   2 14527.3 743.873   2
   1   8   2 14092.7 538.543   1
   8  -9   2 13253.0 826.093   1
  -8  -1   2 14405.6 514.919   3
  -1   9   2 13475.8 764.737   3
   9  -8   5 19350.6 872.103   2
   8  -9   5 18317.3 772.781   2
   1   8   5 19841.3 1128.77   4
  -8  -1   5 19715.9 971.082   2
  -1   9   5 20541.7 1169.72   3
  -9   1   5 19956.7 1023.37   2
   8  -9   5 18478.1 1073.87   1
  -8  -1   5 19385.3 692.346   4
  -1   9   5 17885.5 1081.10   4
   8  -9   5 19154.7 771.431   4
   1   8   5 18848.6 1133.83   3
   9  -8   5 19365.1 832.250   4
   9  -8   5 18751.4 1065.80   1
  -9   1   5 18478.2 740.072   4
  -8  -1   8 744.726 1191.40   3
   1   8   8 16148.9 1302.76   3
   9  -8   8 13082.2 710.844   4
  -1   9   8 15050.3 1263.24   3
   8  -9   8-1152.41 1546.91   3
  -8  -1   8 9381.78 404.664   4
  -9   1   8 12132.6 578.112   4
   9  -8   8 15040.2 1085.34   1
   8  -9   8 13174.8 1028.16   1
  -8  -1   8 13429.2 1080.55   1
   8  -9   8 12964.7 603.993   4
   9  -8   8 2661.51 2149.12   3
   8  -9   8 11286.1 837.873   2
  -8  -1   8 14511.6 1031.15   2
  -9   1   8 15065.9 1106.39   2
  -9   1   8 14963.9 1112.55   1
  -9   1  11 11409.0 1255.58   3
   9  -8  11 6596.49 916.135   1
  -8  -1  11 9507.53 1070.17   1
  -9   1  11 9916.43 1101.28   2
  -9   1  11 9446.12 1040.99   1
   9  -8  11 1439.15 1871.43   3
   8  -9  11 1227.79 2200.24   3
  -8  -1  11 15226.1 1690.53   3
   1   8  11 12287.1 1418.43   3
   8  -9  11 8445.40 1011.44   1
  -1   9  11 12844.3 1460.48   3
  -8  -1  11 10173.6 1071.33   2
  -9   2  -8 3771.41 589.481   4
  -9   2  -8 2967.34 472.190   1
  -7  -2  -5 21350.3 1105.59   4
  -9   2  -5 20847.8 1057.58   4
  -7  -2  -5 21280.3 638.462   1
  -9   2  -5 21406.4 891.244   1
  -9   2  -5 20026.3 1089.30   2
  -9   2  -2 18443.8 819.126   1
  -7  -2  -2 18879.2 908.562   2
   9  -7  -2 19231.7 898.281   2
   2   7  -2 19932.3 934.334   1
   7  -9  -2 19735.5 855.113   1
   7  -9  -2 18381.5 750.998   3
   2   7  -2 18969.7 691.541   4
  -7  -2  -2 18680.4 709.115   1
   9  -7  -2 20212.0 602.683   3
  -9   2  -2 19214.7 894.257   2
   2   7  -2 19082.6 523.359   2
  -7  -2  -2 18523.4 873.001   3
  -9   2  -2 19009.1 873.702   4
   9  -7  -2 18295.2 843.902   4
  -7  -2  -2 19646.4 945.723   4
  -2   9  -2 17917.7 903.090   1
   9  -7   1 27565.3 896.366   2
  -9   2   1 28010.9 946.505   4
  -7  -2   1 26189.4 887.293   2
   7  -9   1 27567.1 940.336   4
   7  -9   1 29455.7 951.644   3
  -7  -2   1 29149.2 735.113   3
  -9   2   1 28992.4 984.431   2
   7  -9   1 27665.1 749.370   2
  -2   9   1 26747.7 866.419   1
   9  -7   1 27479.9 1106.54   1
  -2   9   1 28595.1 1017.29   3
  -7  -2   1 27028.2 912.908   4
   2   7   1 25135.1 1036.61   4
   2   7   1 27777.4 948.001   2
   9  -7   1 26008.9 930.835   4
   2   7   1 26683.8 996.508   3
   7  -9   4 246.800 169.681   2
   2   7   4 570.423 350.087   2
  -7  -2   4 248.119 232.057   2
  -9   2   4 424.124 213.990   4
   2   7   4 476.749 364.545   3
  -7  -2   4 181.565 187.716   4
   7  -9   4 106.688 170.955   4
   9  -7   4-51.0255 326.962   1
   2   7   4 16.7364 313.870   4
  -2   9   4 611.279 367.932   3
   9  -7   4 331.126 216.319   2
  -9   2   4 189.130 280.248   2
   9  -7   4-25.9927 209.152   4
  -2   9   4 148.526 98.5705   1
   7  -9   4 205.198 337.205   1
  -9   2   7 5812.88 455.195   4
   7  -9   7 4760.34 355.109   4
  -7  -2   7 5954.51 725.900   1
   7  -9   7 5554.00 735.863   1
  -7  -2   7 3460.91 234.688   4
   9  -7   7 929.687 1575.26   3
  -7  -2   7 5635.83 621.435   2
   7  -9   7 5287.86 540.398   2
  -9   2   7 5352.02 660.411   2
  -9   2   7-332.408 696.883   3
   9  -7   7 5392.09 671.949   1
  -9   2   7 5900.22 676.536   1
   2   7   7 6765.00 836.441   3
   9  -7   7 5404.95 501.519   4
  -2   9   7 4530.29 692.148   3
  -7  -2   7-14.9504 836.692   3
  -7  -2  10 2443.84 642.552   1
   7  -9  10 2153.23 583.934   1
   2   7  10 1824.98 752.152   3
  -9   2  10 3695.41 787.834   3
  -2   9  10 2597.20 771.333   3
  -9   2  10 1657.85 526.655   1
  -7  -2  10 804.887 1326.01   3
  -7  -2  10 2987.27 643.811   2
   9  -7  10 2370.59 590.484   1
  -9   2  10 2392.57 644.501   2
  -9   3  -9 272.265 355.689   1
  -9   3  -6 19009.3 1011.93   4
  -9   3  -6 19434.1 913.614   1
  -6  -3  -3 11918.7 793.957   2
  -9   3  -3 10764.0 670.650   4
  -9   3  -3 11756.5 686.732   1
   3   6  -3 13475.4 515.299   2
  -9   3  -3 12545.0 771.558   2
   6  -9  -3 12177.3 627.381   1
  -3   9  -3 13237.2 848.174   1
   6  -9  -3 11717.6 706.120   3
  -6  -3  -3 13074.4 838.373   4
  -6  -3  -3 13184.5 859.931   3
   3   6  -3 11924.9 466.766   4
  -3   9  -3 11987.8 487.500   4
  -6  -3  -3 11885.2 503.258   1
  -9   3   0 85476.7 1633.30   2
   3   6   0 86560.7 1669.18   4
  -6  -3   0 86366.0 1390.46   3
  -6  -3   0 85851.4 1678.72   4
  -3   9   0 80982.4 1609.87   1
   6  -9   0 82982.9 1733.56   1
  -6  -3   0 82941.4 1563.77   2
   3   6   0 85932.0 1596.09   3
  -9   3   0 82653.7 1616.79   4
   3   6   0 87127.7 1446.54   2
   9  -6   0 85831.1 1829.97   1
   9  -6   0 89121.6 1668.41   4
   9  -6   0 84270.5 1084.86   3
   9  -6   0 88168.2 1614.71   2
   6  -9   0 87261.4 1532.53   3
  -3   9   0 86153.1 1660.66   3
  -9   3   0 90559.6 1818.41   1
   3   6   3 1034.79 377.586   2
   3   6   3 684.629 297.493   4
   9  -6   3 1201.32 303.084   2
  -9   3   3 1294.71 305.564   2
  -6  -3   3 1387.97 252.895   3
   6  -9   3 925.684 231.019   4
  -3   9   3 1139.97 200.286   1
   6  -9   3 1257.64 420.068   1
  -9   3   3 1014.73 265.381   4
  -6  -3   3 968.089 212.738   4
  -6  -3   3 1177.87 238.245   2
   9  -6   3 1212.01 346.132   1
   9  -6   3 994.846 264.360   4
  -9   3   3 1367.73 303.980   3
  -3   9   3 1123.64 352.979   3
   3   6   3 1085.70 377.153   3
   6  -9   3 1114.49 169.847   2
   9  -6   6 16816.7 978.715   1
  -3   9   6 12605.2 423.012   1
  -3   9   6 13321.3 422.475   1
   3   6   6 17149.6 1182.62   3
  -9   3   6 17628.8 1060.88   2
   9  -6   6 15241.5 917.714   2
  -9   3   6 21636.6 1294.12   3
   6  -9   6 15863.0 737.113   2
   9  -6   6 17273.9 821.489   4
  -6  -3   6 17075.0 1091.32   1
  -6  -3   6 14375.1 436.300   4
   6  -9   6 16116.8 573.319   4
   6  -9   6 16437.7 1066.56   1
  -6  -3   6 17613.5 925.828   2
  -3   9   6 18119.5 1163.25   3
  -9   3   6 17330.8 779.550   4
  -6  -3   9 797.901 495.256   1
   6  -9   9 1030.70 526.112   1
   6  -9   9-71.1329 1514.60   3
   3   6   9-439.069 610.733   3
  -9   3   9 954.560 513.294   2
  -6  -3   9 495.570 369.679   2
   9  -6   9 896.898 1594.43   3
  -9   3   9 571.999 269.777   4
  -9   3   9 2160.88 608.550   3
  -9   3   9 695.138 408.754   1
   9  -6   9 971.529 467.386   1
  -3   9   9 38.8681 500.799   3
  -6  -3  12 4075.83 836.170   1
  -6  -3  12 8511.73 1625.19   3
   9  -6  12 4452.23 1226.53   3
   3   6  12 10176.5 1400.59   3
  -9   3  12 3784.73 852.753   2
  -6  -3  12 5397.69 854.762   2
   6  -9  12 5518.62 924.038   1
  -3   9  12 6486.96 1125.85   3
  -9   3  12 4706.94 977.456   3
   6  -9  12 1532.24 2365.85   3
  -9   4  -7 34805.0 1346.97   4
  -9   4  -7 31583.2 1278.32   1
  -5  -4  -4 655.055 388.224   4
  -5  -4  -4 569.295 106.266   1
  -4   9  -4 639.092 344.787   1
   4   5  -4 509.390 125.809   4
  -9   4  -4 976.876 316.247   4
  -4   9  -4 710.435 153.439   4
  -5  -4  -4 283.475 546.307   3
   5  -9  -4 659.374 334.255   3
  -9   4  -4 999.570 335.315   1
  -9   4  -4 605.236 300.188   2
  -9   4  -1 28800.3 970.743   4
   4   5  -1 29494.0 899.829   4
  -4   9  -1 28461.3 982.471   3
   5  -9  -1 27138.5 907.253   3
   9  -5  -1 31298.4 1002.73   4
   5  -9  -1 32079.0 1010.28   1
   4   5  -1 27335.8 869.590   3
  -9   4  -1 28535.4 954.457   2
   9  -5  -1 30710.6 1011.52   2
  -5  -4  -1 28540.8 938.649   3
   4   5  -1 29531.1 780.466   2
  -4   9  -1 28812.6 1014.22   1
  -4   9  -1 29619.9 591.341   2
  -5  -4  -1 28446.4 989.817   2
  -9   4  -1 28871.5 1038.58   1
  -5  -4  -1 29312.9 1067.12   4
  -5  -4   2 3258.31 455.675   1
  -4   9   2 4284.74 379.975   1
   9  -5   2 4028.44 407.623   4
  -4   9   2 3604.22 422.606   3
   9  -5   2 3925.77 386.506   2
  -9   4   2 3347.37 373.355   4
  -5  -4   2 3660.31 339.168   4
   4   5   2 3801.26 451.765   2
  -5  -4   2 3287.50 324.098   2
   4   5   2 3324.52 438.265   4
   5  -9   2 3033.99 189.777   2
   5  -9   2 3580.69 425.393   3
   5  -9   2 2747.06 457.770   1
  -5  -4   2 3888.72 364.288   3
   4   5   2 3748.55 431.304   3
  -9   4   2 4389.48 454.462   2
   9  -5   2 3807.51 467.958   1
   5  -9   5 24185.4 735.071   2
  -9   4   5 22268.0 985.732   3
  -9   4   5 21421.6 1118.00   2
  -9   4   5 23579.2 922.019   4
  -5  -4   5 18299.6 546.783   4
   5  -9   5 23670.2 1213.94   1
  -5  -4   5 24824.5 947.530   2
   4   5   5 24313.3 1188.75   4
  -5  -4   5 24707.7 1235.92   1
   9  -5   5 24721.9 1093.33   1
   9  -5   5 22285.6 1027.81   2
  -4   9   5 23739.1 1185.27   3
   4   5   5 21136.9 1214.63   3
  -4   9   5 24877.0 713.089   1
   9  -5   5 20859.2 2390.49   3
   9  -5   5 23661.2 954.031   4
  -4   9   8-181.439 446.670   3
  -4   9   8 847.052 188.193   1
   4   5   8 1413.11 647.135   3
  -5  -4   8 904.083 374.047   2
   9  -5   8-82.7276 1590.22   3
   9  -5   8 794.016 361.154   1
  -5  -4   8 1208.82 497.072   1
  -9   4   8 722.483 414.867   3
  -9   4   8 548.364 465.728   2
   5  -9   8 809.777 348.725   2
   9  -5   8 754.605 312.374   4
  -5  -4   8 109.876 1214.41   3
  -9   4   8 728.729 407.953   1
  -4   9   8 894.164 184.907   1
   5  -9   8 297.227 409.277   1
  -9   4   8 730.650 259.318   4
   5  -9  11 6545.03 933.224   1
   5  -9  11 685.230 2458.91   3
  -9   4  11 6255.87 968.224   2
  -5  -4  11 6359.18 862.143   2
  -5  -4  11 4198.81 846.134   1
   4   5  11 6368.69 1141.78   3
   9  -5  11 8321.38 1341.61   3
  -5  -4  11 712.904 1857.83   3
  -9   4  11 8839.17 1061.07   3
  -9   4  11 8035.44 896.063   1
  -4   9  11 9046.41 1175.78   3
  -9   5  -8 186.532 300.732   4
  -9   5  -8 405.186 395.668   1
  -5   9  -5 24779.7 640.146   4
  -9   5  -5 24835.6 1009.74   4
   5   4  -5 21410.9 494.327   4
  -5   9  -5 23421.4 1200.40   1
  -9   5  -5 24362.5 1101.47   2
   4  -9  -5 23891.1 1302.69   3
  -9   5  -5 25885.8 1081.98   1
  -4  -5  -2 2742.65 444.463   4
  -4  -5  -2 2672.08 384.119   3
   9  -4  -2 2778.37 336.223   4
   4  -9  -2 3048.62 336.622   1
   5   4  -2 2871.90 300.034   2
   5   4  -2 2960.80 299.158   4
  -5   9  -2 2346.47 297.655   4
  -4  -5  -2 1935.48 363.387   2
  -9   5  -2 3209.22 379.572   2
   9  -4  -2 2574.36 399.655   2
  -5   9  -2 1837.83 389.446   1
  -5   9  -2 2109.51 169.433   2
  -9   5  -2 2550.96 340.790   4
  -9   5  -2 2671.09 423.099   1
   4  -9  -2 2299.75 363.646   3
  -4  -5   1 30353.6 929.125   4
   9  -4   1 32583.6 997.596   2
  -4  -5   1 31191.3 837.228   2
   9  -4   1 32632.7 1118.73   1
   4  -9   1 32569.6 1030.84   3
   5   4   1 32116.8 1077.12   4
  -5   9   1 32749.3 993.483   1
   4  -9   1 31628.1 1103.07   1
   5   4   1 32323.8 1009.80   3
  -4  -5   1 33010.4 942.185   3
  -9   5   1 32789.5 1040.55   4
  -5   9   1 31395.8 974.548   3
   5   4   1 33330.6 1035.87   2
  -9   5   1 31922.3 1048.71   2
   9  -4   1 32444.1 1014.53   4
  -9   5   1 31581.2 1112.69   1
  -4  -5   1 32828.3 1083.93   1
   9  -4   4 247.394 287.890   1
   9  -4   4 535.203 260.714   2
   5   4   4 503.763 276.777   4
  -5   9   4 562.431 307.411   3
  -9   5   4 1116.58 297.379   4
  -5   9   4 859.534 227.081   1
   5   4   4 1001.77 384.846   3
  -9   5   4 1068.68 358.905   2
   4  -9   4 632.926 127.376   2
  -9   5   4 678.035 231.352   3
  -4  -5   4 420.398 168.992   2
  -4  -5   4 581.656 134.812   4
   4  -9   4 34.6893 354.166   1
   9  -4   4 510.567 215.767   4
   5   4   4 462.426 351.938   2
  -4  -5   4 724.305 342.450   1
  -4  -5   7 31635.5 1226.22   2
  -5   9   7 30884.9 1543.83   3
  -9   5   7 30347.3 1507.66   2
  -9   5   7 30831.6 1130.76   4
  -4  -5   7 30764.3 1510.58   1
   9  -4   7 27780.3 1129.83   4
   9  -4   7 30141.2 1233.40   1
  -5   9   7 30014.8 929.074   1
   5   4   7 32606.4 1716.78   3
   4  -9   7 32728.8 1549.04   1
  -9   5   7 29511.3 1382.36   3
   4  -9   7 27712.6 1010.71   2
  -5   9   7 32278.6 899.447   1
   4  -9  10 1142.45 1782.90   3
  -9   5  10 63.2313 468.653   2
   9  -4  10 1183.79 428.427   1
   5   4  10 315.084 545.777   3
  -4  -5  10 729.479 446.164   2
   9  -4  10-91.5166 760.359   3
   4  -9  10 595.618 519.876   1
  -9   5  10-19.4717 486.701   3
  -5   9  10 1269.20 707.535   3
  -4  -5  10 237.433 484.544   1
  -9   5  10 475.327 289.905   4
  -9   5  10 1001.59 465.218   1
  -9   6  -6 14283.4 807.572   4
  -6   9  -6 14257.3 548.667   4
  -9   6  -6 15624.1 934.150   1
  -9   6  -3 931.978 276.453   4
   6   3  -3 1467.05 223.219   4
   3  -9  -3 531.981 283.620   3
   9  -3  -3 1360.44 274.514   4
  -6   9  -3 1019.86 337.123   1
  -6   9  -3 695.800 200.872   4
   6   3  -3 1267.97 279.908   2
  -9   6  -3 878.282 320.570   1
   3  -9  -3 1366.98 234.814   1
  -3  -6  -3 1151.51 145.949   1
  -6   9  -3 769.141 170.462   2
   9  -3  -3 786.036 294.853   2
  -9   6  -3 1111.83 295.681   2
  -3  -6  -3 882.073 348.011   3
  -6   9   0 74306.5 1613.35   1
  -9   6   0 65677.5 1481.56   4
   9  -3   0 76098.3 1512.72   2
  -6   9   0 71907.7 1270.45   2
  -3  -6   0 68803.0 1552.05   4
   6   3   0 75547.1 1512.94   4
   9  -3   0 73449.8 897.473   3
   3  -9   0 71365.6 1519.84   3
  -9   6   0 70328.0 1444.11   2
   3  -9   0 70791.1 1537.56   1
  -9   6   0 63260.9 1534.14   1
  -3  -6   0 73784.3 1483.50   1
  -6   9   0 71444.7 1409.74   3
  -3  -6   0 71158.5 1432.17   3
   6   3   0 73566.3 1417.89   2
  -6   9   0 75441.2 1557.62   4
   9  -3   0 75232.2 1512.63   4
  -3  -6   0 72573.9 1347.00   2
   6   3   0 72663.9 1277.61   3
   6   3   3 11704.4 742.919   4
  -9   6   3 11869.6 739.055   1
   3  -9   3 11435.7 779.426   1
  -9   6   3 12182.1 767.628   2
  -9   6   3 12384.2 707.310   4
  -3  -6   3 12213.5 798.266   1
   9  -3   3 11162.3 697.747   2
  -9   6   3 13228.6 532.722   3
   6   3   3 13299.0 795.695   2
  -6   9   3 12162.0 627.793   1
   9  -3   3 11483.5 671.228   1
  -6   9   3 12630.8 704.338   3
   9  -3   3 13031.2 705.455   4
  -3  -6   3 11998.4 473.012   2
  -3  -6   3 12558.4 717.006   3
   6   3   3 13659.3 821.886   3
  -6   9   6 21874.6 1188.07   3
   9  -3   6 19906.2 959.508   4
  -3  -6   6 18616.8 1149.91   1
  -6   9   6 20148.1 819.726   1
  -9   6   6 20434.6 1195.10   2
   6   3   6 18253.0 1042.96   4
   3  -9   6 18833.9 1151.22   1
  -3  -6   6 20148.6 848.660   2
  -9   6   6 19365.5 1011.10   3
  -9   6   6 20313.9 944.771   4
   3  -9   6 19795.6 731.368   2
   9  -3   6 21515.7 993.886   1
   6   3   6 19325.5 1252.21   3
   9  -3   9 124.256 335.596   1
  -9   6   9 69.7949 430.073   2
  -9   6   9 553.149 545.472   3
   9  -3   9 752.996 638.367   3
  -3  -6   9-43.0956 322.773   2
  -9   6   9 684.052 342.887   4
  -6   9   9 714.653 285.297   1
   3  -9   9 1385.16 575.916   1
   6   3   9 1441.27 673.581   3
  -6   9   9 834.610 507.517   3
  -9   6   9-26.3022 343.817   1
  -3  -6   9 475.906 1461.48   3
  -3  -6   9 1241.44 511.425   1
  -9   6  12 4615.28 915.350   2
  -9   6  12 5512.83 1036.30   3
   9  -3  12 5413.69 1249.76   3
  -6   9  12 4765.41 1060.20   3
  -3  -6  12-179.171 1838.53   3
   3  -9  12 3461.13 2563.88   3
   6   3  12 6280.86 1196.60   3
   3  -9  12 4717.56 916.069   1
  -3  -6  12 3335.04 858.918   1
  -9   7  -7 5455.26 520.205   4
  -7   9  -7 5274.59 400.241   4
  -9   7  -4-9.06250 232.653   2
   9  -2  -4 381.477 219.305   4
   2  -9  -4-191.899 316.599   3
  -9   7  -4 48.7813 273.237   1
  -7   9  -4 284.422 314.653   1
  -9   7  -4 160.320 206.588   4
   7   2  -4 223.240 234.051   2
   7   2  -4 686.750 182.137   4
  -2  -7  -4 462.591 337.958   3
  -7   9  -4 155.247 157.047   2
  -7   9  -4 224.264 160.350   4
  -7   9  -1 30302.1 984.855   4
   9  -2  -1 31545.4 1028.02   2
   9  -2  -1 32056.4 987.535   4
  -7   9  -1 30214.7 763.754   2
   2  -9  -1 29126.3 1011.70   3
  -7   9  -1 28297.2 1083.91   1
   7   2  -1 30530.6 931.559   4
  -9   7  -1 31182.3 928.349   2
   7   2  -1 32436.6 955.661   2
  -9   7  -1 30377.7 1121.30   1
  -2  -7  -1 29917.5 869.401   1
   7   2  -1 30663.6 751.522   3
  -2  -7  -1 27516.8 997.465   2
  -2  -7  -1 28334.6 1004.52   3
  -9   7  -1 29496.2 1008.10   4
   2  -9  -1 28837.5 895.704   1
   2  -9   2 19361.3 878.139   3
  -2  -7   2 18167.0 917.284   1
   9  -2   2 20258.4 861.298   2
   7   2   2 18131.0 862.946   4
   2  -9   2 17341.2 897.134   1
   9  -2   2 20178.9 889.079   3
  -9   7   2 18895.7 898.179   2
  -9   7   2 19253.8 899.647   1
  -9   7   2 17472.7 817.702   4
  -7   9   2 17171.5 717.546   3
  -2  -7   2 18694.8 536.973   2
  -2  -7   2 19266.0 827.775   3
   9  -2   2 17943.1 805.084   1
   7   2   2 16822.2 822.448   2
  -7   9   2 17486.0 840.733   2
  -9   7   2 18788.8 556.108   3
   9  -2   2 17320.7 807.699   4
   7   2   2 19038.5 848.382   3
  -7   9   2 18518.7 822.449   1
   9  -2   5 18853.8 859.544   1
  -2  -7   5 19548.1 1119.77   1
  -2  -7   5 20483.0 710.378   2
  -7   9   5 18325.6 989.777   3
   2  -9   5 18187.6 549.454   2
  -9   7   5 21590.9 1157.23   2
   7   2   5 18858.8 995.620   4
  -9   7   5 19121.8 914.024   3
  -9   7   5 19999.6 947.084   4
   2  -9   5 19638.4 1134.29   1
  -9   7   5 18320.3 965.888   1
   2  -9   5 19180.6 563.073   2
  -7   9   5 20280.6 869.647   1
   9  -2   5 17304.7 1023.42   2
   7   2   5 19125.6 1159.32   3
   9  -2   5 18871.7 951.515   4
  -2  -7   8 3012.60 454.993   2
   7   2   8 3200.90 755.064   3
   9  -2   8 3035.97 451.984   1
  -7   9   8 3556.54 471.889   1
   9  -2   8 2881.91 749.981   3
  -7   9   8 2957.46 614.151   3
  -7   9   8 2873.43 510.587   4
  -9   7   8 2160.13 576.865   2
  -9   7   8 3053.99 556.814   1
  -2  -7   8 3674.98 659.040   1
   7   2   8 1538.12 199.975   1
  -9   7   8 3915.74 552.454   1
  -7   9   8 3076.19 422.109   1
  -9   7   8 3222.25 582.121   3
   2  -9   8 2628.88 415.469   2
  -9   7   8 3345.03 507.202   4
   2  -9   8 2630.02 592.964   1
   2  -9   8 3176.73 433.368   2
   9  -2  11 6233.18 1232.58   3
   2  -9  11 4084.85 783.819   1
  -9   7  11 6845.13 1026.08   2
  -7   9  11 7417.55 1078.03   3
   2  -9  11-2107.10 2356.21   3
   7   2  11 8352.65 1229.16   3
  -2  -7  11 5966.56 923.139   1
  -2  -7  11 4632.97 678.310   2
  -2  -7  11-699.304 2014.88   3
   2  -9  11 5716.33 705.546   2
  -7   9  11 6160.69 726.171   4
  -9   7  11 5533.15 962.832   3
  -8   9  -8 15042.0 676.296   4
  -9   8  -8 14933.6 781.946   4
  -9   8  -5 17302.2 858.155   2
  -8   9  -5 18997.8 1093.20   1
   9  -1  -5 19539.2 793.762   4
   8   1  -5 19632.8 703.854   4
  -9   8  -5 18280.0 1016.37   1
  -8   9  -5 18751.2 831.422   2
  -8   9  -5 18988.2 748.988   4
  -9   8  -5 18824.7 828.129   4
  -1  -8  -2 13217.9 786.803   3
   8   1  -2 14857.5 643.181   4
  -9   8  -2 13353.2 693.669   4
  -9   8  -2 14173.1 626.616   2
  -8   9  -2 14495.5 832.292   1
   9  -1  -2 13557.5 707.668   2
   1  -9  -2 14180.6 560.989   1
  -8   9  -2 13742.5 556.099   2
  -9   8  -2 13840.5 839.962   1
   9  -1  -2 15336.8 709.730   4
   8   1  -2 14896.8 714.870   2
  -8   9  -2 15097.6 700.782   4
  -1  -8  -2 14044.2 536.702   1
   1  -9  -2 13824.5 778.349   3
  -1  -8   1 41686.9 842.508   2
  -8   9   1 41128.7 1177.62   2
   9  -1   1 42771.2 1219.82   2
   9  -1   1 40044.0 1192.71   4
   1  -9   1 40656.9 1286.92   1
   8   1   1 43402.2 1228.53   2
  -8   9   1 40549.2 988.773   3
  -1  -8   1 41399.2 1207.70   3
  -9   8   1 42936.4 872.084   3
  -1  -8   1 40253.5 1263.92   1
  -8   9   1 40557.5 1244.14   1
  -9   8   1 41459.2 1301.71   1
   8   1   1 37511.9 1163.01   4
   8   1   1 40646.1 1045.31   3
   9  -1   1 40845.2 990.370   3
  -9   8   1 40400.3 1231.51   4
  -8   9   1 40171.0 1233.71   4
   1  -9   1 40467.8 1215.31   3
  -9   8   1 42055.0 1199.89   2
  -9   8   4 4229.87 507.064   4
  -1  -8   4 3597.87 538.812   1
  -8   9   4 3999.99 447.307   3
  -8   9   4 3759.81 505.757   4
   8   1   4 3808.85 516.892   2
  -9   8   4 3937.32 494.212   1
   9  -1   4 3776.12 474.305   4
  -9   8   4 3817.44 535.423   2
   9  -1   4 4250.56 518.930   2
   8   1   4 3333.93 457.837   4
   8   1   4 3355.42 528.319   3
   9  -1   4 3353.98 402.635   1
  -9   8   4 3227.42 371.641   3
   1  -9   4 4038.75 576.014   1
   9  -1   4 3973.05 568.918   3
  -8   9   4 3570.65 447.047   1
   1  -9   4 2121.07 135.365   2
  -1  -8   4 3660.08 253.208   2
   1  -9   7 25088.6 916.068   2
  -8   9   7 27289.4 1273.14   4
   1  -9   7 27512.4 1476.87   1
   9  -1   7 27191.6 1018.74   1
  -1  -8   7 25817.9 966.376   2
  -9   8   7 24450.6 1167.82   1
  -9   8   7 25681.7 1178.40   4
  -9   8   7 26100.6 1464.11   2
   8   1   7 23339.5 775.669   1
   9  -1   7 25741.2 1616.15   3
  -8   9   7 25579.6 1335.47   3
  -1  -8   7 26999.1 1457.09   1
  -8   9   7 24770.1 1093.22   1
  -9   8   7 25635.0 1311.55   3
   8   1   7 26285.5 1588.74   3
   1  -9   7 27212.9 944.303   2
  -8   9  10 4419.69 799.525   3
   1  -9  10 3259.02 1982.31   3
   1  -9  10 3584.91 540.850   2
  -9   8  10 4045.75 865.049   2
   9  -1  10 4791.41 955.121   3
  -8   9  10 4275.34 625.263   4
  -1  -8  10 4543.86 614.345   2
   1  -9  10 4857.19 837.801   1
  -9   8  10 5398.18 848.463   3
  -8   9  10 5768.83 603.464   1
   8   1  10 5847.04 1055.99   3
  -1  -8  10 4532.98 795.917   1
  -9   8  10 5169.52 645.747   1
  -9   8  10 4083.26 575.774   4
  -9   9  -6 1949.56 313.149   4
   9   0  -3-111.658 199.595   4
  -9   9  -3 703.062 370.748   1
   0  -9  -3-160.424 152.377   1
   9   0  -3-122.343 234.363   2
  -9   9  -3-126.559 214.014   4
  -9   9  -3 116.454 191.226   2
   0  -9  -3 510.461 342.622   3
   9   0   0 41577.9 1200.37   4
  -9   9   0 39717.8 1120.86   2
  -9   9   0 44438.4 1291.53   4
   9   0   0 44468.1 1231.98   2
   0  -9   0 39979.9 1230.99   3
   9   0   0 43798.7 871.794   3
   0  -9   0 40656.3 1213.49   1
  -9   9   0 40065.5 1317.91   1
   9   0   3-242.193 312.932   3
   9   0   3-278.192 262.312   2
   0  -9   3-84.1797 340.324   1
  -9   9   3 469.610 316.674   2
  -9   9   3-233.405 276.253   4
  -9   9   3 220.287 278.854   1
   0  -9   3 25.7104 266.672   3
  -9   9   3 209.135 226.380   3
   9   0   3 41.9733 249.565   4
  -9   9   6 7580.02 652.156   1
  -9   9   6 7010.69 680.931   3
   0  -9   6 7317.11 434.021   2
   0  -9   6 6606.02 776.386   1
  -9   9   6 6651.84 647.552   4
   9   0   6 6879.37 847.517   3
   9   0   6 7163.34 505.612   1
   0  -9   9 13.7890 493.732   1
   0  -9   9 300.439 315.968   2
   9   0   9 215.753 227.345   1
  -9   9   9-94.3518 459.682   2
  -9   9   9 1.68137 341.695   1
   9   0   9 83.9805 599.382   3
  -9   9   9-58.7651 420.380   3
  -9   9   9 71.2661 317.185   4
   0  -9  12 4777.45 946.467   1
   9   0  12 3232.20 1093.30   3
  -9   9  12 2416.30 806.845   2
   0  -9  12 2770.73 2521.68   3
  -9   9  12 4503.35 989.633   3
 -10   0  -7 362.505 271.289   1
 -10   0  -7-210.649 401.921   4
 -10   0  -4 69188.6 1547.48   1
 -10   0  -4 70623.3 2029.28   4
   0  10  -4 68987.2 1163.14   4
  10 -10  -4 72301.4 1736.98   3
 -10   0  -4 67577.8 2034.86   2
  10 -10  -1-104.450 195.723   3
 -10   0  -1-48.4948 255.833   4
  10 -10  -1 48.9389 294.674   1
   0  10  -1-209.320 272.038   1
   0  10  -1 235.579 258.944   3
 -10   0  -1 179.564 260.532   1
   0  10  -1-156.025 157.756   2
 -10   0  -1-178.886 266.173   2
   0  10  -1 63.4025 233.886   4
 -10   0  -1-60.0463 227.505   3
  10 -10  -1 13.4898 242.384   2
 -10   0   2 44359.4 818.005   3
   0  10   2 40850.5 1039.43   1
  10 -10   2 43615.1 1111.14   2
 -10   0   2 42195.2 1231.52   4
   0  10   2 40744.6 1425.52   4
  10 -10   2 41786.3 1257.54   4
  10 -10   2 44160.0 1537.31   1
 -10   0   2 42731.3 1291.29   2
   0  10   2 41569.1 1355.06   2
   0  10   2 44944.8 1457.65   3
 -10   0   5-46.1222 262.179   2
 -10   0   5-103.898 212.284   4
  10 -10   5-192.874 341.140   1
  10 -10   5 185.671 229.339   2
  10 -10   5-69.3054 232.044   4
   0  10   5-184.987 337.887   3
  10 -10   8 32156.3 1654.60   1
 -10   0   8 32109.6 908.615   4
  10 -10   8 30575.5 1069.47   4
   0  10   8 36318.9 1930.38   3
 -10   0   8 36560.6 1761.22   1
 -10   0   8 38478.6 1683.24   2
 -10   0  11 647.477 534.245   1
  10 -10  11 127.370 545.127   1
   0  10  11-313.105 662.548   3
 -10   0  11-230.601 438.776   2
  10 -10  11 178.664 2180.77   3
 -10   0  11 450.987 639.228   3
 -10   1  -8 866.493 402.245   4
  -9  -1  -8 734.733 210.251   1
 -10   1  -8 847.480 317.630   1
 -10   1  -5 8866.99 789.882   4
  -9  -1  -5 8271.62 511.646   1
 -10   1  -5 8055.43 579.011   1
   9 -10  -5 9272.44 1052.02   3
  -9  -1  -5 8504.61 787.343   4
  -9  -1  -5 8501.32 845.673   2
 -10   1  -5 9132.38 815.560   2
 -10   1  -2 8982.77 681.969   4
   9 -10  -2 8830.09 673.712   1
  10  -9  -2 9909.86 721.661   1
 -10   1  -2 9413.88 636.156   1
   1   9  -2 8919.10 352.980   2
  -1  10  -2 10778.7 766.228   1
  -9  -1  -2 11664.8 795.185   3
  -9  -1  -2 9750.23 715.973   4
   1   9  -2 8342.35 683.881   1
 -10   1  -2 9691.10 698.292   2
   1   9  -2 8899.44 558.475   4
  -9  -1  -2 9103.81 690.427   2
  -9  -1  -2 10746.3 643.267   1
  10  -9  -2 9094.14 483.565   3
   9 -10  -2 9763.51 562.177   3
   9 -10   1 363.800 237.947   3
   1   9   1 645.845 317.655   3
  -1  10   1 336.574 237.264   1
 -10   1   1 130.823 235.794   2
  -9  -1   1 321.106 233.497   4
  -1  10   1 93.9722 219.163   2
  10  -9   1 562.109 275.029   4
   9 -10   1 682.563 226.176   2
   9 -10   1 662.445 257.736   4
 -10   1   1 365.035 114.111   3
  -1  10   1 505.255 330.636   3
  10  -9   1 113.538 205.744   2
   1   9   1 289.606 214.074   2
 -10   1   1 210.762 247.685   4
  10  -9   1-72.4351 340.751   1
  -9  -1   1 610.942 261.674   2
  -9  -1   1 386.996 170.877   3
   9 -10   1 424.356 339.308   1
   1   9   1 180.741 227.376   1
   1   9   1 368.851 277.227   4
  -1  10   4 5053.85 605.942   3
   9 -10   4 4891.05 452.202   4
   9 -10   4 5272.05 405.688   2
  -1  10   4 4181.44 245.052   1
  10  -9   4 4574.53 605.686   1
   9 -10   4 4729.19 625.015   1
  -9  -1   4 5765.33 536.488   2
  -1  10   4 3720.83 623.400   4
  10  -9   4 5079.31 457.958   2
  -9  -1   4 5776.09 444.698   4
   1   9   4 5218.54 645.002   4
 -10   1   4 5404.13 459.023   4
   1   9   4 4371.30 583.266   3
 -10   1   4 4664.10 524.067   2
  10  -9   4 5225.41 488.259   4
  -9  -1   7 1233.09 382.719   2
  -9  -1   7 1698.00 248.418   4
   9 -10   7 1478.59 368.520   2
   1   9   7 1254.83 541.769   3
  -9  -1   7 1586.12 454.777   1
  -9  -1   7 912.611 1215.74   3
  10  -9   7 204.095 1447.80   3
  10  -9   7 1631.01 336.958   4
  -1  10   7 2055.02 596.930   3
 -10   1   7 1665.98 459.163   2
 -10   1   7 1351.93 270.601   4
  10  -9   7 1599.85 468.419   1
 -10   1   7 1495.00 474.769   1
  10  -9   7 1336.48 397.939   2
   9 -10   7 1070.06 471.889   1
   9 -10   7 1108.53 276.577   4
 -10   1   7-1334.20 1184.74   3
 -10   1  10 1547.74 560.889   2
  -9  -1  10 1407.93 581.765   1
 -10   1  10 2489.10 758.121   3
   1   9  10 1740.44 771.264   3
  10  -9  10 902.149 1979.80   3
  -9  -1  10 907.061 1045.12   3
 -10   1  10 1305.51 499.809   1
  10  -9  10 899.335 540.763   1
  -1  10  10 815.617 627.544   3
   9 -10  10 662.893 565.419   1
  -9  -1  10 1391.12 548.376   2
 -10   2  -6 13163.8 1031.20   2
  -8  -2  -6 13883.8 989.880   4
  -8  -2  -6 12681.8 516.944   1
 -10   2  -6 13351.4 913.367   4
 -10   2  -6 12628.1 725.922   1
  -2  10  -3 19705.4 1053.24   1
   8 -10  -3 18881.3 860.078   3
  -8  -2  -3 20534.4 768.226   1
  -8  -2  -3 20721.2 1071.64   4
 -10   2  -3 20755.5 990.853   4
   2   8  -3 19880.6 668.350   4
 -10   2  -3 20632.7 895.276   1
 -10   2  -3 21585.8 1049.44   2
   2   8  -3 19478.2 1040.68   1
  10  -8  -3 20429.8 761.148   3
   8 -10  -3 18931.7 880.174   1
   2   8  -3 19697.1 553.323   2
  -8  -2  -3 20037.3 1029.46   2
 -10   2   0 32175.6 1098.15   2
  -2  10   0 31331.8 1103.35   3
  -8  -2   0 30904.4 1098.37   4
  10  -8   0 33713.4 1260.36   1
   2   8   0 30273.9 1023.30   1
  -2  10   0 30657.6 1072.04   1
   2   8   0 29799.0 903.330   2
 -10   2   0 32348.9 1159.59   1
  -8  -2   0 30948.1 1061.05   2
   8 -10   0 30255.6 939.824   2
  10  -8   0 30921.1 783.568   3
   8 -10   0 30783.5 955.323   3
   2   8   0 31488.7 1093.06   3
 -10   2   0 30000.4 1068.65   4
  -8  -2   0 31374.1 859.920   3
  10  -8   0 30133.9 1024.65   2
   2   8   0 31046.1 1091.19   4
   8 -10   0 30168.9 1145.94   1
  10  -8   0 31093.6 1077.88   4
 -10   2   3 35533.2 1259.85   2
  -2  10   3 35721.1 843.444   1
   2   8   3 34326.1 1355.98   4
   8 -10   3 32013.6 1027.17   4
  -8  -2   3 32922.5 985.288   4
  -8  -2   3 34924.2 1120.29   2
   8 -10   3 33262.1 812.067   2
 -10   2   3 33596.5 1065.75   4
   2   8   3 32241.2 1255.00   2
   2   8   3 29670.9 1235.61   3
  -8  -2   3 33412.5 951.150   3
  -2  10   3 33613.9 1280.27   3
  10  -8   3 34410.0 1118.18   4
  10  -8   3 34268.1 1333.01   1
   8 -10   3 34195.7 1372.97   1
  10  -8   3 34629.9 1058.39   2
  10  -8   6 1786.26 401.217   2
   8 -10   6 2429.00 305.511   4
  -2  10   6 2291.90 508.742   3
   8 -10   6 1750.75 493.277   1
 -10   2   6 2044.80 461.117   2
   2   8   6 2021.31 526.636   3
  10  -8   6 2283.16 526.289   1
  10  -8   6 2342.80 365.015   4
  -8  -2   6 2346.38 432.808   2
 -10   2   6 1938.54 308.377   4
  10  -8   6 1564.15 1308.37   3
   8 -10   6 2059.19 343.682   2
  -8  -2   6 1984.75 250.899   4
  -8  -2   6 1913.29 513.635   1
  -8  -2   9 52.1374 1467.22   3
  -8  -2   9 13395.0 1164.87   1
   8 -10   9-294.201 1679.41   3
 -10   2   9 12940.6 1090.93   1
 -10   2   9 13216.9 1211.66   3
   8 -10   9 10954.6 1078.51   1
   2   8   9 10811.9 1215.80   3
  10  -8   9 10320.7 982.666   1
  -2  10   9 13360.0 1277.77   3
  -8  -2   9 12515.4 1000.73   2
  10  -8   9 263.566 2006.07   3
 -10   2   9 12787.1 1106.47   2
 -10   2   9 9253.23 550.514   4
  -8  -2  12 693.689 790.434   3
 -10   2  12 371.763 617.731   3
  -2  10  12 2145.99 912.879   3
  -8  -2  12 992.219 629.572   2
   2   8  12 1769.01 868.345   3
 -10   2  12 1142.29 606.759   1
   8 -10  12 1429.49 730.591   1
  10  -8  12 4661.19 1476.54   3
   8 -10  12 384.123 2175.81   3
  -8  -2  12 2667.04 758.918   1
 -10   2  12 1993.33 679.296   2
 -10   3  -7 35.5862 279.224   1
 -10   3  -7 174.302 335.707   4
   3   7  -4 58715.2 913.742   4
   7 -10  -4 62588.8 1721.59   3
  -3  10  -4 56836.7 974.865   4
 -10   3  -4 62252.2 1698.72   4
 -10   3  -4 63102.2 1579.72   1
  -7  -3  -4 60668.1 1106.39   1
 -10   3  -4 64006.6 1805.67   2
  -7  -3  -4 61291.2 1845.30   4
  -3  10  -4 63046.4 1926.06   1
  -7  -3  -4 66953.2 1964.82   2
 -10   3  -1 17822.1 878.787   1
  -7  -3  -1 16930.0 826.826   2
  10  -7  -1 17736.5 464.242   3
   3   7  -1 17221.5 613.754   2
  10  -7  -1 17946.0 919.215   1
   7 -10  -1 17899.4 747.123   3
 -10   3  -1 17956.4 845.009   4
  10  -7  -1 17050.8 814.978   2
   3   7  -1 17418.4 766.842   4
  -7  -3  -1 17420.2 878.436   4
   7 -10  -1 17468.0 848.735   1
  -7  -3  -1 16848.2 748.779   3
  10  -7  -1 18840.3 845.898   4
   3   7  -1 16520.2 765.640   3
  -3  10  -1 16454.4 825.189   3
 -10   3  -1 17413.3 815.143   2
  -3  10  -1 17912.6 882.050   1
  -7  -3   2 43652.5 1041.55   3
  -7  -3   2 40638.4 1105.96   4
  10  -7   2 41397.3 1223.58   4
   3   7   2 41975.9 1328.60   2
   7 -10   2 41486.9 832.105   2
   3   7   2 41542.1 1374.50   4
 -10   3   2 43451.7 1321.37   2
  -3  10   2 40296.3 1024.00   1
   7 -10   2 43367.3 1456.63   1
 -10   3   2 39784.4 1161.00   4
  -7  -3   2 39254.0 1093.11   2
  -3  10   2 40848.1 1307.19   3
  10  -7   2 38795.3 1363.76   1
  10  -7   2 42933.9 1154.92   2
   3   7   2 42362.2 1342.10   3
   3   7   5 2521.73 535.708   3
  -7  -3   5 1625.31 348.715   2
  10  -7   5 2878.06 479.577   1
  -7  -3   5 2031.93 461.740   1
   7 -10   5 2994.94 517.643   1
 -10   3   5 2228.94 476.763   2
 -10   3   5 2060.47 343.235   4
   7 -10   5 2239.11 278.135   2
   7 -10   5 2002.03 271.232   4
  -7  -3   5 2377.44 252.567   4
  10  -7   5 2680.44 440.544   2
  -3  10   5 3231.48 553.333   3
  10  -7   5 2851.31 406.354   4
  10  -7   5 472.052 1000.22   3
 -10   3   5 795.506 490.758   3
  -3  10   5 2298.35 202.570   1
   7 -10   8 21671.3 1343.15   1
  10  -7   8 22086.5 1255.68   1
 -10   3   8 22653.0 1374.71   3
  -7  -3   8 24221.3 1257.89   2
 -10   3   8 24084.0 1327.58   1
   3   7   8 23940.9 1600.92   3
  10  -7   8 20398.0 976.169   4
   7 -10   8 20323.1 1008.29   2
 -10   3   8 23022.9 926.701   4
  10  -7   8 2705.22 2156.68   3
 -10   3   8 24214.6 1415.00   2
  -3  10   8 23087.2 1497.42   3
  -7  -3   8 22948.5 1415.27   1
   3   7  11 12.2900 650.675   3
  -7  -3  11 442.953 617.257   1
  -3  10  11 991.668 725.095   3
   7 -10  11-1468.21 2527.58   3
   7 -10  11 501.176 624.972   1
 -10   3  11 1332.60 571.546   1
 -10   3  11 598.358 487.033   2
 -10   3  11 1259.94 672.810   3
  10  -7  11 92.3600 436.878   1
  -7  -3  11 2245.18 1680.29   3
  10  -7  11 401.895 1075.22   3
  -7  -3  11 822.642 465.870   2
 -10   4  -8 3146.86 515.648   1
 -10   4  -8 3803.65 567.382   4
 -10   4  -5 10381.4 711.134   1
  -6  -4  -5 7505.33 287.322   1
 -10   4  -5 12216.1 855.796   2
 -10   4  -5 11467.8 780.886   4
  -6  -4  -5 10465.0 837.779   4
  -4  10  -5 9037.30 359.135   4
   6 -10  -5 10002.8 844.520   3
   4   6  -2 21281.9 748.583   4
  10  -6  -2 21997.6 909.770   4
 -10   4  -2 20137.1 936.819   1
  -6  -4  -2 21739.0 977.681   2
   6 -10  -2 21319.1 879.956   3
 -10   4  -2 22623.5 933.319   4
 -10   4  -2 21857.4 930.873   2
  -6  -4  -2 22631.4 1042.90   4
   4   6  -2 22226.6 686.680   2
  -4  10  -2 18740.3 951.022   1
  -6  -4  -2 21686.4 948.555   3
  10  -6  -2 22659.6 992.226   2
   6 -10  -2 21851.0 874.596   1
  10  -6  -2 26069.3 673.303   3
  -4  10   1 3572.05 430.719   3
   6 -10   1 3372.03 407.368   3
  -6  -4   1 2757.96 351.434   4
  10  -6   1 2863.25 354.528   2
 -10   4   1 2776.80 438.619   1
   4   6   1 3517.05 424.321   3
 -10   4   1 3674.76 402.383   4
   6 -10   1 3146.55 488.647   1
   4   6   1 2690.18 390.778   4
  10  -6   1 3095.54 390.979   4
  10  -6   1 3640.13 478.932   1
  -4  10   1 2845.01 377.163   1
  -6  -4   1 4024.50 383.789   2
 -10   4   1 3399.41 417.360   2
  -6  -4   1 3443.73 355.389   3
   4   6   1 3521.38 410.301   2
  -6  -4   4 22038.7 1137.15   1
   4   6   4 19354.4 1086.65   2
  -4  10   4 21764.9 688.867   1
 -10   4   4 21627.9 1078.01   2
  -6  -4   4 22152.7 873.060   2
 -10   4   4 22301.9 806.089   3
  10  -6   4 20734.8 1031.76   1
   6 -10   4 20615.2 1102.98   1
   6 -10   4 19343.0 539.581   2
 -10   4   4 22464.5 926.357   4
  10  -6   4 21716.0 971.591   2
  -4  10   4 21516.8 1058.95   3
  -6  -4   4 22744.4 699.414   4
   4   6   4 21374.2 1144.62   3
  10  -6   4 20470.0 885.881   4
   4   6   4 20860.9 1125.78   4
  -4  10   7 2311.81 212.634   1
  -4  10   7 2850.29 637.911   3
 -10   4   7 2964.26 576.126   2
 -10   4   7 2927.21 406.772   4
   4   6   7 2686.04 604.092   3
  -4  10   7 1347.00 206.457   1
   6 -10   7 2408.30 532.613   1
  10  -6   7 3261.45 532.623   1
  -6  -4   7 2896.21 463.144   2
 -10   4   7 2651.84 512.441   3
  -6  -4   7 3180.81 585.274   1
  10  -6   7 2763.83 417.365   4
   6 -10   7 3212.59 411.802   2
  10  -6  10 5524.60 702.889   1
   6 -10  10-2078.73 2165.58   3
  -6  -4  10 8478.24 1033.72   1
 -10   4  10 4726.84 468.288   4
  10  -6  10-614.156 1107.16   3
  -6  -4  10 6638.47 793.450   2
 -10   4  10 6949.08 825.176   1
   6 -10  10 6980.82 953.523   1
 -10   4  10 4296.77 802.101   2
 -10   4  10 7492.06 970.624   3
   4   6  10 6523.85 1048.62   3
  -6  -4  10 364.040 1778.15   3
  -4  10  10 7987.21 1065.94   3
 -10   5  -6 9620.17 749.341   1
  -5  10  -6 7914.89 336.814   4
 -10   5  -6 9488.94 810.203   2
  10  -5  -3 40787.9 1220.49   4
  -5  -5  -3 38371.5 812.372   1
 -10   5  -3 38931.7 1255.46   2
   5 -10  -3 38592.5 1301.81   3
  10  -5  -3 39749.5 1356.14   2
  -5  10  -3 38779.1 1413.12   1
   5 -10  -3 40641.0 1069.16   1
 -10   5  -3 37133.5 1206.44   4
 -10   5  -3 39862.6 1313.03   1
   5   5  -3 39378.6 911.560   4
  -5  -5  -3 39426.0 1423.73   4
  -5  10  -3 38865.6 962.694   4
   5   5  -3 38969.8 1010.74   2
  -5  -5  -3 38106.4 1395.00   3
  -5  -5  -3 40954.5 1443.06   2
 -10   5   0 22307.7 980.276   1
   5   5   0 21482.8 804.886   3
  10  -5   0 23903.6 922.214   4
   5 -10   0 21926.6 878.485   3
   5   5   0 22955.7 904.177   4
  10  -5   0 21680.4 867.822   2
 -10   5   0 21325.0 855.619   2
  10  -5   0 22731.4 988.279   1
  -5  -5   0 20042.1 876.883   4
  -5  -5   0 20940.3 795.027   3
   5   5   0 25388.6 857.855   2
  -5  -5   0 20078.7 809.459   2
   5 -10   0 21148.4 930.214   1
  -5  10   0 20214.8 885.057   1
  -5  10   0 21493.4 867.984   3
 -10   5   0 21707.8 879.218   4
 -10   5   3 38227.8 794.689   3
  -5  10   3 40270.8 1048.54   1
 -10   5   3 37997.4 1331.87   2
   5   5   3 38733.0 1377.09   4
 -10   5   3 38134.7 1198.50   4
  -5  -5   3 39324.4 973.929   4
  10  -5   3 39028.7 1321.63   1
  -5  -5   3 38316.9 1163.26   3
  -5  10   3 38769.2 1265.63   3
  -5  -5   3 40544.9 1449.63   1
   5   5   3 37994.0 1357.54   2
  10  -5   3 38701.4 1194.31   4
   5 -10   3 38415.0 1435.75   1
   5   5   3 36857.8 1339.65   3
  -5  -5   3 37786.0 964.303   2
  10  -5   3 40212.7 1233.96   2
   5   5   6 7255.66 811.783   3
  -5  -5   6 10560.8 684.039   2
 -10   5   6 11543.1 711.700   4
  -5  -5   6 10122.3 884.165   1
  -5  10   6 9882.66 506.736   1
  -5  10   6 8920.86 818.981   3
 -10   5   6 10987.6 910.067   2
  10  -5   6 10180.0 715.569   4
   5 -10   6 10408.7 533.372   2
 -10   5   6 10046.3 732.599   3
  10  -5   6 9806.53 763.268   1
   5 -10   6 9959.98 892.420   1
 -10   5   9 7462.08 620.982   4
  -5  -5   9 6962.17 728.998   2
 -10   5   9 8483.42 834.255   1
  -5  10   9 6426.38 374.403   1
  -5  -5   9 2019.38 1442.38   3
  -5  -5   9 7579.57 912.624   1
 -10   5   9 6828.45 892.367   2
   5 -10   9 5701.16 815.431   1
 -10   5   9 8501.28 930.634   3
  -5  10   9 9631.99 1056.69   3
   5   5   9 6935.52 987.385   3
  10  -5   9 1243.74 1231.86   3
  10  -5   9 7773.99 746.009   1
   5   5  12 73.4423 742.923   3
  -5  10  12 665.524 705.044   3
 -10   5  12 1900.85 739.096   2
   5 -10  12 1537.73 691.554   1
  -5  -5  12 1081.17 574.913   2
  10  -5  12 1732.45 931.759   3
 -10   5  12 980.964 709.777   3
   5 -10  12 1671.01 2755.66   3
  -5  -5  12 2402.75 1793.08   3
  -5  -5  12 585.663 638.835   1
 -10   6  -7 3506.98 571.640   1
 -10   6  -7 4202.78 540.555   4
   6   4  -4 21525.8 879.278   2
 -10   6  -4 22571.0 977.733   4
   6   4  -4 22998.9 675.288   4
  -4  -6  -4 22237.6 1208.75   3
  10  -4  -4 22967.2 939.304   4
  -6  10  -4 21454.0 1121.66   1
  -6  10  -4 21321.6 704.823   4
 -10   6  -4 20020.4 983.047   2
   4 -10  -4 19392.0 1031.46   3
 -10   6  -4 22195.3 1047.96   1
  -4  -6  -1 4106.93 437.557   2
  -4  -6  -1 3068.46 388.620   3
 -10   6  -1 3264.23 409.769   4
  10  -4  -1 3932.07 410.122   4
   6   4  -1 2749.02 329.146   4
  -4  -6  -1 3985.00 379.119   1
  -4  -6  -1 3155.15 444.641   4
  -6  10  -1 3175.09 382.130   4
   6   4  -1 3690.72 360.866   2
 -10   6  -1 4043.50 475.989   1
   4 -10  -1 3444.83 393.093   1
  -6  10  -1 3330.26 268.735   2
  -6  10  -1 4162.99 505.988   1
 -10   6  -1 3256.11 383.762   2
  10  -4  -1 3701.85 434.929   2
   6   4  -1 3488.08 344.432   3
   4 -10  -1 2974.90 393.010   3
   4 -10   2 24156.4 1082.23   1
  -4  -6   2 23563.9 719.192   2
  -4  -6   2 23676.8 825.165   4
  -4  -6   2 24951.0 930.847   3
   6   4   2 23906.7 985.164   3
  -6  10   2 23754.6 916.765   3
  10  -4   2 25671.4 966.468   4
  10  -4   2 26306.6 983.468   2
 -10   6   2 25466.5 1031.88   2
  -4  -6   2 24837.3 1083.45   1
 -10   6   2 24603.4 494.040   3
  10  -4   2 23899.9 1019.94   1
   4 -10   2 24606.7 1032.76   3
   6   4   2 25073.0 1026.68   2
   6   4   2 25691.5 1066.29   4
 -10   6   2 26147.2 984.196   4
  -6  10   2 25098.9 910.022   1
 -10   6   2 23554.0 1037.42   1
 -10   6   5 11045.1 871.165   2
   6   4   5 9299.02 784.731   4
  -6  10   5 11575.3 613.017   1
  10  -4   5 10328.3 698.838   4
   6   4   5 10416.6 894.053   3
  -4  -6   5 10562.2 588.724   2
 -10   6   5 11111.3 709.449   4
  10  -4   5 10687.8 782.278   2
  10  -4   5 11384.0 763.927   1
   4 -10   5 10326.8 873.965   1
 -10   6   5 9842.34 644.059   3
   4 -10   5 8706.26 373.029   2
  -4  -6   5 10489.8 865.017   1
  -6  10   5 9778.63 784.797   3
   4 -10   8 3103.02 419.347   2
  10  -4   8 2851.00 517.990   1
   4 -10   8 2941.10 631.500   1
 -10   6   8 3925.99 593.203   1
 -10   6   8 3450.40 617.474   3
  10  -4   8 2505.33 468.090   4
   6   4   8 3006.62 682.729   3
  10  -4   8 2153.89 971.790   3
  -6  10   8 3189.96 355.639   1
  -6  10   8 3571.11 401.314   1
  -4  -6   8 3462.93 663.019   1
 -10   6   8 3604.08 668.405   2
  -4  -6   8 3305.41 478.087   2
 -10   6   8 3165.16 444.799   4
  -6  10   8 3330.83 689.127   3
   6   4  11 1051.89 783.044   3
   4 -10  11 186.024 557.310   1
 -10   6  11 330.965 550.208   2
  -6  10  11 256.290 590.891   3
  -4  -6  11 951.074 1978.03   3
  -6  10  11 120.804 420.414   4
  -4  -6  11 661.074 449.939   2
   4 -10  11-1622.75 2307.60   3
  -4  -6  11 151.960 592.628   1
  10  -4  11 909.687 818.583   3
 -10   6  11 639.866 640.774   3
 -10   6  11 85.0886 419.221   1
 -10   7  -8 24047.7 1096.46   4
 -10   7  -5 2249.61 401.707   2
  -7  10  -5 2207.03 280.395   4
 -10   7  -5 2446.50 391.790   4
 -10   7  -5 2304.79 435.359   1
   7   3  -5 2458.94 257.173   4
   3 -10  -2 41637.3 1308.48   3
  -3  -7  -2 41871.1 945.069   1
 -10   7  -2 42994.8 1224.39   4
   7   3  -2 40533.5 1106.22   2
 -10   7  -2 42358.2 1396.23   1
  -3  -7  -2 42212.6 1396.74   2
   7   3  -2 42109.1 1073.02   4
   3 -10  -2 42193.8 1065.49   1
  10  -3  -2 44369.9 1214.08   4
 -10   7  -2 42112.3 1169.87   2
  10  -3  -2 42092.9 1302.11   2
  -7  10  -2 39459.7 1101.19   4
  -7  10  -2 40812.6 1383.59   1
  -3  -7  -2 38338.4 1297.90   3
  -7  10  -2 39763.5 802.652   2
  10  -3   1 16151.8 677.601   3
   3 -10   1 17813.7 838.893   3
 -10   7   1 17871.8 839.209   4
   7   3   1 18426.5 858.550   4
  -7  10   1 17701.8 837.209   1
  -3  -7   1 16816.7 848.455   1
 -10   7   1 18008.1 846.262   2
  -7  10   1 16304.1 755.041   2
 -10   7   1 17670.9 895.298   1
  -3  -7   1 15891.7 749.424   4
  10  -3   1 17367.7 810.261   2
  -3  -7   1 17460.2 785.730   3
  -7  10   1 17178.2 738.443   3
  10  -3   1 16907.4 850.306   1
  -7  10   1 14682.2 783.235   4
   7   3   1 17588.7 824.728   2
   3 -10   1 16410.8 855.506   1
   7   3   1 16338.8 739.588   3
  -3  -7   1 16305.3 613.467   2
  10  -3   1 17494.8 793.700   4
  -7  10   4 59740.3 1618.07   3
  -3  -7   4 59564.8 1857.91   1
 -10   7   4 59461.8 1816.93   2
   7   3   4 57780.4 1842.63   3
 -10   7   4 60270.0 1594.88   4
   7   3   4 56285.1 1685.39   4
   3 -10   4 56549.2 1813.74   1
  10  -3   4 62546.0 1593.89   1
  -7  10   4 60954.2 1454.29   1
 -10   7   4 58383.7 1707.17   1
  -3  -7   4 60217.6 1108.95   2
 -10   7   4 56131.1 1290.54   3
   7   3   4 58950.6 1829.59   2
  10  -3   4 59999.3 1712.39   2
  10  -3   4 59181.4 1606.51   4
   3 -10   7 399.300 404.887   1
  -3  -7   7 143.559 239.582   2
 -10   7   7-142.482 420.612   2
   3 -10   7 387.129 231.780   2
  -3  -7   7 180.182 408.377   1
  10  -3   7 553.423 639.405   3
 -10   7   7 29.4131 300.029   4
  10  -3   7 193.076 300.811   4
  -7  10   7 21.0376 245.378   1
  -7  10   7 258.399 398.375   3
 -10   7   7 25.3164 327.592   3
   7   3   7 215.741 448.333   3
 -10   7   7 457.748 370.203   1
  10  -3   7 161.070 303.097   1
  -3  -7  10 12520.5 956.913   2
 -10   7  10 11593.6 835.009   4
  -7  10  10 12291.8 1021.31   4
 -10   7  10 14193.9 1067.78   1
  -7  10  10 15179.1 1366.92   3
  10  -3  10 11027.9 849.333   1
  10  -3  10 14764.7 1592.61   3
  -3  -7  10 15272.7 1317.31   1
  -3  -7  10 3374.99 1836.11   3
 -10   7  10 14548.2 1243.90   3
   3 -10  10 11850.5 862.333   2
   7   3  10 13225.0 1408.09   3
   3 -10  10 16212.1 1355.18   1
   3 -10  10-429.688 1700.57   3
 -10   7  10 15346.6 1373.65   2
 -10   8  -9 10480.3 733.460   4
 -10   8  -6 2588.30 466.589   2
  -8  10  -6 2163.80 292.503   4
 -10   8  -6 1926.42 471.482   1
 -10   8  -6 1916.99 355.363   4
   8   2  -3 32757.0 1102.50   2
  -2  -8  -3 31513.9 1293.95   3
  -8  10  -3 32422.2 1015.79   4
   8   2  -3 33054.9 941.369   4
  10  -2  -3 33016.6 1220.68   2
  -2  -8  -3 30822.6 671.976   1
   2 -10  -3 31862.1 1282.00   3
  -8  10  -3 31717.9 1303.42   1
   2 -10  -3 31489.0 803.542   1
 -10   8  -3 30753.7 1060.49   4
 -10   8  -3 33332.1 1283.90   1
  10  -2  -3 33188.1 1057.91   4
 -10   8  -3 31633.7 1047.17   2
  -8  10  -3 32325.4 839.774   2
  -8  10   0 24691.5 867.165   3
  -8  10   0 28077.1 1100.99   1
  10  -2   0 28209.7 995.434   4
 -10   8   0 29075.0 1141.92   1
 -10   8   0 27353.2 1023.35   4
  -2  -8   0 27719.6 996.573   1
  -8  10   0 26357.7 881.383   2
   8   2   0 29803.9 1004.98   2
  10  -2   0 27055.0 985.494   2
   8   2   0 29283.1 1021.28   4
  -8  10   0 26092.1 990.218   4
   2 -10   0 25642.9 992.086   1
   8   2   0 28279.2 810.558   3
  -2  -8   0 25962.5 979.962   3
   2 -10   0 27766.7 1035.70   3
 -10   8   0 26405.1 955.267   2
  10  -2   0 27978.2 617.593   3
  -2  -8   0 26301.4 844.268   2
  10  -2   3 17043.5 830.320   1
   2 -10   3 16456.2 968.729   1
  -2  -8   3 17237.1 896.899   3
   2 -10   3 15552.1 888.786   3
  -2  -8   3 16935.2 503.370   2
  10  -2   3 17589.9 917.667   2
 -10   8   3 17364.5 909.459   1
  10  -2   3 17333.4 888.230   4
   8   2   3 16074.2 903.031   4
   8   2   3 17435.3 952.780   2
  -8  10   3 14975.7 793.844   1
  10  -2   3 17938.5 974.410   3
  -8  10   3 16375.1 774.736   3
 -10   8   3 17092.2 879.865   4
 -10   8   3 16237.1 919.782   2
   8   2   3 16938.9 931.372   3
  -8  10   3 17135.6 921.470   4
  -2  -8   3 16847.1 982.455   1
 -10   8   3 16955.1 646.155   3
  10  -2   6 12794.8 862.747   4
  -2  -8   6 12283.8 611.265   2
   2 -10   6 11254.0 499.448   2
   2 -10   6 12297.3 1003.91   1
 -10   8   6 11926.8 1000.35   2
  -2  -8   6 14136.0 1054.25   1
  10  -2   6 11835.4 724.360   1
 -10   8   6 12668.4 873.471   1
  10  -2   6 13182.2 1170.93   3
 -10   8   6 14394.5 885.365   3
   8   2   6 12269.7 1067.83   3
 -10   8   6 11500.4 796.835   4
  -8  10   6 11392.0 851.448   3
  -8  10   6 13213.3 779.191   1
   2 -10   6 11385.2 491.837   2
   2 -10   9 4645.91 525.424   2
  -8  10   9 6397.52 580.189   1
  -8  10   9 4383.17 757.223   3
  10  -2   9 5878.90 979.467   3
  -8  10   9 3631.40 624.727   4
  -2  -8   9 5354.59 863.471   1
 -10   8   9 5458.35 790.364   3
  10  -2   9 3664.03 497.079   1
  -2  -8   9 4612.92 571.763   2
 -10   8   9 6146.39 686.158   1
 -10   8   9 5413.07 815.630   2
 -10   8   9 3983.81 540.450   4
   8   2   9 6194.19 981.972   3
   2 -10   9 3906.18 723.393   1
   2 -10  12 101.417 676.480   1
  -2  -8  12 540.396 652.044   1
 -10   8  12 326.938 664.437   2
  -8  10  12 744.146 646.101   3
  -8  10  12 1604.23 802.832   2
  10  -2  12 1880.47 965.565   3
   2 -10  12 1185.71 2629.18   3
  -2  -8  12-26.9090 2213.44   3
   8   2  12 1101.35 813.784   3
 -10   8  12 1921.52 760.883   3
 -10   9  -7 1307.96 319.595   4
  -9  10  -7 1009.30 294.285   4
 -10   9  -4 5309.98 484.150   4
   1 -10  -4 3765.00 228.323   1
  -9  10  -4 5407.10 436.846   2
 -10   9  -4 5424.82 474.059   2
  -9  10  -4 4794.50 613.835   1
  -9  10  -4 4365.02 413.894   4
  10  -1  -4 5112.59 438.845   4
   9   1  -4 5306.25 424.132   4
   9   1  -4 5110.15 526.585   2
 -10   9  -4 4616.44 579.094   1
  10  -1  -4 4819.82 558.080   2
  -1  -9  -1 726.785 324.195   3
   1 -10  -1 552.881 279.677   3
 -10   9  -1 885.404 248.302   2
  -9  10  -1 719.876 286.765   4
  10  -1  -1 576.206 240.194   2
  -9  10  -1 482.393 207.663   2
   9   1  -1 634.714 169.449   3
  10  -1  -1 540.076 122.618   3
  -9  10  -1 1029.10 376.331   1
   9   1  -1 957.448 285.548   2
  10  -1  -1 621.191 243.546   4
   1 -10  -1 750.362 278.081   1
 -10   9  -1 851.778 293.646   4
 -10   9  -1 758.541 332.191   1
  -1  -9  -1 574.256 270.293   1
   9   1  -1 794.409 250.160   4
  10  -1   2 9401.27 665.472   4
 -10   9   2 8301.23 648.121   2
  -9  10   2 8679.39 653.190   4
   1 -10   2 9212.74 672.834   3
   9   1   2 8955.40 674.680   4
   9   1   2 9130.20 624.016   3
  10  -1   2 9449.72 630.847   3
  -9  10   2 8422.66 643.347   2
  -1  -9   2 8207.60 695.353   1
  -1  -9   2 8441.34 648.112   3
  10  -1   2 9118.08 670.269   2
  -9  10   2 8659.49 521.266   3
  -1  -9   2 8533.42 354.463   2
  -9  10   2 9355.35 681.273   1
 -10   9   2 9294.57 473.371   3
   9   1   2 9095.05 675.467   2
   1 -10   2 10209.4 770.989   1
 -10   9   2 8953.41 659.889   4
 -10   9   2 9101.81 703.783   1
  10  -1   5 10214.8 649.545   1
  10  -1   5 10170.5 922.752   3
   9   1   5 7732.83 732.144   4
  10  -1   5 9395.19 732.069   4
  -9  10   5 10123.4 722.648   1
 -10   9   5 9390.70 741.968   1
 -10   9   5 9623.46 738.698   4
 -10   9   5 9653.74 844.082   2
   1 -10   5 8379.61 322.287   2
   1 -10   5 6300.67 283.192   2
  -1  -9   5 9895.43 876.833   1
   1 -10   5 9213.43 853.768   1
  -9  10   5 10146.9 736.082   3
  -1  -9   5 9200.31 420.293   2
  -9  10   5 9845.36 776.354   4
   9   1   5 8789.80 833.892   3
 -10   9   5 9171.07 664.944   3
  10  -1   8 927.684 325.867   1
  -9  10   8 1162.84 435.244   4
   1 -10   8 2204.54 607.920   1
 -10   9   8 1868.48 448.543   4
  -1  -9   8 698.079 481.812   1
   9   1   8 1375.83 675.871   3
   1 -10   8 667.398 279.884   2
   1 -10   8 998.046 290.043   2
  -9  10   8 1102.67 414.065   1
 -10   9   8 1151.68 534.547   2
  -1  -9   8 1050.31 348.032   2
 -10   9   8 854.875 428.500   1
 -10   9   8 1704.93 550.540   3
  -1  -9   8 949.191 304.110   2
  10  -1   8 1610.54 616.098   3
  -9  10   8 1381.47 548.989   3
  -1  -9  11 2799.37 818.506   1
  -9  10  11 2823.87 617.962   4
  -9  10  11 2647.18 785.781   2
   9   1  11 3868.53 995.852   3
 -10   9  11 2918.26 837.539   2
 -10   9  11 4647.88 921.275   3
   1 -10  11-1787.13 2354.24   3
  -1  -9  11-1934.46 2177.03   3
   1 -10  11 2635.38 744.742   1
  10  -1  11 1883.71 987.067   3
  -9  10  11 3980.21 868.023   3
 -10  10  -8 39039.2 1239.96   4
 -10  10  -5 239.075 238.125   2
  10   0  -5 51.3258 207.430   4
 -10  10  -5-65.5690 206.350   4
 -10  10  -2 40814.4 1454.44   1
 -10  10  -2 39729.7 1061.18   2
  10   0  -2 43334.3 1218.96   4
   0 -10  -2 43535.4 1065.43   1
 -10  10  -2 44462.9 1310.51   4
   0 -10  -2 38620.6 1363.91   3
  10   0  -2 41672.3 1285.61   2
   0 -10   1-21.3333 264.338   3
 -10  10   1 27.3398 293.214   1
 -10  10   1-208.606 287.423   4
 -10  10   1 352.926 259.414   2
  10   0   1-319.929 275.800   4
  10   0   1 276.203 215.535   3
   0 -10   1-90.9582 287.529   1
  10   0   1 123.807 241.562   2
 -10  10   1 134.936 183.433   3
 -10  10   4 69369.0 2038.39   2
 -10  10   4 71393.4 1908.64   4
  10   0   4 69767.6 1880.39   4
  10   0   4 70571.2 2043.31   3
   0 -10   4 70728.3 2115.87   1
 -10  10   4 69251.5 1826.55   1
 -10  10   4 70716.8 1609.81   3
  10   0   7 182.140 245.622   1
   0 -10   7 62.4355 206.758   2
 -10  10   7 58.4045 312.384   4
   0 -10   7 784.246 501.751   1
 -10  10   7 669.805 450.434   2
 -10  10   7-197.282 318.463   1
  10   0   7-171.680 475.607   3
   0 -10   7-24.7453 188.101   2
 -10  10   7 351.599 333.550   3
  10   0  10 16590.4 1654.38   3
 -10  10  10 17837.9 1055.97   1
   0 -10  10 17276.9 1444.89   1
   0 -10  10 13296.5 854.899   2
 -10  10  10 14539.4 1072.16   4
 -10  10  10 20383.4 1476.66   3
 -10  10  10 17151.8 1501.59   2
 -11   0  -8 2962.28 627.307   4
 -11   0  -8 2741.20 381.478   1
 -11   0  -5 231.858 363.956   2
  11 -11  -5 297.008 454.270   3
   0  11  -5 94.6991 107.128   4
 -11   0  -5 96.4687 339.200   4
 -11   0  -5 200.314 262.685   1
   0  11  -5-121.270 102.876   4
   0  11  -2 6253.51 650.647   1
  11 -11  -2 6081.31 472.634   3
   0  11  -2 5499.87 290.746   2
 -11   0  -2 5881.15 631.542   4
   0  11  -2 4727.40 557.217   3
  11 -11  -2 6982.23 654.563   1
 -11   0  -2 5674.06 605.377   2
   0  11  -2 6311.53 521.066   4
 -11   0  -2 5936.38 558.475   1
  11 -11   1 172.405 264.880   4
   0  11   1-132.952 296.275   4
   0  11   1 38.8188 234.897   2
  11 -11   1 22.4264 222.967   2
  11 -11   1-176.439 351.182   1
  11 -11   1 142.856 257.437   3
   0  11   1 104.217 250.782   1
 -11   0   1-176.452 255.761   2
 -11   0   1-187.611 278.425   4
   0  11   1-162.431 301.172   3
 -11   0   1-38.2730 143.488   3
 -11   0   4 11416.2 587.328   3
 -11   0   4 10293.4 765.931   2
 -11   0   4 9391.95 620.538   4
   0  11   4 9467.46 821.893   3
  11 -11   4 9940.52 677.630   4
  11 -11   4 8928.44 823.597   1
  11 -11   4 10351.8 614.031   2
  11 -11   7-393.278 422.376   1
 -11   0   7 188.089 214.894   4
 -11   0   7-657.790 347.407   2
   0  11   7-32.9200 452.880   3
  11 -11   7-165.540 262.126   4
  11 -11   7 212.875 303.132   2
 -11   0   7-204.593 408.358   1
  11 -11  10 361.884 514.343   1
   0  11  10 1760.20 710.695   3
 -11   0  10 132.059 481.927   1
 -11   0  10 1327.66 785.882   3
 -11   1  -6-145.580 335.515   4
 -10  -1  -6 42.2031 368.922   4
 -10  -1  -6 539.355 250.955   1
 -11   1  -6-127.098 375.371   2
 -11   1  -6-7.44881 266.218   1
  11 -10  -6-97.7958 1166.02   3
 -10  -1  -6 316.883 463.127   2
  11 -10  -3 9559.31 577.013   3
   1  10  -3 11200.1 859.581   1
  -1  11  -3 10729.6 584.167   4
 -10  -1  -3 11062.0 666.994   1
  10 -11  -3 11176.4 744.003   1
 -11   1  -3 22230.5 2052.12   3
  -1  11  -3 9926.27 813.811   1
 -10  -1  -3 11026.5 844.298   2
 -11   1  -3 11120.8 799.115   4
   1  10  -3 10831.0 583.660   4
   1  10  -3 9750.83 339.516   2
 -10  -1  -3 10527.5 805.958   4
 -11   1  -3 9766.48 779.731   2
  10 -11  -3 10865.6 658.236   3
 -10  -1  -3 19886.3 1973.20   3
 -11   1  -3 11595.2 748.325   1
  10 -11   0 485.323 354.217   1
   1  10   0-107.369 203.368   2
  10 -11   0 162.180 213.998   3
  10 -11   0 170.958 269.186   4
  -1  11   0 440.227 322.786   3
   1  10   0 411.624 305.302   3
  11 -10   0 166.240 219.422   2
 -10  -1   0 198.065 282.527   4
  -1  11   0 452.816 331.671   1
  11 -10   0-137.778 340.687   1
  11 -10   0 526.120 301.303   4
  10 -11   0 279.091 228.159   2
   1  10   0 670.547 308.124   4
 -10  -1   0 185.291 184.193   3
   1  10   0 308.867 262.346   1
  -1  11   0 180.410 203.652   2
 -11   1   0 280.476 193.948   3
 -11   1   0 49.0055 282.294   2
 -10  -1   0 210.650 278.796   2
  11 -10   0 240.753 203.023   3
 -11   1   0 303.908 260.608   4
 -11   1   3 11470.5 766.968   2
   1  10   3 11677.8 887.348   4
   1  10   3 12783.0 865.347   3
   1  10   3 11909.2 829.024   2
 -11   1   3 11541.1 692.985   4
  -1  11   3 13203.2 868.539   3
  10 -11   3 12282.7 724.240   4
  10 -11   3 12717.7 601.378   2
  11 -10   3 12265.4 745.082   4
  10 -11   3 11170.4 909.593   1
 -10  -1   3 10995.7 712.131   2
  11 -10   3 12178.6 902.326   1
 -10  -1   3 12718.1 566.088   3
  11 -10   3 12461.2 663.037   2
  -1  11   3 11498.7 539.944   1
 -10  -1   3 12663.9 693.915   4
 -11   1   3 12427.6 475.575   3
  -1  11   3 10373.9 867.762   2
 -10  -1   6 1222.01 365.249   2
 -10  -1   6 605.924 486.120   1
  10 -11   6 609.176 256.201   4
 -11   1   6 875.282 272.631   4
  10 -11   6 1018.31 290.265   2
  -1  11   6 836.808 470.669   3
 -10  -1   6 788.130 236.994   4
  11 -10   6 740.272 297.393   2
  11 -10   6 813.719 396.930   1
 -10  -1   6 1482.02 978.310   3
  11 -10   6 957.890 335.815   4
 -11   1   6 320.901 328.333   2
  10 -11   6-211.629 437.863   1
   1  10   6 843.810 490.478   3
  11 -10   9 2141.38 650.055   1
  11 -10   9 1308.12 2209.46   3
 -11   1   9 3328.29 637.795   2
 -10  -1   9 3130.19 605.449   2
 -10  -1   9 2847.30 698.163   1
  10 -11   9 578.624 1476.79   3
 -11   1   9 1917.29 293.007   4
   1  10   9 2833.13 776.850   3
  -1  11   9 2771.34 737.917   3
  10 -11   9 3018.46 722.803   1
 -11   1   9 3791.58 849.947   3
 -10  -1   9-1267.56 1282.04   3
 -11   1   9 4101.14 729.339   1
  -9  -2  -7 19362.6 1259.89   4
 -11   2  -7 19974.4 1206.93   4
  -9  -2  -7 15904.0 614.488   1
 -11   2  -7 18360.7 903.280   1
  -9  -2  -4 27228.8 1316.59   2
   2   9  -4 24163.8 694.049   4
 -11   2  -4 25865.3 1047.59   1
 -11   2  -4 28457.2 1259.27   4
  -2  11  -4 24854.9 715.528   4
  -9  -2  -4 25221.5 1284.70   4
  -9  -2  -4 28614.0 922.015   1
 -11   2  -4 29610.6 1335.65   2
   9 -11  -4 26721.6 1130.34   3
   2   9  -1 42060.1 959.618   2
  11  -9  -1 42620.0 896.270   3
  -9  -2  -1 39785.6 1373.90   4
  -9  -2  -1 39336.0 1139.50   3
   2   9  -1 42012.0 1262.77   4
  -9  -2  -1 45035.7 1412.01   2
   2   9  -1 39753.4 1328.57   1
 -11   2  -1 44059.7 1394.78   1
  -2  11  -1 42238.2 1403.70   1
 -11   2  -1 42542.6 1375.26   4
  -2  11  -1 42760.1 853.166   2
  11  -9  -1 42629.4 1356.62   4
   2   9  -1 43078.5 1329.34   3
  11  -9  -1 43469.5 1466.92   1
  11  -9  -1 42102.3 1319.37   2
   9 -11  -1 45757.2 1481.65   1
   9 -11  -1 40827.4 1131.24   3
 -11   2  -1 41927.2 1358.14   2
  -2  11  -1 44398.1 1399.73   3
   2   9   2 11602.2 762.136   2
  11  -9   2 10795.8 625.867   2
  -2  11   2 10484.8 595.310   1
 -11   2   2 10582.8 675.168   4
   9 -11   2 10649.5 680.457   4
  11  -9   2 11727.5 726.358   4
  -9  -2   2 12485.8 545.433   3
  -2  11   2 10957.5 760.125   3
  -9  -2   2 11327.0 669.326   4
  11  -9   2 11697.0 852.649   1
 -11   2   2 10184.1 688.193   2
 -11   2   2 11358.0 298.142   3
   2   9   2 11736.2 780.906   3
   9 -11   2 11358.4 533.990   2
  -9  -2   2 11536.8 683.574   2
   2   9   2 11855.5 797.447   4
   9 -11   2 11343.6 842.102   1
   2   9   5 27841.9 1423.15   3
 -11   2   5 25327.3 974.149   4
  -9  -2   5 25787.7 1324.97   1
  11  -9   5 26252.5 1302.63   1
   9 -11   5 25571.4 859.631   2
  11  -9   5 26653.2 1060.73   2
   9 -11   5 26580.3 1380.31   1
  -9  -2   5 27767.2 905.884   4
 -11   2   5 27069.6 1262.44   2
   9 -11   5 26677.3 958.851   4
  -2  11   5 24238.7 1315.03   3
  -9  -2   5 23635.2 1088.31   2
  11  -9   5 26345.6 1064.20   4
  11  -9   8 3701.63 631.140   1
   9 -11   8 5299.23 796.955   1
   9 -11   8 4373.11 395.142   4
 -11   2   8 5352.26 776.412   1
  11  -9   8 3923.52 499.626   4
  11  -9   8-1499.93 1876.77   3
  -9  -2   8 3545.64 251.011   4
 -11   2   8 5201.06 471.496   4
  -9  -2   8 4169.80 620.041   2
  -2  11   8 5663.80 884.166   3
   2   9   8 5628.18 852.841   3
  -9  -2   8 595.852 1243.34   3
 -11   2   8 5901.30 897.471   3
   9 -11   8 3191.33 491.145   2
  -9  -2   8 5768.47 836.192   1
 -11   2   8 5862.87 755.832   2
   9 -11  11 5846.54 914.528   1
   2   9  11 8055.12 1230.20   3
 -11   2  11 8839.05 1021.59   1
  11  -9  11 6712.20 933.625   1
  -9  -2  11 6351.18 899.005   2
  -9  -2  11 7642.19 1030.40   1
 -11   2  11 9398.46 1151.44   3
   9 -11  11-2057.77 2585.59   3
 -11   2  11 6002.86 947.462   2
  -2  11  11 8840.86 1253.93   3
  11  -9  11-691.027 1737.84   3
  -9  -2  11 2975.74 1269.45   3
 -11   3  -8 2919.24 487.923   1
 -11   3  -8 2653.90 547.401   4
  -8  -3  -5 4847.58 341.425   1
  -8  -3  -5 4501.58 606.828   4
 -11   3  -5 4865.15 520.417   1
   8 -11  -5 4683.23 628.452   3
   3   8  -5 2605.30 174.322   4
  11  -8  -5 1513.97 841.168   3
 -11   3  -5 4761.04 630.119   2
  -3  11  -5 3376.08 230.182   4
  -8  -3  -5 5213.12 674.667   2
 -11   3  -5 5804.53 669.575   4
  -8  -3  -2 40223.7 1387.10   2
   8 -11  -2 37237.2 1252.35   1
   3   8  -2 39112.6 858.772   2
   3   8  -2 38549.0 1244.11   3
 -11   3  -2 35695.6 1283.21   4
   8 -11  -2 37018.0 1141.59   3
   3   8  -2 35817.4 1053.97   4
  -3  11  -2 37621.4 1398.68   1
  -8  -3  -2 40782.4 1453.13   4
 -11   3  -2 37496.7 1287.44   1
  11  -8  -2 38463.5 1289.89   4
  11  -8  -2 40337.5 802.512   3
  11  -8  -2 37827.6 1308.72   2
 -11   3  -2 37887.4 1322.25   2
  -8  -3  -2 36150.2 1244.87   3
  -3  11   1 20108.0 963.276   3
 -11   3   1 21841.6 948.421   2
   3   8   1 21145.9 905.211   2
   8 -11   1 19378.5 860.572   3
  -8  -3   1 20944.9 867.898   2
  -3  11   1 21472.9 884.117   1
   8 -11   1 21924.0 1080.78   1
  -8  -3   1 21080.1 726.020   3
 -11   3   1 20356.9 1008.62   1
  11  -8   1 21089.7 873.093   2
   3   8   1 19231.5 955.691   4
   8 -11   1 21230.3 719.568   2
   3   8   1 20745.5 941.670   3
 -11   3   1 20073.4 888.806   4
  11  -8   1 20113.0 905.493   4
  -8  -3   1 20668.3 898.052   4
  11  -8   1 21642.0 1056.41   1
  11  -8   4 2733.39 401.676   4
 -11   3   4 2621.49 423.492   2
  -8  -3   4 2390.91 362.270   3
   8 -11   4 3107.88 368.868   4
  -8  -3   4 2635.30 326.392   4
  11  -8   4 2753.79 371.063   2
   3   8   4 2910.31 549.152   4
   8 -11   4 3099.09 562.794   1
  -8  -3   4 2401.17 338.145   2
  11  -8   4 2930.69 515.771   1
  -3  11   4 2687.89 265.153   1
   8 -11   4 2438.39 254.121   2
  -3  11   4 3112.26 535.613   3
 -11   3   4 2408.83 356.621   4
   3   8   4 2257.98 486.467   3
  -8  -3   4 3033.74 504.431   1
  -8  -3   7 4333.11 562.812   2
  11  -8   7 4302.29 620.032   1
 -11   3   7 2985.56 386.106   4
  -8  -3   7 3880.44 712.365   1
  11  -8   7 3312.26 491.291   4
   8 -11   7 2865.92 400.176   2
  -3  11   7 4178.46 697.452   3
 -11   3   7 4252.65 668.831   3
  -8  -3   7 2703.59 245.851   4
   8 -11   7 3369.16 622.118   1
   3   8   7 4258.05 744.492   3
 -11   3   7 3701.90 629.798   2
 -11   3  10 9187.88 1050.41   3
 -11   3  10 7598.57 968.784   2
  -8  -3  10 9059.81 934.848   2
  11  -8  10 1196.99 1764.46   3
  -8  -3  10-492.051 1503.70   3
 -11   3  10 8205.88 927.769   1
  11  -8  10 7090.69 901.116   1
   8 -11  10-573.512 2056.52   3
  -8  -3  10 8156.79 1014.98   1
  -3  11  10 10054.1 1197.75   3
   8 -11  10 8669.77 1015.65   1
   3   8  10 9969.63 1249.64   3
 -11   4  -9 6195.39 763.338   4
 -11   4  -6 458.202 362.316   2
  -7  -4  -6 756.792 389.610   4
 -11   4  -6 139.979 303.678   4
 -11   4  -6 454.734 290.183   1
  -4  11  -3 15492.5 965.410   1
 -11   4  -3 15413.5 849.604   1
  -7  -4  -3 16064.0 956.515   2
  -7  -4  -3 14717.3 915.767   4
  11  -7  -3 17693.4 895.585   4
  -4  11  -3 15677.4 653.163   4
   4   7  -3 17161.7 634.983   2
 -11   4  -3 15791.0 886.582   4
 -11   4  -3 14811.3 873.843   2
   7 -11  -3 16022.8 782.555   1
   7 -11  -3 14977.1 821.187   3
  -7  -4  -3 16561.6 977.760   3
  -7  -4  -3 15254.9 630.752   1
   4   7  -3 16174.2 635.803   4
   7 -11   0 3979.75 445.736   3
 -11   4   0 4412.73 475.269   2
  -4  11   0 3843.45 461.395   3
  11  -7   0 3621.14 435.659   4
   4   7   0 3962.19 454.065   4
  -7  -4   0 4379.73 400.754   3
   7 -11   0 4335.86 519.142   1
 -11   4   0 3650.12 484.750   1
  11  -7   0 4401.70 463.201   2
  -4  11   0 3797.34 461.590   1
  -7  -4   0 4175.36 451.080   2
  11  -7   0 3926.74 287.429   3
 -11   4   0 3971.05 446.309   4
   4   7   0 3602.79 422.294   3
   4   7   0 3939.12 387.424   2
  11  -7   0 4043.53 530.565   1
  -7  -4   0 2828.12 381.471   4
   7 -11   3 13206.5 931.448   1
  -7  -4   3 14214.2 690.375   2
  11  -7   3 16369.1 826.869   4
   4   7   3 13019.7 864.855   3
 -11   4   3 13002.1 815.520   2
  -7  -4   3 14608.6 927.613   1
  11  -7   3 14230.0 923.956   1
 -11   4   3 12749.9 735.409   4
  11  -7   3 14978.2 779.780   2
  -7  -4   3 14704.7 714.804   3
   4   7   3 15308.3 943.553   4
   7 -11   3 13643.6 449.556   2
  -7  -4   3 14062.0 662.671   4
   4   7   3 14858.3 893.690   2
  -4  11   3 13930.3 630.405   1
  -4  11   3 13560.6 839.897   3
 -11   4   3 14000.1 446.204   3
   4   7   6 1511.03 547.440   3
  11  -7   6 3050.04 535.910   1
  -7  -4   6 2662.45 233.442   4
 -11   4   6 2600.27 488.620   2
  11  -7   6 2084.82 443.489   2
  11  -7   6 385.670 1465.22   3
 -11   4   6 2697.33 420.597   4
 -11   4   6 2042.28 432.628   3
  -4  11   6 3549.16 620.714   3
  11  -7   6 2907.51 426.667   4
  -4  11   6 2423.13 225.668   1
  -7  -4   6 2393.71 415.077   2
  -7  -4   6 2201.83 535.165   1
   7 -11   6 1351.93 443.724   1
   7 -11   6 2204.69 294.683   2
 -11   4   9 8808.60 638.233   4
 -11   4   9 11615.0 1094.34   2
  -4  11   9 10163.2 1114.92   3
  11  -7   9 8348.89 842.302   1
  -7  -4   9 10129.6 1066.75   1
 -11   4   9 10775.8 997.682   1
   4   7   9 9043.19 1136.32   3
 -11   4   9 8581.21 883.966   3
  -7  -4   9 10378.0 903.349   2
   7 -11   9 10478.0 1094.37   1
  -4  11  12-670.409 722.875   3
  11  -7  12-125.624 834.147   3
  -7  -4  12 517.295 727.117   1
 -11   4  12-8.11302 531.706   2
  -7  -4  12 692.951 533.190   2
  -7  -4  12-433.599 1114.42   3
   7 -11  12 266.783 642.079   1
   7 -11  12 3069.18 2998.62   3
   4   7  12 1537.30 899.797   3
 -11   4  12 325.000 600.240   3
 -11   5  -7 18651.6 1072.15   4
 -11   5  -7 17332.4 1018.70   1
  -5  11  -4 18901.3 651.314   4
   5   6  -4 18943.9 606.006   4
 -11   5  -4 19554.5 968.483   1
  -6  -5  -4 19865.6 1210.50   2
   5   6  -4 19938.5 780.221   2
   6 -11  -4 19218.8 773.011   1
  -6  -5  -4 18545.4 1076.21   4
 -11   5  -4 19633.7 966.173   4
 -11   5  -4 21717.4 1059.66   2
   6 -11  -4 19234.8 1034.13   3
  -6  -5  -4 18007.8 548.547   1
  -5  11  -4 19852.2 1129.81   1
  -6  -5  -1 46367.9 1355.33   2
  11  -6  -1 50878.3 1422.16   2
   5   6  -1 45338.7 1213.95   3
  -5  11  -1 49110.6 1398.82   3
   5   6  -1 50802.9 1151.32   2
  -5  11  -1 45124.8 1387.73   1
 -11   5  -1 48507.1 1387.10   4
   6 -11  -1 46009.9 1362.91   1
   5   6  -1 50239.6 1296.97   4
 -11   5  -1 45019.8 1313.70   2
  -5  11  -1 48059.4 871.481   2
  11  -6  -1 47913.5 1355.97   4
  -6  -5  -1 46908.1 1296.65   3
  -6  -5  -1 48335.2 1461.23   4
   6 -11  -1 45641.0 1282.53   3
 -11   5  -1 46131.3 1451.33   1
   5   6   2 37607.7 1335.50   4
  -6  -5   2 36818.6 1078.83   3
   6 -11   2 40152.8 1319.55   3
 -11   5   2 37756.6 1296.39   2
  11  -6   2 38555.1 1374.86   1
 -11   5   2 37176.6 1339.80   1
   5   6   2 37700.9 1288.77   2
  -6  -5   2 39132.5 1406.05   1
 -11   5   2 38574.3 1231.45   4
  -6  -5   2 38125.8 1120.46   4
  11  -6   2 38263.4 1180.26   2
  11  -6   2 39244.1 1254.91   4
  -6  -5   2 37521.5 1034.28   2
  -5  11   2 37613.5 1090.24   1
   6 -11   2 36944.2 1382.41   1
   5   6   2 36296.6 1264.85   3
  -5  11   2 38021.5 1243.62   3
 -11   5   5 15096.9 824.035   4
  -5  11   5 15726.3 630.137   1
   5   6   5 14430.1 1054.33   3
 -11   5   5 14308.2 963.743   2
  -5  11   5 14605.5 962.610   3
   6 -11   5 14324.6 1027.28   1
  11  -6   5 13634.3 799.014   4
  11  -6   5 14810.5 905.111   2
   6 -11   5 11799.6 450.430   2
  -6  -5   5 15796.2 780.995   2
  11  -6   5 15088.3 934.970   1
  -6  -5   5 12822.0 982.071   1
 -11   5   5 15224.8 765.610   3
  -6  -5   5 13977.7 529.411   4
 -11   5   8 15907.2 1128.66   3
   5   6   8 16511.2 1359.65   3
  -5  11   8 12032.4 470.866   1
 -11   5   8 17133.5 913.155   4
  -5  11   8 14674.0 504.431   1
 -11   5   8 18458.0 1195.54   1
  11  -6   8 13704.6 893.849   4
   6 -11   8 13539.2 767.329   2
   6 -11   8 14817.1 1197.72   1
  11  -6   8 15809.5 1092.45   1
 -11   5   8 16701.8 1229.58   2
  -5  11   8 17404.6 1315.32   3
  -6  -5   8 16401.7 1242.63   1
  -6  -5   8 16405.6 989.111   2
   6 -11  11 8942.17 1092.43   1
 -11   5  11 9719.13 1182.61   2
  -6  -5  11 9292.39 954.223   2
  -6  -5  11 11234.2 1223.71   1
 -11   5  11 10878.3 1178.28   3
  11  -6  11 9707.51 1452.64   3
  -5  11  11 9833.63 1252.89   3
 -11   5  11 11523.0 1087.67   1
   6 -11  11-1517.01 2248.62   3
   5   6  11 10290.5 1379.37   3
  -6  -5  11 1161.66 2014.32   3
 -11   6  -8 17108.9 1046.46   4
  -6  11  -5 12461.0 520.402   4
 -11   6  -5 13920.4 850.605   4
 -11   6  -5 14074.4 898.571   2
   6   5  -5 12872.9 469.994   4
 -11   6  -5 13112.5 868.886   1
  -5  -6  -2 37400.8 1400.24   4
  -5  -6  -2 35928.6 1290.80   2
 -11   6  -2 37108.0 1228.94   4
   6   5  -2 39303.4 1084.97   4
  11  -5  -2 40079.0 1324.99   2
  -6  11  -2 34581.4 645.837   2
  -5  -6  -2 35949.6 964.352   1
 -11   6  -2 37829.1 1335.47   1
  11  -5  -2 40276.0 1239.89   4
   5 -11  -2 38675.0 1137.30   1
  -6  11  -2 38570.6 1369.93   1
 -11   6  -2 36938.5 1197.46   2
  -6  11  -2 36059.8 1060.19   4
   6   5  -2 40887.4 1061.29   2
   5 -11  -2 35265.9 1223.02   3
  -5  -6  -2 35143.2 1249.12   3
  11  -5   1 42916.3 1296.93   4
 -11   6   1 42604.4 1304.81   4
  -5  -6   1 43027.9 1101.18   2
 -11   6   1 42241.7 1301.89   2
  -6  11   1 43260.3 1257.94   3
   6   5   1 46940.8 1399.55   4
  11  -5   1 43181.9 1401.01   1
  -5  -6   1 42601.6 1236.92   4
 -11   6   1 40936.7 1388.94   1
   6   5   1 46681.5 1320.58   2
   5 -11   1 45374.7 1334.43   3
  -5  -6   1 42920.1 1353.70   1
   5 -11   1 42695.1 1403.02   1
   6   5   1 44759.9 1272.09   3
  11  -5   1 44200.4 1259.84   2
  -6  11   1 41103.9 1250.99   1
  -5  -6   1 42210.2 1165.47   3
  11  -5   4 16988.3 866.139   4
 -11   6   4 16847.8 998.055   1
   5 -11   4 17702.2 1081.46   1
  -5  -6   4 15600.9 858.436   3
  -5  -6   4 16698.0 1059.56   1
 -11   6   4 16791.9 674.086   3
  -5  -6   4 18073.8 639.371   4
  -5  -6   4 17413.4 704.885   2
   6   5   4 15975.8 964.726   4
  -6  11   4 18086.5 767.429   1
  -6  11   4 16443.6 930.032   3
 -11   6   4 18190.4 882.118   4
  11  -5   4 16581.6 914.870   1
  11  -5   4 15819.2 900.381   2
 -11   6   4 17388.5 1013.59   2
   6   5   4 14735.6 979.331   3
  -5  -6   7 16118.4 1180.88   1
  -6  11   7 17535.7 1204.50   3
   5 -11   7 16716.4 708.175   2
  -5  -6   7 19080.8 951.010   2
   5 -11   7 18260.1 1239.59   1
  -6  11   7 19414.9 749.643   1
 -11   6   7 21902.8 1143.71   3
  11  -5   7 18123.8 1053.47   1
 -11   6   7 19690.7 1280.33   2
   6   5   7 16709.7 1290.01   3
 -11   6   7 16569.1 908.932   4
  11  -5   7 15494.6 924.263   4
   5 -11  10 5589.55 874.146   1
 -11   6  10 3759.08 527.335   4
  -5  -6  10-160.200 1756.00   3
  -5  -6  10 4768.46 676.920   2
 -11   6  10 5000.16 890.346   2
 -11   6  10 5106.73 748.562   1
  -6  11  10 5543.89 933.849   3
   5 -11  10 1005.59 1779.92   3
   6   5  10 5109.60 987.794   3
  11  -5  10 4535.84 669.499   1
  11  -5  10 5896.55 1215.60   3
 -11   6  10 4300.31 763.304   3
  -5  -6  10 5177.28 887.967   1
 -11   7  -9 11176.8 863.369   4
 -11   7  -6 1444.59 430.129   1
 -11   7  -6 2261.42 473.092   2
  -7  11  -6 2286.80 273.732   4
 -11   7  -6 2577.88 439.680   4
 -11   7  -3 12347.1 748.131   2
 -11   7  -3 12610.0 741.663   4
  -7  11  -3 11920.3 619.786   4
  11  -4  -3 11707.3 789.536   2
   7   4  -3 12535.3 660.854   2
 -11   7  -3 12914.1 847.266   1
  11  -4  -3 11793.1 709.706   4
  -7  11  -3 11936.7 842.866   1
  -4  -7  -3 11969.7 479.322   1
   4 -11  -3 12379.4 817.416   3
  -4  -7  -3 11939.1 832.847   3
  -7  11  -3 11422.9 438.240   2
   4 -11  -3 12233.0 604.611   1
   7   4  -3 12495.2 585.822   4
   7   4   0 3792.80 389.125   3
   4 -11   0 3114.45 415.419   3
  11  -4   0 4011.10 438.627   4
  -7  11   0 3370.96 421.726   3
  11  -4   0 3930.87 449.864   2
  -7  11   0 3425.07 350.034   2
  -4  -7   0 3420.98 389.632   2
   4 -11   0 3909.85 476.019   1
 -11   7   0 2635.94 373.593   2
  -4  -7   0 3294.84 409.296   1
   7   4   0 3397.06 415.249   4
 -11   7   0 2969.84 458.537   1
  -4  -7   0 3855.08 447.369   3
 -11   7   0 2200.40 362.681   4
  -4  -7   0 3226.27 434.104   4
  11  -4   0 3563.66 249.738   3
   7   4   0 4101.52 431.822   2
  -7  11   0 3933.04 490.754   1
  -7  11   0 3487.48 458.803   4
  -7  11   3 14234.6 749.888   1
 -11   7   3 14372.7 512.639   3
  -4  -7   3 13752.7 782.106   3
  -4  -7   3 15669.8 980.581   1
   7   4   3 13928.4 890.579   3
 -11   7   3 14682.9 895.665   1
  11  -4   3 13831.8 805.804   2
   7   4   3 14732.3 922.773   2
  11  -4   3 19186.4 1946.51   3
   4 -11   3 14667.2 892.774   3
   7   4   3 13636.3 872.927   4
 -11   7   3 14713.4 826.893   4
   4 -11   3 14494.8 948.376   1
 -11   7   3 15739.4 924.016   2
  -4  -7   3 14429.4 569.644   2
  11  -4   3 14941.1 826.395   4
  -7  11   3 15034.8 811.386   3
  11  -4   3 15404.9 849.409   1
  -4  -7   3 13939.5 620.275   4
 -11   7   6 355.431 390.607   2
   4 -11   6 78.0967 119.994   2
  -7  11   6 10.0626 334.866   3
   4 -11   6 215.996 395.839   1
 -11   7   6 398.897 365.556   1
 -11   7   6-7.70016 309.113   4
  11  -4   6 146.176 287.676   1
  -4  -7   6 165.504 219.291   2
  -4  -7   6-324.258 393.994   1
  11  -4   6 565.443 307.954   4
  -7  11   6 205.134 219.956   1
  11  -4   6-288.781 864.673   3
 -11   7   6 365.789 271.982   3
   7   4   6 539.665 414.902   3
   7   4   9 5188.96 947.634   3
  -4  -7   9 6996.70 917.668   1
  -7  11   9 5884.35 478.962   1
   4 -11   9 4457.96 510.519   2
  11  -4   9 4579.12 625.426   1
  11  -4   9 6098.44 1085.98   3
 -11   7   9 5385.23 611.463   4
  -7  11   9 6434.47 916.932   3
 -11   7   9 4165.35 785.898   2
 -11   7   9 6952.34 774.528   1
 -11   7   9 5477.93 788.440   3
  -4  -7   9 5363.24 608.195   2
   4 -11   9 5118.53 833.291   1
 -11   7  12 1228.82 752.460   2
  -7  11  12 652.242 732.433   3
   4 -11  12 634.639 658.583   1
  -4  -7  12-228.593 655.925   1
   4 -11  12-618.229 2588.15   3
  -4  -7  12 1557.52 2566.31   3
  11  -4  12 1482.86 846.069   3
   7   4  12-108.068 729.655   3
 -11   7  12 783.930 632.499   3
  -8  11  -7 3315.64 332.969   4
 -11   8  -7 3477.36 470.207   4
 -11   8  -4 2575.05 388.301   4
  11  -3  -4 2275.30 442.821   2
 -11   8  -4 2687.09 482.424   1
   3 -11  -4 2262.75 260.173   1
   8   3  -4 2350.46 375.507   2
  -8  11  -4 1949.41 473.357   1
   8   3  -4 3031.05 329.129   4
 -11   8  -4 2587.63 400.433   2
  -8  11  -4 2570.16 327.425   4
  -8  11  -4 2510.06 270.323   2
  11  -3  -4 2245.00 377.306   4
  -3  -8  -1 18623.2 887.607   2
   8   3  -1 18659.5 685.399   3
   3 -11  -1 21200.6 952.602   3
  11  -3  -1 20950.1 940.308   2
   8   3  -1 20632.8 838.590   2
  -8  11  -1 21456.8 903.528   4
  -3  -8  -1 19547.8 807.077   1
 -11   8  -1 19614.1 859.619   2
 -11   8  -1 19377.1 1011.03   1
  -8  11  -1 20356.4 697.543   2
  -8  11  -1 19490.7 1004.58   1
 -11   8  -1 20129.8 915.971   4
   8   3  -1 21175.4 855.994   4
  11  -3  -1 20981.7 912.446   4
  -3  -8  -1 18525.2 911.000   3
   3 -11  -1 19087.4 838.089   1
  -8  11   2 38128.6 1262.96   1
   3 -11   2 37928.1 1310.37   3
  11  -3   2 39775.5 1309.93   1
 -11   8   2 39122.7 1327.18   2
 -11   8   2 37769.4 1265.38   4
 -11   8   2 39687.1 776.268   3
  -8  11   2 37035.4 1281.34   2
  -3  -8   2 38920.2 1410.51   1
  -3  -8   2 40351.8 1271.36   3
  -8  11   2 40924.5 1188.34   3
  11  -3   2 42158.2 1297.66   3
   8   3   2 38785.5 1250.83   3
   3 -11   2 39136.4 1427.44   1
   8   3   2 38999.7 1324.39   2
  11  -3   2 36676.7 1253.65   4
  -3  -8   2 38812.2 895.694   2
  11  -3   2 39233.1 1283.59   2
 -11   8   2 38558.3 1399.99   1
   8   3   2 38660.0 1339.11   4
  11  -3   5 4500.38 519.937   1
 -11   8   5 3932.91 568.452   1
  -8  11   5 4612.86 581.994   3
 -11   8   5 3941.84 613.014   2
  -3  -8   5 4007.21 342.123   2
  11  -3   5 4246.90 552.126   4
  -8  11   5 5356.65 510.008   1
  -3  -8   5 5396.86 709.625   1
   8   3   5 3581.19 609.117   3
 -11   8   5 3865.91 431.966   3
   3 -11   5 4064.43 619.314   1
 -11   8   5 4194.77 511.821   4
 -11   8   8 3815.69 686.616   2
  11  -3   8 2973.96 490.742   1
  -8  11   8 3664.79 592.979   4
  -3  -8   8 2753.19 424.813   2
 -11   8   8 2756.27 483.452   4
   3 -11   8 3036.13 383.864   2
  -8  11   8 3689.38 676.773   3
  -8  11   8 3531.50 468.707   1
  -3  -8   8 3772.41 688.456   1
   3 -11   8 3401.71 763.291   1
 -11   8   8 3207.57 596.360   3
  11  -3   8 3533.71 882.889   3
   3 -11   8 2892.73 376.298   2
   8   3   8 2598.84 697.720   3
 -11   8  11 2894.51 632.473   1
  -8  11  11 2041.30 612.605   4
 -11   8  11 2578.46 784.578   2
   8   3  11 1507.00 826.218   3
  -3  -8  11 2300.02 539.555   2
 -11   8  11 2157.33 706.301   3
  -3  -8  11 3952.47 834.243   1
  11  -3  11 2945.63 954.909   3
   3 -11  11 2170.71 820.541   1
  -3  -8  11 2464.37 2318.63   3
  -8  11  11 1928.73 681.041   3
   3 -11  11 632.291 1962.29   3
 -11   9  -8 5096.66 566.378   4
  -9  11  -8 4834.59 422.984   4
  -9  11  -5 26185.1 919.687   2
  -9  11  -5 27517.2 937.172   4
 -11   9  -5 27263.9 1132.54   2
  11  -2  -5 25752.1 991.044   4
   9   2  -5 27571.9 881.857   4
 -11   9  -5 25560.8 1065.34   4
 -11   9  -5 24187.8 1245.92   1
  -9  11  -2 8197.65 580.852   4
   2 -11  -2 9187.47 556.386   1
  11  -2  -2 9925.60 645.188   4
 -11   9  -2 8778.49 722.423   1
   9   2  -2 9808.78 631.708   2
 -11   9  -2 8852.89 608.792   4
   9   2  -2 10075.7 596.368   4
   2 -11  -2 9248.92 727.091   3
  11  -2  -2 9147.36 649.544   2
  -9  11  -2 8439.47 466.434   2
 -11   9  -2 8761.46 591.589   2
  -2  -9  -2 8789.43 509.833   1
  -2  -9  -2 8936.55 706.818   3
  -9  11  -2 9259.81 756.896   1
   9   2   1 39249.6 1256.39   2
  -9  11   1 37775.2 1087.42   3
 -11   9   1 37304.2 842.939   3
 -11   9   1 37780.8 1290.62   4
  -9  11   1 37927.8 1328.26   1
  -2  -9   1 37377.8 1310.47   1
   2 -11   1 38536.7 1288.32   3
  11  -2   1 37356.5 1237.01   4
  -9  11   1 38472.9 1203.25   2
   2 -11   1 36749.1 1307.61   1
  -2  -9   1 36670.4 1222.83   3
   9   2   1 39893.1 1305.91   4
 -11   9   1 35671.2 1355.81   1
  11  -2   1 38214.0 1241.88   2
 -11   9   1 39207.9 1276.30   2
  -2  -9   1 37632.0 934.332   2
   9   2   1 40067.9 1113.85   3
  11  -2   1 38375.6 1000.13   3
   2 -11   4 24180.7 1272.49   1
  11  -2   4 25695.7 1056.48   1
 -11   9   4 25409.5 1254.46   2
  11  -2   4 27921.8 1358.22   3
  -2  -9   4 24688.3 634.676   2
  -9  11   4 27076.1 1231.46   4
   9   2   4 25532.2 1205.83   4
  11  -2   4 24332.7 1108.06   4
 -11   9   4 24396.1 1180.32   1
  -2  -9   4 24290.8 1152.67   3
  -9  11   4 25872.9 1101.59   1
  -2  -9   4 25399.7 1302.16   1
   9   2   4 24894.7 1239.01   3
 -11   9   4 25620.9 903.935   3
 -11   9   4 26611.7 1159.86   4
  -9  11   4 25159.4 1045.37   3
  11  -2   7 19824.0 953.220   1
   9   2   7 19294.3 1418.83   3
 -11   9   7 18798.8 1067.93   4
 -11   9   7 18167.0 1272.51   2
 -11   9   7 20675.9 1154.40   3
   2 -11   7 16830.9 646.215   2
  -2  -9   7 19880.5 814.018   2
   2 -11   7 16024.4 619.405   2
  -2  -9   7 20006.9 1338.21   1
 -11   9   7 17506.3 1104.69   1
   2 -11   7 19379.6 1319.23   1
  -9  11   7 20094.8 1187.73   4
  -9  11   7 20895.3 1236.68   3
  11  -2   7 21069.3 1494.72   3
  -9  11   7 20279.1 1016.30   1
   2 -11  10-337.836 1636.30   3
  -2  -9  10-916.717 1847.57   3
 -11   9  10 3898.49 602.149   1
  -9  11  10 2985.32 608.307   4
  -2  -9  10 3344.32 753.512   1
   2 -11  10 2305.23 431.098   2
 -11   9  10 2757.51 775.960   2
  11  -2  10 2650.41 859.863   3
   9   2  10 1835.22 711.061   3
  -9  11  10 3814.65 857.240   3
  -2  -9  10 3843.00 547.905   2
 -11   9  10 2354.41 526.371   4
 -11   9  10 3526.84 765.123   3
   2 -11  10 2634.13 677.571   1
 -11  10  -9 3100.35 452.901   4
 -10  11  -9 2150.04 330.697   4
  10   1  -6 1075.13 253.752   4
 -11  10  -6 1035.06 335.172   2
 -10  11  -6 1324.83 332.015   4
 -11  10  -6 946.815 318.290   4
 -11  10  -3 10454.5 678.758   4
  11  -1  -3 12788.1 716.777   4
  10   1  -3 10863.6 717.974   2
 -10  11  -3 10701.3 575.891   2
  11  -1  -3 10957.6 747.588   2
  -1 -10  -3 10704.2 817.867   3
 -10  11  -3 11848.6 715.492   4
 -11  10  -3 11819.7 849.841   1
 -10  11  -3 12855.0 921.631   1
  -1 -10  -3 12217.9 518.709   1
   1 -11  -3 11552.8 844.569   3
   1 -11  -3 11468.7 547.189   1
  10   1  -3 12564.8 669.458   4
 -11  10  -3 12755.0 675.749   2
   1 -11   0 464.065 274.307   3
 -10  11   0-65.4774 225.298   2
 -10  11   0 257.795 271.841   4
   1 -11   0-87.9381 270.603   1
  10   1   0 39.2024 243.191   4
 -10  11   0-33.7605 308.069   1
  11  -1   0 188.687 261.878   2
  -1 -10   0-26.2103 284.763   3
  10   1   0 282.250 251.303   2
  10   1   0 66.8610 176.852   3
  11  -1   0 397.118 175.260   3
  11  -1   0 470.132 272.837   4
 -11  10   0-9.08293 246.149   4
  -1 -10   0 32.4864 283.969   1
 -11  10   0 215.897 324.782   1
 -11  10   0 430.759 271.204   2
  10   1   3 10306.4 760.138   4
  11  -1   3 10933.6 776.533   3
  -1 -10   3 10085.0 750.551   3
   1 -11   3 10066.9 772.351   3
 -11  10   3 8487.44 681.420   4
 -11  10   3 10878.9 820.754   2
 -10  11   3 10953.9 790.427   4
 -10  11   3 10151.0 787.551   2
 -11  10   3 10579.4 774.489   1
  10   1   3 9920.33 776.378   2
  -1 -10   3 10831.2 843.205   1
 -10  11   3 10740.0 761.709   1
  11  -1   3 10157.8 747.572   4
 -10  11   3 10850.5 642.708   3
  10   1   3 11267.5 785.292   3
   1 -11   3 11625.9 902.772   1
  -1 -10   3 9684.49 348.284   2
  11  -1   3 9944.57 778.422   2
 -11  10   3 10909.0 581.889   3
 -11  10   6 239.556 337.268   4
 -11  10   6-3.15598 337.219   1
   1 -11   6 66.5148 109.010   2
 -11  10   6-114.603 366.050   2
   1 -11   6 112.367 116.690   2
   1 -11   6-11.2157 455.337   1
 -10  11   6 99.6220 288.141   1
  11  -1   6 164.373 468.171   3
  11  -1   6 370.246 261.672   1
  -1 -10   6 264.332 161.108   2
 -10  11   6 201.611 346.963   4
 -10  11   6 66.5964 359.406   2
  10   1   6 73.5787 403.169   3
  -1 -10   6-562.714 510.592   1
 -11  10   6 218.091 275.360   3
 -10  11   6 514.986 374.057   3
 -10  11   9 6660.17 639.212   1
   1 -11   9 5064.03 495.078   2
 -10  11   9 4888.37 668.715   4
 -11  10   9 5804.46 718.472   4
  -1 -10   9 5407.74 812.415   1
 -11  10   9 7089.83 1039.43   2
  11  -1   9 5896.61 549.118   1
 -10  11   9 7078.78 905.936   3
 -11  10   9 5981.86 699.606   1
   1 -11   9 7620.46 1036.81   1
  -1 -10   9 4874.27 528.308   2
  10   1   9 5796.84 960.379   3
 -10  11   9 5065.74 876.558   2
 -11  10   9 6218.64 853.820   3
  11  -1   9 7336.45 1095.00   3
 -11  11  -7-23.0465 243.516   4
  11   0  -4 8852.46 720.836   2
 -11  11  -4 10331.0 633.482   2
 -11  11  -4 9034.79 642.683   4
   0 -11  -4 7665.49 353.830   1
  11   0  -4 10302.0 640.303   4
   0 -11  -1-60.4100 275.740   3
  11   0  -1 59.0778 257.754   4
  11   0  -1-31.8442 137.309   3
   0 -11  -1-95.9949 249.782   1
 -11  11  -1-468.195 292.688   4
 -11  11  -1-157.159 203.298   2
  11   0  -1 167.364 247.388   2
 -11  11  -1 175.932 349.397   1
 -11  11   2 4959.61 407.018   3
   0 -11   2 5129.87 572.955   3
 -11  11   2 5439.54 590.615   4
  11   0   2 5877.31 575.872   2
  11   0   2 5612.53 575.854   4
 -11  11   2 5506.04 610.815   1
   0 -11   2 4912.10 604.122   1
  11   0   2 4513.87 472.460   3
 -11  11   2 4668.45 540.851   2
   0 -11   5 16.0286 57.6515   2
 -11  11   5 149.084 339.273   2
   0 -11   5-34.3159 58.9764   2
 -11  11   5 340.541 319.490   1
  11   0   5-304.773 407.080   3
   0 -11   5 331.898 404.112   1
 -11  11   5-338.882 309.079   4
 -11  11   5 83.7426 266.964   3
   0 -11   8 1452.91 299.437   2
   0 -11   8 1828.80 303.175   2
 -11  11   8 2356.33 522.629   4
   0 -11   8 2826.30 731.437   1
 -11  11   8 2170.54 540.969   3
  11   0   8 2356.62 649.789   3
 -11  11   8 1454.31 551.382   2
   0 -11  11 14.3852 604.057   1
 -11  11  11 49.9983 425.327   4
 -11  11  11-76.0773 605.037   3
  11   0  11-316.998 708.940   3
 -11  11  11 228.977 558.625   2
   0 -11  11-1181.55 1844.91   3
 -12   0  -6 6054.33 811.373   2
 -12   0  -6 6659.50 768.418   4
 -12   0  -6 6201.22 542.744   1
  12 -12  -3 53.4255 219.993   3
 -12   0  -3-201.136 357.278   2
  12 -12  -3 316.120 329.576   1
   0  12  -3-131.724 234.079   4
 -12   0  -3-524.035 995.600   3
 -12   0  -3 282.099 299.302   1
 -12   0  -3 30.6755 345.557   4
  12 -12   0 10324.2 620.553   3
   0  12   0 11920.0 817.330   3
  12 -12   0 10734.0 882.559   1
   0  12   0 9257.83 764.406   4
 -12   0   0 8653.95 695.713   4
 -12   0   0 10156.5 526.018   3
  12 -12   0 9694.69 770.011   4
   0  12   0 11533.2 764.777   1
 -12   0   0 9905.10 723.387   2
  12 -12   0 11702.9 737.850   2
   0  12   0 11148.3 626.532   2
  12 -12   3 166.412 210.330   2
 -12   0   3-21.9387 163.924   3
  12 -12   3 440.371 377.049   1
 -12   0   3 243.107 243.287   4
  12 -12   3 21.1304 233.436   4
 -12   0   3 505.369 294.553   2
   0  12   3 157.612 331.912   3
   0  12   3-116.919 183.525   1
  12 -12   6 2275.91 415.921   4
 -12   0   6 2792.80 519.946   2
  12 -12   6 2684.24 425.535   2
   0  12   6 3499.28 669.422   3
  12 -12   6 1699.91 564.706   1
 -12   0   6 2906.81 398.941   4
 -12   0   9 612.347 882.705   3
 -12   0   9-104.950 528.167   1
 -12   0   9 426.636 196.947   4
  12 -12   9 608.896 503.482   1
  12 -12   9 272.087 1696.46   3
 -12   0   9-251.533 451.986   2
   0  12   9 897.371 613.265   3
 -12   1  -7 17706.5 870.808   1
 -11  -1  -7 17934.3 750.934   1
 -11  -1  -7 18739.2 1284.37   4
 -12   1  -7 19610.3 1268.15   4
 -11  -1  -4 16411.2 1076.76   4
   1  11  -4 15467.0 643.988   4
 -12   1  -4 15459.7 1048.37   2
 -12   1  -4 16441.9 1053.22   4
  12 -11  -4 16308.4 847.813   3
  11 -12  -4 15688.8 872.764   3
 -12   1  -4 14510.8 831.532   1
 -11  -1  -4 15428.3 807.160   1
 -11  -1  -4 15126.4 1044.41   2
  -1  12  -4 14333.6 641.556   4
 -12   1  -1 42772.2 1487.28   2
  11 -12  -1 49202.7 1650.95   1
   1  11  -1 46596.1 1498.14   3
  -1  12  -1 40063.9 1426.56   3
 -12   1  -1 47340.6 1532.17   1
  12 -11  -1 50655.0 1702.82   1
   1  11  -1 48915.4 1082.51   2
  -1  12  -1 47880.7 1013.46   2
   1  11  -1 48755.6 1445.11   4
  12 -11  -1 49279.2 1584.52   4
 -11  -1  -1 48453.0 1305.54   3
  12 -11  -1 48251.6 1481.46   2
 -11  -1  -1 42300.7 1454.12   2
 -11  -1  -1 43266.8 1497.02   4
  11 -12  -1 45746.9 1206.09   3
  -1  12  -1 49334.8 1575.25   1
 -12   1  -1 44813.9 1529.08   4
   1  11  -1 47884.0 1534.60   1
  12 -11  -1 43184.1 1051.14   3
   1  11   2 28942.1 1177.30   2
  -1  12   2 28559.8 1204.05   2
 -11  -1   2 30989.2 1177.34   2
  12 -11   2 30715.1 1059.48   2
  11 -12   2 30369.1 1176.59   4
  11 -12   2 29216.1 1149.84   3
  12 -11   2 28498.7 1176.10   4
  11 -12   2 30046.3 964.660   2
 -12   1   2 28275.0 1117.70   4
  -1  12   2 31747.1 1313.71   3
 -11  -1   2 30188.2 1154.17   4
   1  11   2 27296.9 1264.92   4
  12 -11   2 28950.1 1355.89   1
 -11  -1   2 30294.3 790.129   3
   1  11   2 29377.6 965.374   1
  -1  12   2 29416.5 1013.79   1
 -12   1   2 29661.0 603.592   3
  11 -12   2 29139.4 1365.69   1
   1  11   2 30875.4 1298.76   3
 -12   1   2 25998.9 1114.13   2
  11 -12   5 12095.1 747.626   4
  11 -12   5 13204.3 1065.32   1
  -1  12   5 13301.4 1032.39   3
 -11  -1   5 11964.4 689.249   4
  12 -11   5 12473.3 739.230   2
 -12   1   5 11849.6 873.909   2
  12 -11   5 13159.1 804.853   4
  11 -12   5 12638.0 673.717   2
  12 -11   5 12509.2 1001.73   1
 -11  -1   5 12231.6 846.091   2
 -12   1   5 12974.1 743.432   4
   1  11   5 13600.9 1061.78   3
 -11  -1   8 6379.14 740.436   2
 -11  -1   8-233.568 1332.53   3
   1  11   8 8468.95 1070.36   3
  11 -12   8 5625.71 521.824   4
 -12   1   8 5713.48 833.797   1
 -11  -1   8 8762.75 997.597   1
 -12   1   8 7323.83 544.157   4
 -12   1   8 7199.23 838.591   2
  11 -12   8 6384.18 896.832   1
  12 -11   8 6485.89 828.900   1
 -11  -1   8 6635.08 453.915   4
 -12   1   8-358.486 778.110   3
  12 -11   8 6207.88 605.091   4
  11 -12   8-672.965 1773.16   3
  12 -11   8 1596.88 1711.71   3
  -1  12   8 8150.35 1031.14   3
   1  11  11 15762.7 1621.37   3
 -11  -1  11 14773.8 1308.78   2
 -12   1  11 15712.3 1394.05   1
  -1  12  11 14723.7 1553.16   3
  11 -12  11 14635.9 1362.55   1
  12 -11  11 13797.7 1256.84   1
 -11  -1  11 16318.2 1442.66   1
 -11  -1  11 18544.2 1698.51   3
  11 -12  11-2216.25 2840.08   3
  12 -11  11-2913.55 2589.65   3
 -12   1  11 14428.7 1353.96   3
 -12   1  11 16064.5 1378.08   2
 -10  -2  -8 449.537 145.140   1
 -12   2  -8 901.566 379.539   1
 -10  -2  -5 5762.05 735.845   2
 -10  -2  -5 6234.35 740.480   4
 -12   2  -5 6335.58 594.148   1
 -12   2  -5 5288.47 669.645   4
  -2  12  -5 5170.84 329.252   4
  10 -12  -5 5888.50 678.937   3
  -2  12  -5 4789.26 298.618   4
   2  10  -5 4057.94 262.308   4
 -10  -2  -5 6106.94 482.704   1
 -12   2  -5 5645.69 691.615   2
 -10  -2  -2 2067.47 432.448   2
   2  10  -2 1583.19 387.730   1
 -10  -2  -2 2372.20 444.895   3
 -10  -2  -2 1720.68 436.185   4
 -12   2  -2 2024.04 414.926   2
   2  10  -2 2017.17 405.003   3
  12 -10  -2 2134.19 430.778   4
 -12   2  -2 1817.16 390.715   1
  10 -12  -2 2599.49 454.561   1
  12 -10  -2 1932.13 263.530   3
  -2  12  -2 2304.41 475.821   1
  12 -10  -2 1842.76 425.756   1
 -12   2  -2 1882.00 417.103   4
   2  10  -2 2343.66 366.993   4
  10 -12  -2 1664.39 318.510   3
  -2  12  -2 1151.32 124.454   2
 -12   2  -2 3160.82 841.172   3
   2  10  -2 1813.35 229.444   2
  12 -10  -2 1592.22 395.172   2
 -10  -2  -2 1815.74 356.398   1
  12 -10   1 725.252 244.448   2
  10 -12   1 1149.40 432.863   1
  10 -12   1 321.468 206.278   2
  -2  12   1 687.501 294.736   3
   2  10   1 1245.80 332.463   1
  10 -12   1 382.901 253.453   3
  -2  12   1 664.360 302.379   2
  12 -10   1 526.328 296.382   4
  -2  12   1 147.996 256.941   1
   2  10   1 282.966 262.254   2
   2  10   1 396.375 315.801   3
 -12   2   1 850.617 329.752   4
   2  10   1 560.419 337.909   4
 -12   2   1 1042.75 351.190   2
 -10  -2   1 715.650 269.867   4
 -10  -2   1 331.564 264.960   2
 -12   2   1 911.393 134.665   3
  12 -10   1 647.427 399.075   1
 -10  -2   1 463.708 189.955   3
  -2  12   4 1746.93 504.298   3
 -12   2   4 309.520 245.218   4
 -10  -2   4 634.151 275.360   3
  10 -12   4 785.659 305.606   4
  12 -10   4-204.004 368.137   1
 -10  -2   4 819.332 287.423   4
  -2  12   4 415.867 162.282   1
  12 -10   4 482.585 263.645   4
 -12   2   4 106.334 286.522   2
  10 -12   4 520.895 200.378   2
   2  10   4-28.4354 382.942   3
  12 -10   4 444.197 246.538   2
  10 -12   4-128.896 408.826   1
 -12   2   4 360.573 625.602   3
 -10  -2   4 797.633 301.399   2
  12 -10   7 2467.36 430.921   4
  10 -12   7 2786.17 657.158   1
 -12   2   7 1513.06 497.946   2
  10 -12   7 1556.36 356.919   2
 -10  -2   7-313.316 919.177   3
 -12   2   7 2266.68 358.030   4
 -10  -2   7 2362.46 300.165   4
 -10  -2   7 2179.30 445.358   2
  -2  12   7 2567.19 621.896   3
 -12   2   7 298.439 715.701   3
  10 -12   7 1501.02 321.164   4
   2  10   7 2785.96 631.730   3
  12 -10   7-171.033 1408.21   3
 -10  -2   7 3019.46 589.514   1
  12 -10   7 2238.66 572.266   1
  12 -10  10 2098.80 2238.44   3
   2  10  10 1061.25 629.385   3
  10 -12  10-103.836 2006.11   3
  12 -10  10 629.672 584.664   1
  -2  12  10 4.92039 568.497   3
 -12   2  10 704.415 574.798   3
 -12   2  10 562.594 504.296   1
 -10  -2  10 310.478 426.474   2
 -12   2  10-139.604 441.464   2
 -10  -2  10-35.0644 1331.87   3
 -10  -2  10 421.841 586.883   1
  10 -12  10 41.3571 493.473   1
 -12   3  -9-246.526 421.653   4
 -12   3  -6 9329.58 888.905   2
  -9  -3  -6 9546.92 455.801   1
  -9  -3  -6 8666.72 855.380   4
 -12   3  -6 9539.32 839.369   4
 -12   3  -6 11043.6 769.826   1
  -9  -3  -3 3353.79 562.713   3
  -3  12  -3 3090.93 525.542   1
 -12   3  -3 3311.68 492.973   4
 -12   3  -3 3541.96 507.961   2
  -9  -3  -3 3164.02 555.800   2
   3   9  -3 3204.73 281.052   2
 -12   3  -3 3013.93 465.854   1
  -9  -3  -3 3594.13 405.348   1
  12  -9  -3 3129.88 335.391   3
   9 -12  -3 2898.22 423.372   1
   9 -12  -3 3723.83 462.441   3
  -9  -3  -3 3356.91 540.339   4
   3   9  -3 3218.02 349.547   4
   3   9   0 7420.91 625.170   3
  -3  12   0 7699.06 627.052   3
 -12   3   0 6668.30 635.406   1
  12  -9   0 7328.65 625.631   4
   9 -12   0 7152.46 545.374   3
  12  -9   0 6432.90 556.492   2
   9 -12   0 7243.37 677.212   1
  12  -9   0 6735.29 405.360   3
   3   9   0 7302.94 633.131   4
  -3  12   0 8259.42 638.766   1
  12  -9   0 8432.85 740.933   1
 -12   3   0 7950.14 638.729   4
  -9  -3   0 6569.09 573.645   2
   3   9   0 6961.23 509.545   2
 -12   3   0 7396.09 629.239   2
  -9  -3   0 7849.73 515.395   3
  -9  -3   0 7238.39 620.844   4
  -3  12   3 431.927 292.496   3
  12  -9   3 379.399 209.979   2
   3   9   3 237.563 341.438   2
 -12   3   3 433.892 123.360   3
   9 -12   3 845.859 185.957   2
 -12   3   3 395.491 272.040   2
  -9  -3   3 542.487 264.743   4
 -12   3   3 135.074 191.742   3
  12  -9   3 590.982 279.701   4
   3   9   3 1033.34 400.800   4
  -9  -3   3 728.756 283.325   2
  12  -9   3 788.941 384.429   1
   9 -12   3 259.160 407.427   1
 -12   3   3 815.979 316.899   4
  -3  12   3 873.269 250.948   1
   3   9   3 863.095 404.935   3
  -9  -3   3 830.544 265.215   3
   9 -12   3 462.849 266.388   4
  -9  -3   6 7782.45 838.457   1
   9 -12   6 9226.13 919.399   1
   9 -12   6 8868.76 574.082   4
  12  -9   6 8190.60 826.270   1
  12  -9   6 7589.90 691.289   2
  -9  -3   6 9016.95 739.561   2
  12  -9   6 9521.81 710.520   4
  -3  12   6 9068.38 883.451   3
 -12   3   6 9199.42 843.468   2
   9 -12   6 8004.96 518.164   2
 -12   3   6 9255.57 647.018   4
   3   9   6 8707.72 939.991   3
  -9  -3   6 10746.7 551.030   4
  -9  -3   9-336.070 381.835   2
 -12   3   9 743.139 464.712   2
   3   9   9 360.326 556.346   3
 -12   3   9 689.777 470.429   1
  -9  -3   9-425.206 522.593   1
  12  -9   9-148.337 445.907   1
   9 -12   9 623.415 497.284   1
 -12   3   9 233.071 266.747   4
  12  -9   9 204.413 1838.81   3
  -9  -3   9-2006.08 1660.41   3
 -12   3   9-70.7830 413.724   3
  -3  12   9 336.980 514.363   3
 -12   4  -7 19255.7 1143.24   4
 -12   4  -7 15870.6 942.455   1
   8 -12  -4 16468.0 962.005   3
  -8  -4  -4 17748.5 1118.46   2
   4   8  -4 17911.7 676.058   2
  -8  -4  -4 18838.2 696.986   1
 -12   4  -4 18031.0 1001.06   4
   8 -12  -4 17439.4 843.190   1
  -4  12  -4 16554.0 638.832   4
  -8  -4  -4 18436.9 1129.97   4
 -12   4  -4 17078.2 1021.68   2
 -12   4  -4 17131.0 953.856   1
   4   8  -4 16236.9 597.312   4
 -12   4  -1 72459.7 1812.54   4
 -12   4  -1 70861.0 1750.90   2
   8 -12  -1 71826.8 1793.67   1
  12  -8  -1 72653.4 1771.26   2
   4   8  -1 69052.4 1634.34   3
   4   8  -1 71278.8 1642.24   4
  12  -8  -1 69851.8 938.409   3
  -4  12  -1 70255.0 1844.44   1
  12  -8  -1 72604.4 1775.74   4
  -4  12  -1 70096.1 1782.95   3
   4   8  -1 72653.2 1371.41   2
 -12   4  -1 72921.7 1875.97   1
  -8  -4  -1 69002.8 1593.56   3
  -8  -4  -1 71612.2 1784.53   2
  12  -8  -1 74366.1 1967.01   1
   8 -12  -1 69367.8 1587.37   3
  -8  -4  -1 72407.8 1894.42   4
   4   8   2 4046.14 506.838   2
  -4  12   2 3319.92 386.778   1
  -4  12   2 2992.90 479.694   3
  12  -8   2 2983.81 433.298   4
  -8  -4   2 3191.53 367.130   3
  12  -8   2 3729.06 530.322   1
  -8  -4   2 3545.24 427.908   4
  12  -8   2 3662.20 415.155   2
 -12   4   2 3800.89 484.963   2
   4   8   2 3039.74 480.676   4
  -8  -4   2 2847.62 383.975   2
   8 -12   2 3833.74 308.836   2
   8 -12   2 3584.35 480.923   3
   8 -12   2 3796.00 585.475   1
 -12   4   2 3212.89 427.807   4
   4   8   2 3985.18 519.411   3
  12  -8   5 31086.5 1225.85   4
  -8  -4   5 30493.0 1480.22   1
  -8  -4   5 31507.5 912.208   4
 -12   4   5 32483.2 1422.75   2
 -12   4   5 30182.3 1142.40   4
  12  -8   5 27550.4 1191.54   2
   4   8   5 30312.7 1503.46   3
  -8  -4   5 31309.6 1159.24   2
  -4  12   5 27126.3 1365.83   3
   8 -12   5 26955.5 1413.96   1
  12  -8   5 29424.5 1369.02   1
   8 -12   5 27543.9 751.801   2
 -12   4   5 29861.3 1038.81   3
  -4  12   5 29449.2 764.504   1
 -12   4   8 488.677 238.476   4
 -12   4   8 459.061 453.528   2
  12  -8   8-372.856 408.367   1
  -8  -4   8-452.236 552.935   1
  -8  -4   8 147.930 298.831   2
 -12   4   8 292.921 391.205   1
   8 -12   8 761.748 609.053   1
   4   8   8 292.727 482.355   3
 -12   4   8 476.145 416.927   3
  -4  12   8 14.9133 451.211   3
  12  -8   8-81.0726 324.079   4
   8 -12   8 36.0544 283.196   2
   8 -12  11 7178.43 1066.44   1
  -8  -4  11 9087.10 979.526   2
   4   8  11 11007.1 1414.18   3
  -4  12  11 11436.0 1373.35   3
 -12   4  11 10129.2 1069.07   1
 -12   4  11 8534.06 1112.14   2
  -8  -4  11 11098.1 1274.14   1
 -12   4  11 10559.6 1148.76   3
   8 -12  11 5266.46 2921.66   3
  12  -8  11 7602.65 949.073   1
  12  -8  11 11427.4 1881.64   3
 -12   5  -8 312.661 431.338   1
 -12   5  -8 733.514 419.077   4
 -12   5  -5 39031.8 1472.78   4
  -5  12  -5 37938.0 873.409   4
 -12   5  -5 40140.9 1561.26   2
  -7  -5  -5 41654.8 1713.78   4
   5   7  -5 35982.3 756.943   4
  -7  -5  -5 39556.1 723.574   1
 -12   5  -5 38925.0 1446.03   1
   5   7  -2 4109.87 414.121   4
  12  -7  -2 1896.51 251.309   3
  -7  -5  -2 3699.27 487.665   3
   5   7  -2 4501.31 469.974   3
  -5  12  -2 3453.87 550.732   1
  12  -7  -2 5006.18 517.951   4
  -5  12  -2 2514.15 165.874   2
   5   7  -2 4525.33 371.442   2
  -7  -5  -2 4225.52 576.273   4
  12  -7  -2 3931.21 492.636   2
 -12   5  -2 3444.11 521.498   1
 -12   5  -2 3785.90 460.880   2
 -12   5  -2 4224.37 506.711   4
   7 -12  -2 3435.22 453.375   1
   7 -12  -2 4302.65 491.703   3
  -7  -5  -2 4023.90 515.081   2
  -5  12   1 26902.7 1077.79   3
  -7  -5   1 26462.2 1063.78   4
  -7  -5   1 25402.7 948.293   2
  12  -7   1 26279.9 1016.47   2
 -12   5   1 26054.5 1054.31   4
   5   7   1 26545.8 1126.95   4
  12  -7   1 25312.1 1155.03   1
   5   7   1 26292.5 1061.10   3
 -12   5   1 25493.5 1065.15   2
   7 -12   1 26275.2 1069.85   3
  -5  12   1 25613.4 1014.87   1
   5   7   1 27586.9 1058.05   2
  12  -7   1 26443.0 1066.73   4
 -12   5   1 26621.4 1184.32   1
   7 -12   1 24753.6 1175.22   1
  -7  -5   1 26486.6 919.003   3
  -7  -5   4 7748.64 780.989   1
  -5  12   4 4915.91 405.694   1
  -7  -5   4 5311.48 422.527   4
  -7  -5   4 5154.52 516.076   3
  12  -7   4 5053.28 592.425   1
   5   7   4 5791.90 694.741   3
  12  -7   4 5477.88 573.435   2
 -12   5   4 5185.13 533.210   4
  12  -7   4 4288.49 1222.15   3
 -12   5   4 5469.76 621.051   2
  -7  -5   4 5704.33 477.898   2
  12  -7   4 5194.89 549.620   4
   7 -12   4 6376.32 740.820   1
   7 -12   4 4066.61 243.466   2
 -12   5   4 5553.41 381.206   3
  -5  12   4 5349.26 595.967   3
  -5  12   7 16142.4 524.808   1
 -12   5   7 20198.5 1278.90   2
   7 -12   7 17357.5 1219.36   1
  -7  -5   7 17888.3 978.021   2
  -5  12   7 15326.2 501.072   1
  -7  -5   7 15779.6 1178.29   1
   5   7   7 17046.7 1314.69   3
  12  -7   7 16153.0 955.489   4
  12  -7   7 16376.4 1061.33   1
 -12   5   7 15846.0 975.586   3
   7 -12   7 14242.8 668.499   2
  -5  12   7 15143.1 1170.84   3
 -12   5   7 16640.1 906.617   4
 -12   5  10 477.816 434.454   1
   5   7  10 2453.41 819.881   3
 -12   5  10 1033.65 569.126   2
   7 -12  10 1202.31 658.396   1
  -7  -5  10 304.940 1776.28   3
  -7  -5  10 606.063 529.284   1
  12  -7  10-106.293 414.334   1
  12  -7  10 1151.68 1156.00   3
  -7  -5  10 843.901 480.014   2
   7 -12  10-737.163 1795.22   3
 -12   5  10 938.500 336.368   4
 -12   5  10 787.488 507.663   3
  -5  12  10-224.729 603.285   3
 -12   6  -9 730.013 428.497   4
 -12   6  -6 11184.3 853.429   1
 -12   6  -6 11187.6 823.032   4
  -6  12  -6 10836.0 448.147   4
 -12   6  -6 10674.4 866.568   2
  -6  -6  -3 2353.79 489.091   4
  -6  12  -3 1631.59 291.489   4
   6   6  -3 1526.94 281.099   2
  -6  12  -3 1424.43 470.519   1
   6 -12  -3 1273.17 305.070   1
 -12   6  -3 1621.53 359.747   4
  12  -6  -3 2080.92 395.009   4
  12  -6  -3 1426.71 369.916   2
 -12   6  -3 1394.30 360.749   2
   6   6  -3 1626.91 249.433   4
 -12   6  -3 2355.61 477.211   1
   6 -12  -3 1702.38 379.440   3
  -6  -6  -3 1628.47 400.844   3
  -6  -6  -3 2227.22 507.484   2
   6 -12   0 38577.1 1242.39   3
  -6  -6   0 38842.1 1262.46   1
  -6  12   0 38565.2 1029.48   2
 -12   6   0 36779.9 1247.00   4
  -6  12   0 37966.0 1245.18   3
  12  -6   0 41116.3 1315.30   4
  -6  -6   0 36901.6 1169.18   2
   6   6   0 39217.3 1174.44   3
  12  -6   0 40010.8 1273.64   2
  12  -6   0 41104.1 1437.98   1
 -12   6   0 39110.8 1267.99   2
  -6  -6   0 37669.6 1313.45   4
 -12   6   0 40771.4 1428.37   1
   6 -12   0 38454.2 1351.28   1
   6   6   0 40249.3 1172.57   2
  -6  12   0 37895.0 1288.95   1
   6   6   0 41342.4 1309.59   4
  -6  -6   0 39298.0 1170.16   3
 -12   6   3 1294.57 374.911   4
 -12   6   3 1743.76 177.704   3
  -6  -6   3 1514.07 292.930   4
 -12   6   3 1855.44 437.091   2
  12  -6   3 1223.50 412.722   1
  12  -6   3 1518.89 357.707   2
  -6  -6   3 1716.37 288.791   2
  12  -6   3 1582.74 348.685   4
 -12   6   3 1555.83 461.711   1
   6 -12   3 2226.54 543.558   1
  -6  -6   3 2171.90 460.962   1
   6   6   3 1774.64 418.252   2
   6   6   3 2164.30 442.494   4
  -6  -6   3 1501.76 352.301   3
  12  -6   3 3360.92 1214.45   3
   6   6   3 1095.54 404.177   3
   6 -12   3 1491.92 381.021   3
  -6  12   3 1729.18 347.773   1
  -6  12   3 1988.60 409.533   3
 -12   6   6 11315.6 744.394   3
   6 -12   6 9324.51 424.881   2
  12  -6   6 11045.0 786.204   4
  -6  12   6 11219.9 591.731   1
 -12   6   6 10288.1 738.979   4
   6   6   6 11682.0 1045.31   3
 -12   6   6 11217.5 957.955   2
  -6  12   6 13458.3 1002.36   3
  -6  -6   6 11431.3 717.566   2
  -6  -6   6 11605.7 983.627   1
  12  -6   6 10465.7 851.780   1
   6 -12   6 13235.5 1043.08   1
 -12   6   9 572.951 320.496   4
   6 -12   9 258.019 505.709   1
  12  -6   9 560.170 385.143   1
  -6  -6   9 1603.77 435.230   2
 -12   6   9 1089.60 499.430   2
  -6  -6   9 931.825 1395.59   3
 -12   6   9 1321.74 530.510   1
  12  -6   9 1295.67 1211.42   3
 -12   6   9 127.900 383.933   3
   6   6   9 1667.33 670.550   3
  -6  12   9-57.6866 475.246   3
  -6  -6   9 1995.60 596.524   1
 -12   7  -7 18017.8 1047.00   4
  -7  12  -7 13250.8 513.704   4
 -12   7  -4 5533.66 615.457   1
   7   5  -4 5257.38 381.514   4
  -7  12  -4 5076.15 413.651   4
   7   5  -4 5141.93 467.042   2
  12  -5  -4 5526.06 540.262   4
  -5  -7  -4 4538.30 276.244   1
  -5  -7  -4 5406.05 271.795   1
 -12   7  -4 6459.10 613.401   2
 -12   7  -4 4810.53 546.026   4
   5 -12  -4 5720.50 439.954   1
   5 -12  -4 4744.60 609.958   3
   7   5  -1 27727.0 943.886   3
   5 -12  -1 28933.5 1105.22   1
  -5  -7  -1 28030.1 1101.92   2
  -5  -7  -1 29691.1 1029.88   1
  -5  -7  -1 28753.5 1218.48   4
   7   5  -1 30561.4 1072.64   4
  -7  12  -1 27990.3 1059.62   4
 -12   7  -1 30543.4 1120.61   2
  12  -5  -1 30142.5 1121.62   4
   7   5  -1 30063.7 999.129   2
   5 -12  -1 28119.2 1100.69   3
 -12   7  -1 30101.3 1136.45   4
 -12   7  -1 28164.7 1228.46   1
  -7  12  -1 28764.6 1212.65   1
  -5  -7  -1 29196.8 1106.94   3
  -7  12  -1 29869.9 794.134   2
   7   5   2 5390.18 558.752   2
  -5  -7   2 5009.01 472.296   3
  -7  12   2 4875.83 516.416   1
 -12   7   2 4765.80 205.416   3
   5 -12   2 4874.81 545.586   3
   7   5   2 3973.36 513.178   4
   7   5   2 4822.27 519.639   3
  -5  -7   2 4477.77 438.643   4
 -12   7   2 5206.35 573.956   2
  -5  -7   2 3772.01 555.921   1
  -5  -7   2 4535.16 397.946   2
 -12   7   2 4725.12 561.006   1
   5 -12   2 5382.49 652.469   1
  12  -5   2 4926.35 569.514   1
 -12   7   2 4792.99 522.684   4
  12  -5   2 4751.84 496.905   4
  -7  12   2 4850.73 514.774   3
  12  -5   2 6193.96 549.453   2
  -5  -7   5 43166.2 1153.89   2
  -5  -7   5 39585.2 1695.83   1
   5 -12   5 42159.1 1738.86   1
  12  -5   5 41325.0 1457.89   4
 -12   7   5 35683.5 1512.18   1
  -7  12   5 43817.0 1236.35   1
 -12   7   5 42977.3 1694.44   2
 -12   7   5 40103.9 1394.46   4
  -7  12   5 40789.5 1539.76   3
 -12   7   5 42218.1 1220.34   3
   7   5   5 42063.3 1744.92   3
  12  -5   5 42839.9 1513.82   1
  12  -5   8-45.3371 358.351   1
  -7  12   8 272.744 241.426   1
  -7  12   8-465.307 458.592   3
 -12   7   8-398.437 421.033   2
   5 -12   8-228.888 471.313   1
  -5  -7   8-34.0742 275.288   2
 -12   7   8 334.753 356.961   3
   5 -12   8-65.2203 222.443   2
  -5  -7   8 55.4386 440.892   1
  -7  12   8 47.2349 197.460   1
   7   5   8 95.3125 506.956   3
  12  -5   8 675.085 989.972   3
 -12   7   8 596.690 340.477   4
  -7  12  11 6619.44 882.028   4
 -12   7  11 6435.48 1041.17   2
   5 -12  11 2276.03 2176.25   3
   5 -12  11 3848.06 920.272   1
 -12   7  11 5884.25 806.765   1
  -5  -7  11 5685.18 964.289   1
  12  -5  11 10544.9 1442.77   3
  -5  -7  11 3931.50 650.276   2
 -12   7  11 8010.43 1034.76   3
   7   5  11 7795.13 1206.86   3
  -7  12  11 7257.28 1072.10   3
 -12   8  -8 606.553 343.900   4
  -8  12  -8 586.324 162.307   4
  12  -4  -5 31209.6 1202.11   4
  -8  12  -5 30546.3 937.208   4
   8   4  -5 33069.3 899.248   4
 -12   8  -5 31865.7 1291.68   2
 -12   8  -5 28130.0 1321.94   1
 -12   8  -5 32006.2 1261.20   4
  12  -4  -2 4820.68 489.777   4
   8   4  -2 4827.15 448.553   4
 -12   8  -2 4228.13 585.905   1
  12  -4  -2 4503.47 513.869   2
  -8  12  -2 4554.73 321.054   2
  -4  -8  -2 3458.36 353.762   1
 -12   8  -2 4215.91 481.162   2
   4 -12  -2 4233.68 455.322   1
  -4  -8  -2 4016.08 532.797   3
  -4  -8  -2 4718.85 546.401   2
  -8  12  -2 4371.51 553.164   1
  -8  12  -2 3905.29 443.421   4
   8   4  -2 4355.19 435.403   2
   4 -12  -2 4204.14 518.456   3
 -12   8  -2 3987.56 474.303   4
  -4  -8   1 64855.5 1584.70   3
  -8  12   1 66648.8 1716.25   1
   8   4   1 66087.3 1538.05   3
 -12   8   1 68650.4 1887.72   1
  -4  -8   1 64637.7 1735.88   1
  -8  12   1 62710.4 1732.03   4
 -12   8   1 70368.2 1754.56   2
  12  -4   1 66811.0 1658.70   2
   4 -12   1 65043.6 1791.81   1
  -8  12   1 65494.4 1559.02   2
   8   4   1 67164.3 1739.40   4
  12  -4   1 71874.1 1398.03   3
   8   4   1 70170.8 1704.96   2
  -4  -8   1 66672.2 1635.01   4
  -4  -8   1 63261.8 1348.58   2
  12  -4   1 69561.4 1692.43   4
 -12   8   1 65951.0 1717.47   4
  -8  12   1 65060.8 1541.37   3
   4 -12   1 69327.7 1747.43   3
 -12   8   4 19262.6 1096.90   2
   8   4   4 20732.2 1153.23   3
 -12   8   4 17584.9 1036.43   1
   4 -12   4 19755.2 1172.93   1
  -8  12   4 18799.7 886.785   1
  12  -4   4 17665.0 974.589   4
  -4  -8   4 19070.5 671.457   2
  -4  -8   4 18868.0 1005.14   3
  12  -4   4 18616.8 1030.23   2
  12  -4   4 19968.4 1017.26   1
 -12   8   4 18470.1 972.009   4
 -12   8   4 18997.3 716.189   3
  -8  12   4 19701.5 990.393   3
  -4  -8   4 18681.3 1138.60   1
   8   4   7 18331.4 1371.47   3
  12  -4   7 17932.1 1041.43   1
 -12   8   7 17737.2 997.725   4
   4 -12   7 13440.3 545.317   2
 -12   8   7 18693.6 1275.91   2
  -8  12   7 18483.7 1184.00   3
  -4  -8   7 16275.1 818.609   2
  -8  12   7 17378.0 859.003   1
   4 -12   7 12604.2 518.133   2
   4 -12   7 17355.6 1276.22   1
  -4  -8   7 16817.5 1258.95   1
 -12   8   7 17619.7 1017.42   3
   4 -12  10 1651.51 690.025   1
 -12   8  10 997.725 388.721   4
 -12   8  10 2242.58 719.528   2
  -8  12  10 798.620 699.176   3
   4 -12  10-479.103 1799.41   3
 -12   8  10 1676.33 635.773   3
  -4  -8  10 1431.03 1706.06   3
  -8  12  10 687.305 442.099   4
  12  -4  10 1664.09 820.088   3
 -12   8  10 1317.72 486.435   1
  12  -4  10 1048.43 446.675   1
  -4  -8  10 1379.64 445.528   2
   8   4  10 1028.52 696.375   3
  -4  -8  10 1081.97 641.658   1
 -12   9  -9 173.933 352.704   4
 -12   9  -6 9942.69 784.242   2
 -12   9  -6 8604.89 687.276   4
  -9  12  -6 9905.95 580.517   4
   9   3  -6 9681.63 511.271   4
   9   3  -3 413.644 216.609   4
  12  -3  -3 637.541 318.576   2
 -12   9  -3 562.779 264.753   4
   3 -12  -3 1003.98 260.330   1
   3 -12  -3 72.9837 315.697   3
   9   3  -3 1046.64 304.897   2
  -9  12  -3 639.122 375.557   1
 -12   9  -3 785.975 288.239   2
  -9  12  -3 633.259 192.144   2
 -12   9  -3 478.600 402.707   1
  -9  12  -3 415.386 233.882   4
  12  -3  -3 778.985 269.398   4
  -3  -9  -3 714.251 204.095   1
  -3  -9  -3 843.666 394.306   3
   3 -12   0 7504.56 645.828   3
   9   3   0 9655.16 636.540   2
  -9  12   0 9029.99 578.480   2
 -12   9   0 8191.25 645.105   4
  -9  12   0 7161.88 656.157   1
  -9  12   0 9101.73 619.453   3
  -3  -9   0 8418.23 560.608   2
  -3  -9   0 10439.4 689.261   1
   9   3   0 9057.14 655.506   4
  12  -3   0 9462.95 390.146   3
  12  -3   0 9446.66 660.639   2
 -12   9   0 8227.04 628.815   2
  -9  12   0 8345.95 657.552   4
   3 -12   0 8718.66 674.600   1
  -3  -9   0 8135.56 636.900   3
 -12   9   0 8607.14 737.576   1
  12  -3   0 9040.15 644.161   4
   9   3   0 9609.50 553.747   3
   9   3   3 2771.24 488.581   4
  -3  -9   3 3403.72 475.808   3
  -9  12   3 3429.70 441.240   3
  -9  12   3 3269.07 474.265   1
   3 -12   3 3699.07 540.405   3
  12  -3   3 3971.77 499.783   1
 -12   9   3 3402.70 481.202   4
 -12   9   3 2550.10 458.664   2
  12  -3   3 2641.29 464.609   4
  -9  12   3 4297.48 549.718   4
  -9  12   3 3069.39 493.912   2
  12  -3   3 4162.07 525.086   2
 -12   9   3 2896.20 477.632   1
   3 -12   3 4118.33 574.738   1
  -3  -9   3 4157.20 585.582   1
   9   3   3 3620.81 542.804   2
  12  -3   3 3211.95 490.563   3
   9   3   3 3494.69 506.898   3
  -3  -9   3 3548.57 294.626   2
 -12   9   3 3695.51 331.241   3
 -12   9   6 7040.62 799.060   2
  -3  -9   6 8741.09 510.405   2
 -12   9   6 8293.65 718.663   4
  -9  12   6 8648.48 674.127   1
  -3  -9   6 8947.70 932.201   1
  12  -3   6 8730.72 684.034   1
  12  -3   6 9176.02 1055.87   3
   9   3   6 7781.39 882.234   3
 -12   9   6 6830.85 625.738   3
  -9  12   6 8841.71 783.106   3
   3 -12   6 8679.51 896.102   1
  -3  -9   9-45.9481 283.767   2
  -3  -9   9 218.118 495.859   1
   3 -12   9 1050.64 602.345   1
  -9  12   9 159.475 416.171   4
  -9  12   9 235.141 488.940   3
 -12   9   9-708.469 562.005   2
 -12   9   9-174.210 349.644   4
  -9  12   9 458.336 320.873   1
 -12   9   9 428.758 412.680   1
   3 -12   9 151.280 248.044   2
  12  -3   9 236.035 700.771   3
   9   3   9 1234.33 714.111   3
  12  -3   9 296.718 327.046   1
 -12   9   9 934.622 519.505   3
 -10  12  -7 2543.52 350.108   4
 -12  10  -7 2697.73 459.698   4
  12  -2  -4 343.840 238.344   4
  -2 -10  -4 297.814 105.075   1
 -10  12  -4 133.428 201.755   4
 -10  12  -4 247.692 181.904   2
 -12  10  -4 429.900 270.517   2
   2 -12  -4 158.827 147.487   1
 -12  10  -4 875.840 298.266   4
  10   2  -4 636.398 337.573   2
  10   2  -4 382.382 221.858   4
   2 -12  -1 153.358 274.753   3
 -12  10  -1 147.538 323.973   1
  10   2  -1 214.247 187.767   3
  10   2  -1 243.418 260.460   4
   2 -12  -1 281.170 303.569   1
  12  -2  -1 276.086 249.372   4
 -10  12  -1 96.8892 253.685   4
 -12  10  -1 321.827 281.279   4
 -10  12  -1 54.7624 332.706   1
  12  -2  -1 546.146 268.364   2
  10   2  -1-19.3933 234.515   2
 -10  12  -1 379.687 226.333   2
  -2 -10  -1-117.682 269.145   1
  -2 -10  -1 182.690 327.114   3
  12  -2  -1 364.593 91.8130   3
 -12  10  -1 532.406 273.115   2
 -10  12   2 1734.16 331.516   3
 -12  10   2 1854.19 256.581   3
  -2 -10   2 1724.21 413.477   3
 -10  12   2 1292.19 396.201   1
   2 -12   2 1707.91 390.897   3
  -2 -10   2 1936.74 247.055   2
 -12  10   2 2065.02 421.553   2
  12  -2   2 1559.35 366.888   4
  10   2   2 1641.45 390.399   4
  -2 -10   2 1835.19 434.295   1
  10   2   2 2079.31 458.199   2
  12  -2   2 2050.99 375.538   3
  12  -2   2 1570.72 384.365   2
 -12  10   2 1998.69 423.794   4
 -10  12   2 1892.29 413.072   4
  10   2   2 1654.44 345.838   3
   2 -12   2 1856.67 440.051   1
 -12  10   2 1664.91 460.677   1
 -10  12   2 1735.44 399.776   2
  12  -2   5 7532.21 639.915   1
 -12  10   5 5473.80 689.361   2
 -12  10   5 6322.60 693.032   1
 -12  10   5 6644.29 658.691   4
 -10  12   5 7778.06 682.260   1
   2 -12   5 7125.65 791.126   1
 -10  12   5 6831.84 709.539   4
  -2 -10   5 6341.12 361.053   2
  12  -2   5 7162.87 813.726   3
  10   2   5 6266.98 741.041   3
  -2 -10   5 6013.59 735.697   1
 -12  10   5 6656.98 559.605   3
 -10  12   5 6704.13 654.170   3
 -12  10   8 842.203 411.184   4
  -2 -10   8 224.610 535.761   1
 -12  10   8 1489.05 516.434   3
 -10  12   8 1730.89 503.798   4
   2 -12   8 1065.91 237.941   2
  -2 -10   8 738.828 270.113   2
 -12  10   8 1784.94 589.120   2
   2 -12   8 372.357 451.225   1
  10   2   8 1632.44 666.156   3
   2 -12   8 867.064 235.301   2
  12  -2   8 1217.25 644.507   3
 -10  12   8 1032.43 527.641   3
  12  -2   8 1224.85 364.054   1
 -10  12   8 910.251 387.556   1
  -2 -10  11 3661.53 846.442   1
   2 -12  11 180.061 1971.76   3
   2 -12  11 1618.99 694.538   1
  10   2  11 2578.99 911.145   3
 -10  12  11 3867.46 905.857   2
 -12  10  11 2525.29 774.226   2
  -2 -10  11 789.089 1754.12   3
  12  -2  11 3275.97 1037.96   3
 -10  12  11 1857.42 616.189   4
 -12  10  11 3120.25 821.048   3
 -10  12  11 2396.13 779.628   3
 -12  11  -8 7299.42 654.450   4
 -11  12  -8 7009.02 574.103   4
 -12  11  -5 13670.5 808.009   2
 -12  11  -5 13596.6 813.104   4
  11   1  -5 13831.9 714.323   4
  12  -1  -5 12639.2 736.141   4
 -11  12  -5 13000.3 742.447   4
 -11  12  -5 12347.8 693.664   2
 -11  12  -2 32229.9 1385.54   1
 -11  12  -2 31385.0 1183.23   4
 -12  11  -2 26901.4 1317.38   1
 -11  12  -2 29795.3 962.988   2
  11   1  -2 31691.6 1105.56   4
  12  -1  -2 29288.5 1190.73   2
 -12  11  -2 31229.3 1226.35   4
  11   1  -2 32218.7 1209.19   2
  12  -1  -2 32126.0 1153.22   4
  -1 -11  -2 30088.1 1280.82   3
  -1 -11  -2 30573.2 973.180   1
 -12  11  -2 30297.8 1045.33   2
   1 -12  -2 28475.0 1261.03   3
   1 -12  -2 30389.9 1023.25   1
 -12  11   1 47451.8 1611.12   1
 -12  11   1 46613.8 1459.31   2
   1 -12   1 48265.7 1550.95   3
  12  -1   1 49891.0 1519.04   2
 -11  12   1 49073.5 1231.80   3
 -12  11   1 47820.4 1113.19   3
  11   1   1 47979.4 1503.56   2
 -12  11   1 47937.4 1547.28   4
 -11  12   1 48830.5 1460.05   2
  -1 -11   1 48338.6 1505.41   3
   1 -12   1 47600.4 1574.23   1
  -1 -11   1 47439.7 1572.05   1
  12  -1   1 46572.7 1180.78   3
  11   1   1 46168.2 1482.42   4
 -11  12   1 46784.3 1575.43   1
  12  -1   1 49687.8 1541.39   4
  11   1   1 49541.2 1266.44   3
  12  -1   4 16775.0 1051.60   3
   1 -12   4 16512.1 1120.77   1
 -12  11   4 15615.3 987.653   1
 -11  12   4 14611.8 988.127   2
 -11  12   4 16361.1 1008.34   4
 -12  11   4 15209.3 949.687   4
  -1 -11   4 13588.3 381.345   2
 -12  11   4 13950.1 1001.26   2
 -11  12   4 15596.6 815.252   3
 -11  12   4 15376.1 942.181   1
  11   1   4 17552.5 1083.18   3
 -12  11   4 16725.8 778.060   3
  -1 -11   4 18521.3 1180.06   1
   1 -12   7 13150.4 485.074   2
 -11  12   7 21139.3 1197.87   3
 -12  11   7 21055.5 1172.75   3
 -11  12   7 19800.5 1202.94   4
 -11  12   7 20137.9 1394.39   2
 -11  12   7 15991.3 1019.57   1
  12  -1   7 21073.8 972.700   1
 -12  11   7 19710.1 1370.74   2
  -1 -11   7 16274.1 623.662   2
  -1 -11   7 18121.0 694.770   2
  -1 -11   7 22489.5 1476.51   1
   1 -12   7 18962.4 1370.38   1
  11   1   7 19724.1 1422.28   3
 -12  11   7 18545.5 1150.04   4
  12  -1   7 18743.2 1416.18   3
 -12  11  10 8600.91 1153.24   2
 -11  12  10 9248.45 1076.19   3
 -12  11  10 8411.89 868.340   4
 -11  12  10 9735.52 791.582   1
 -11  12  10 7924.77 880.843   4
  -1 -11  10 7928.16 1100.93   1
 -11  12  10 7508.32 1067.58   2
  12  -1  10 8900.59 1252.40   3
  11   1  10 9719.06 1277.03   3
 -12  11  10 8657.62 1021.81   3
   1 -12  10 10184.6 1175.44   1
 -12  11  10 9625.85 868.598   1
 -12  12  -9 40.7066 262.796   4
 -12  12  -6 3175.94 479.240   2
  12   0  -6 3321.14 424.453   4
 -12  12  -6 4124.11 510.747   4
   0 -12  -3 332.819 201.376   1
 -12  12  -3 195.629 259.432   4
  12   0  -3-108.507 247.841   4
  12   0  -3-175.372 265.792   2
 -12  12  -3-288.350 244.151   2
 -12  12   0 9209.14 648.802   2
  12   0   0 9471.47 691.533   4
 -12  12   0 10234.9 836.117   1
  12   0   0 8846.88 687.008   2
   0 -12   0 9554.83 707.979   1
 -12  12   0 8161.18 679.790   4
  12   0   0 10393.5 505.451   3
   0 -12   0 9403.92 726.801   3
 -12  12   3-32.7624 232.856   3
 -12  12   3 59.5505 307.224   4
 -12  12   3 466.728 388.735   2
 -12  12   3-149.081 319.712   1
  12   0   3 361.864 287.052   3
   0 -12   3-36.4957 368.973   1
 -12  12   6 7463.74 762.682   1
 -12  12   6 7198.09 834.745   2
  12   0   6 8181.41 919.570   3
   0 -12   6 7140.98 903.186   1
 -12  12   6 7315.87 750.477   4
 -12  12   6 7451.30 699.018   3
   0 -12   9 181.864 224.421   2
 -12  12   9-134.190 435.057   3
   0 -12   9 600.862 519.341   1
 -12  12   9 115.409 483.078   2
 -12  12   9 64.9588 426.785   4
  12   0   9 330.580 594.078   3
 -13   0  -7-194.752 564.147   2
 -13   0  -7 350.861 335.436   1
 -13   0  -7 86.4550 461.006   4
   0  13  -4 68641.1 1502.22   4
 -13   0  -4 72693.0 1873.18   1
 -13   0  -4 69288.2 2215.55   2
 -13   0  -4 70160.1 2232.33   4
  13 -13  -4 72426.1 1770.87   3
  13 -13  -1 129.961 352.962   1
 -13   0  -1 220.139 293.196   1
   0  13  -1-148.089 376.541   3
  13 -13  -1-172.138 275.046   2
 -13   0  -1 648.571 348.974   2
   0  13  -1 185.530 310.568   4
   0  13  -1-95.7092 308.410   1
 -13   0  -1-254.323 343.023   4
   0  13  -1 66.2922 177.233   2
  13 -13  -1-128.973 242.256   3
 -13   0  -1 67.3217 293.587   3
   0  13   2 99804.6 2257.12   2
  13 -13   2 103225. 2313.29   4
  13 -13   2 105872. 1987.97   2
  13 -13   2 102765. 2177.11   3
   0  13   2 103289. 2472.92   3
   0  13   2 103983. 1969.18   1
  13 -13   2 101808. 2658.24   1
 -13   0   2 99355.5 2232.29   4
 -13   0   2 104717. 2322.32   2
 -13   0   2 104922. 1361.51   3
  13 -13   5-141.962 269.362   4
  13 -13   5 145.890 460.461   1
   0  13   5-381.308 424.171   3
 -13   0   5-67.6557 243.333   3
 -13   0   5 232.638 311.375   2
 -13   0   5-75.9394 274.506   4
  13 -13   5-29.1007 243.274   2
 -13   0   8 37465.5 1196.22   4
  13 -13   8 38777.8 1929.54   1
   0  13   8 40376.4 2114.92   3
 -13   0   8 41955.4 2034.95   1
 -13   0   8 39979.5 1820.03   2
  13 -13  11 465.878 608.527   1
 -13   0  11 25.4329 476.471   2
 -13   0  11 325.929 609.975   3
 -13   0  11-75.5456 557.055   1
  13 -13  11-1022.79 2460.94   3
   0  13  11-547.215 724.587   3
 -12  -1  -8 433.676 243.914   1
 -13   1  -8 38.1317 435.939   4
 -12  -1  -8 366.468 511.759   4
 -13   1  -8 15.1679 312.619   1
 -12  -1  -5 439.914 291.589   1
 -13   1  -5 756.073 378.386   4
  -1  13  -5 181.522 153.821   4
 -13   1  -5 657.954 351.251   1
  12 -13  -5 416.446 366.251   3
 -12  -1  -5 399.981 429.998   2
 -12  -1  -5 1061.99 447.827   4
   1  12  -5 122.158 143.307   4
  -1  13  -5 235.688 165.101   4
  13 -12  -5 704.947 625.430   3
 -13   1  -5 885.344 403.650   2
  13 -12  -2 1362.03 276.315   3
  -1  13  -2 1019.70 322.566   4
 -13   1  -2 931.957 377.886   1
  12 -13  -2 1296.58 430.983   1
 -12  -1  -2 1366.88 418.421   2
   1  12  -2 926.862 343.966   3
  -1  13  -2 1153.57 403.527   3
  12 -13  -2 1342.42 297.245   3
 -12  -1  -2 1505.51 473.905   4
  -1  13  -2 773.662 144.501   2
   1  12  -2 1045.09 192.499   2
 -13   1  -2 1348.33 426.615   4
 -12  -1  -2 994.181 340.349   1
   1  12  -2 1350.62 342.777   4
  13 -12  -2 821.180 385.127   1
 -13   1  -2 1456.52 972.913   3
 -13   1  -2 1701.33 466.604   2
 -12  -1  -2 1616.02 498.924   3
   1  12   1 14073.1 908.377   3
  -1  13   1 13090.9 904.347   3
   1  12   1 14892.2 799.632   1
 -12  -1   1 13908.0 841.392   2
  12 -13   1 13877.8 775.919   3
 -13   1   1 13067.6 832.015   2
 -12  -1   1 13926.0 867.949   4
  13 -12   1 13084.5 726.181   3
  13 -12   1 12912.7 842.890   4
  12 -13   1 12654.1 856.282   4
 -13   1   1 13857.3 868.418   4
  12 -13   1 13115.1 721.075   2
 -13   1   1 14248.4 479.296   3
  13 -12   1 15149.5 1043.11   1
  -1  13   1 12493.6 765.112   1
  13 -12   1 13760.9 772.695   2
  12 -13   1 13634.0 1005.76   1
  -1  13   1 13330.0 761.773   2
 -12  -1   1 13266.4 573.026   3
   1  12   1 13813.9 788.441   2
   1  12   1 13512.5 935.161   4
  -1  13   4 4988.10 368.335   1
 -12  -1   4 5017.22 433.765   3
 -13   1   4 5662.83 389.086   3
 -12  -1   4 4780.58 568.588   2
  13 -12   4 4350.03 461.794   2
  13 -12   4 4213.57 526.350   4
  12 -13   4 5530.69 726.911   1
 -13   1   4 4005.11 494.228   4
 -12  -1   4 4023.79 482.778   4
   1  12   4 3885.15 612.851   3
  12 -13   4 4953.49 450.263   2
 -13   1   4 5322.25 606.737   2
  13 -12   4 5197.71 726.518   1
  12 -13   4 4961.86 537.269   4
  -1  13   4 4496.35 639.729   3
   1  12   7 4406.96 786.037   3
  12 -13   7 3809.25 497.454   2
 -13   1   7 4087.75 653.911   2
  13 -12   7 2386.70 442.916   4
  12 -13   7 3678.28 498.739   4
 -12  -1   7 3902.82 711.448   1
  13 -12   7 3765.19 743.757   1
 -13   1   7 3385.64 437.084   4
 -12  -1   7 2971.70 416.242   4
  -1  13   7 3026.71 677.782   3
 -13   1   7 652.952 1048.34   3
  12 -13   7 3842.65 757.969   1
 -12  -1   7 3337.39 566.664   2
 -12  -1   7-243.457 920.957   3
  13 -12   7 2429.28 472.766   2
 -12  -1  10 817.983 495.701   2
 -12  -1  10 1341.86 653.788   1
 -13   1  10 948.469 556.062   2
  12 -13  10 2325.06 2132.53   3
 -12  -1  10-272.302 926.103   3
 -13   1  10 896.629 592.965   3
  13 -12  10 966.071 555.826   1
 -13   1  10 859.843 641.856   1
   1  12  10 632.384 659.870   3
  -1  13  10 2159.60 847.878   3
  12 -13  10 1445.68 702.123   1
 -13   2  -9 4971.58 778.539   4
 -11  -2  -6 6174.96 892.616   2
 -13   2  -6 6806.12 642.684   1
 -11  -2  -6 7124.88 507.174   1
 -13   2  -6 6931.75 833.116   2
 -13   2  -6 7877.51 813.050   4
 -11  -2  -6 7167.78 823.957   4
 -13   2  -3 2338.40 467.186   4
 -11  -2  -3 2963.43 426.151   1
 -11  -2  -3 2210.25 490.471   4
   2  11  -3 1348.46 309.050   4
  13 -11  -3 1938.64 311.636   3
   2  11  -3 2327.66 224.367   2
 -11  -2  -3 2301.93 786.963   3
  11 -13  -3 2340.86 404.325   3
 -13   2  -3 2710.52 499.308   2
 -13   2  -3 2191.52 419.012   1
 -11  -2  -3 2307.90 512.874   2
  11 -13  -3 2694.66 489.611   1
 -13   2   0 2096.26 445.824   1
  11 -13   0 1420.19 304.356   2
  11 -13   0 2076.67 353.014   3
  13 -11   0 1598.26 299.344   3
   2  11   0 1831.99 420.524   3
 -11  -2   0 1655.93 314.635   3
  -2  13   0 1544.81 411.464   3
  -2  13   0 654.486 243.476   2
 -11  -2   0 2048.10 404.614   2
   2  11   0 1677.22 403.143   1
  13 -11   0 1302.08 331.839   2
 -13   2   0 2035.20 402.536   4
  11 -13   0 1406.01 467.017   1
  13 -11   0 1909.47 386.519   4
   2  11   0 1450.77 310.059   2
  -2  13   0 1681.52 397.620   1
  13 -11   0 1589.30 461.959   1
 -13   2   0 1187.34 361.453   2
 -13   2   0 3397.21 719.235   3
   2  11   0 1664.10 418.356   4
 -11  -2   0 1221.67 365.481   4
 -13   2   3 1037.49 144.140   3
 -11  -2   3 1338.39 258.778   3
 -13   2   3 1294.94 326.111   4
  11 -13   3 952.503 408.685   1
  11 -13   3 1333.77 343.038   4
 -11  -2   3 1245.14 318.603   4
   2  11   3 1399.89 423.994   3
  11 -13   3 1009.19 241.353   2
  -2  13   3 739.469 360.616   3
  13 -11   3 1160.88 433.114   1
 -11  -2   3 1019.08 319.136   2
  -2  13   3 1044.82 264.247   1
  13 -11   3 1157.93 321.205   2
  13 -11   3 1058.11 353.218   4
 -13   2   3 1591.92 389.879   2
   2  11   6 5696.84 796.767   3
  11 -13   6 4449.07 493.652   4
 -13   2   6 4231.59 474.041   4
  11 -13   6 3500.82 414.623   2
  13 -11   6 3398.68 629.327   1
  11 -13   6 3782.89 701.237   1
 -11  -2   6 4362.55 725.663   1
  13 -11   6 4084.88 539.661   4
 -11  -2   6 4073.15 578.155   2
 -13   2   6 3238.00 567.805   2
 -13   2   6 528.887 755.469   3
  13 -11   6 3121.39 491.610   2
  -2  13   6 6312.93 814.285   3
 -11  -2   6 3462.01 407.017   4
  11 -13   9-1084.76 1718.21   3
  13 -11   9 1366.27 617.020   1
 -11  -2   9-1400.17 1583.08   3
   2  11   9 1548.97 748.236   3
 -13   2   9 2347.78 621.461   2
 -13   2   9 1647.54 573.591   1
 -13   2   9 1445.22 333.327   4
  13 -11   9 2391.01 2187.10   3
 -11  -2   9 1281.65 576.845   1
 -13   2   9 1623.70 551.453   3
  11 -13   9 2850.91 726.886   1
 -11  -2   9 1859.77 526.589   2
  -2  13   9 1758.78 658.194   3
 -13   3  -7 485.428 366.558   1
 -13   3  -7 134.048 452.458   2
 -10  -3  -7 223.778 153.306   1
 -13   3  -7 452.246 376.393   4
 -10  -3  -7 459.444 441.907   4
 -10  -3  -4 53413.5 1915.52   2
  -3  13  -4 49494.2 1168.23   4
  10 -13  -4 56862.6 1662.03   1
 -13   3  -4 52835.2 1632.42   1
 -10  -3  -4 57673.2 1986.30   4
 -10  -3  -4 57842.1 1399.75   1
 -13   3  -4 58269.7 1878.08   4
  10 -13  -4 53756.7 1651.46   3
 -13   3  -4 59181.6 1933.86   2
   3  10  -4 54677.7 1188.75   4
 -10  -3  -1 1271.70 356.240   2
  -3  13  -1 1237.64 206.158   2
 -13   3  -1 1497.65 424.725   1
  13 -10  -1 1372.71 355.022   2
   3  10  -1 1454.67 370.438   3
  -3  13  -1 1984.88 408.402   3
  13 -10  -1 1450.86 380.626   4
 -10  -3  -1 1362.90 395.051   4
 -10  -3  -1 1771.11 341.268   3
  10 -13  -1 1462.98 319.984   3
   3  10  -1 1708.37 368.180   4
 -13   3  -1 912.174 353.663   4
 -13   3  -1 961.842 334.097   2
  -3  13  -1 1318.56 381.533   1
  13 -10  -1 1925.56 463.690   1
  10 -13  -1 1452.68 391.195   1
   3  10  -1 1710.33 282.819   2
  13 -10  -1 1372.81 221.284   3
 -10  -3   2 73316.5 1425.99   3
  -3  13   2 76245.9 1985.53   3
 -10  -3   2 76434.4 1783.04   2
  10 -13   2 76035.9 1901.66   3
  13 -10   2 77657.2 2187.52   1
  13 -10   2 73145.9 1863.32   4
 -13   3   2 73426.6 1834.96   4
  13 -10   2 75875.2 1735.35   2
 -13   3   2 73650.2 1905.75   2
   3  10   2 70935.6 2048.67   4
  10 -13   2 77653.4 2240.49   1
  10 -13   2 74133.4 1403.99   2
  -3  13   2 73520.5 1643.09   1
 -10  -3   2 73664.1 1768.53   4
   3  10   2 70840.0 1898.96   2
   3  10   2 74816.3 1990.42   3
 -10  -3   5 4922.59 525.511   3
 -10  -3   5 4926.57 677.483   1
 -13   3   5 4851.95 618.436   2
 -10  -3   5 4617.01 522.974   2
  10 -13   5 4830.06 722.928   1
  13 -10   5 5303.89 590.208   4
 -13   3   5 5944.53 546.659   4
  10 -13   5 5569.30 513.540   4
  -3  13   5 5459.83 703.890   3
 -10  -3   5 5394.17 466.708   4
  13 -10   5 5133.17 571.704   2
  -3  13   5 4945.67 325.072   1
  13 -10   5 3983.76 657.278   1
 -13   3   5 3647.38 540.787   3
  10 -13   5 5187.56 399.547   2
   3  10   5 6293.51 772.901   3
 -13   3   8 18453.7 1286.44   1
  13 -10   8 17232.1 1236.17   1
 -13   3   8 17969.6 1285.78   2
  10 -13   8 19248.0 1391.32   1
 -10  -3   8 18876.7 1166.46   2
 -13   3   8 16531.8 863.255   4
  -3  13   8 16596.4 1342.11   3
  10 -13   8 11061.5 731.692   2
 -13   3   8 18356.7 1182.77   3
  13 -10   8 3058.15 2103.05   3
   3  10   8 18064.0 1493.01   3
 -10  -3   8 15730.6 1276.52   1
 -10  -3   8 340.206 1213.51   3
 -10  -3   8 15182.8 534.539   4
 -13   3  11 247.157 496.992   2
 -10  -3  11 1203.34 601.609   2
 -13   3  11 1200.67 671.347   1
 -10  -3  11 1072.54 634.219   1
  13 -10  11 436.249 1754.53   3
   3  10  11 1434.90 839.992   3
 -10  -3  11 195.472 1299.21   3
  10 -13  11 1466.80 2735.60   3
  10 -13  11 345.625 624.627   1
 -13   3  11 721.508 594.074   3
  13 -10  11 883.984 573.800   1
  -3  13  11 118.751 643.752   3
 -13   4  -8 2903.87 583.130   4
 -13   4  -8 2049.53 503.291   1
 -13   4  -5 344.423 354.337   2
  -9  -4  -5 364.823 407.273   2
  -4  13  -5 284.490 141.424   4
   4   9  -5 516.878 151.594   4
 -13   4  -5 664.452 357.904   1
  -9  -4  -5 584.172 405.372   4
 -13   4  -5 425.598 341.753   4
  -9  -4  -5 573.994 208.474   1
  -9  -4  -2 21569.9 1154.61   4
   4   9  -2 19538.0 966.045   3
  13  -9  -2 21255.3 1042.89   4
 -13   4  -2 19746.1 1024.75   2
 -13   4  -2 19951.6 1045.29   4
  -4  13  -2 15785.1 410.639   2
  -4  13  -2 17971.2 1078.96   1
   4   9  -2 20182.1 880.514   4
  -9  -4  -2 17996.4 947.777   3
   4   9  -2 20832.6 728.720   2
  13  -9  -2 20230.5 568.985   3
   9 -13  -2 20253.1 1029.68   1
  13  -9  -2 20140.9 1037.03   2
   9 -13  -2 20505.3 932.546   3
  -9  -4  -2 21452.0 1086.72   2
 -13   4  -2 19139.3 1032.59   1
   9 -13   1 4235.70 499.991   3
  13  -9   1 3353.71 569.983   1
   4   9   1 3650.45 528.480   4
  -9  -4   1 3651.81 449.605   2
  13  -9   1 3657.37 450.383   2
 -13   4   1 4063.27 590.350   1
  13  -9   1 4280.95 517.277   4
  -9  -4   1 3854.42 472.943   4
 -13   4   1 4379.64 510.721   4
  -4  13   1 3579.00 520.105   3
   9 -13   1 3840.96 598.571   1
  -4  13   1 3909.00 463.657   1
   4   9   1 4149.10 513.978   3
 -13   4   1 3927.78 492.419   2
   4   9   1 4039.25 481.278   2
  -9  -4   1 3769.03 394.050   3
  13  -9   4 14405.1 862.699   4
   9 -13   4 15950.7 1109.66   1
  -9  -4   4 15351.1 806.832   3
  -9  -4   4 16328.4 1104.13   1
 -13   4   4 13913.0 802.293   4
  -4  13   4 15790.8 660.934   1
  -9  -4   4 16054.0 832.864   2
  13  -9   4 15740.2 858.701   2
  -9  -4   4 14633.8 743.014   4
 -13   4   4 14297.1 561.940   3
 -13   4   4 16257.6 1023.84   2
  13  -9   4 15703.0 1051.22   1
   4   9   4 15814.4 1067.59   3
  -4  13   4 16385.1 1041.23   3
   9 -13   4 14961.7 551.244   2
  -9  -4   7-27.7938 439.109   1
 -13   4   7 538.615 415.922   2
  -9  -4   7 128.467 279.358   2
   9 -13   7-21.3732 237.069   2
   9 -13   7 215.057 449.142   1
  13  -9   7 63.7729 394.343   1
  -9  -4   7 53.6353 130.291   4
 -13   4   7-132.914 246.327   4
  13  -9   7 66.4243 305.496   4
   4   9   7-17.4254 439.012   3
 -13   4   7 53.6119 320.743   3
  -4  13   7 689.329 454.398   3
   9 -13  10 4541.97 846.606   1
  -9  -4  10 6559.40 975.125   1
  13  -9  10 5941.31 833.040   1
 -13   4  10 5523.36 869.807   2
 -13   4  10 7720.16 965.385   1
 -13   4  10 7420.36 907.148   3
  13  -9  10-3005.43 2294.28   3
   9 -13  10-3366.46 2302.25   3
  -9  -4  10 4771.04 719.606   2
  -9  -4  10-862.483 1758.07   3
   4   9  10 6416.27 1100.52   3
  -4  13  10 6580.33 1048.45   3
 -13   5  -9 2954.78 591.223   4
 -13   5  -6 6007.98 729.986   2
 -13   5  -6 5592.77 644.295   1
 -13   5  -6 5581.92 676.581   4
  -8  -5  -6 5401.65 762.560   4
  -5  13  -6 3896.52 260.194   4
   5   8  -3 31136.6 984.109   4
 -13   5  -3 32314.8 1323.29   1
  -8  -5  -3 30961.0 1363.36   2
   8 -13  -3 33826.5 1239.46   1
  -8  -5  -3 32268.1 1451.49   4
   5   8  -3 33724.5 958.032   2
  -5  13  -3 31097.2 1017.09   4
   8 -13  -3 30867.8 1228.92   3
  -8  -5  -3 33114.3 1015.25   1
  -8  -5  -3 30511.1 1364.86   3
  13  -8  -3 32243.3 1291.60   4
 -13   5  -3 34894.7 1373.29   2
 -13   5  -3 31902.2 1324.28   4
 -13   5   0 27049.7 1134.55   2
  13  -8   0 27902.4 1155.78   4
  13  -8   0 28819.8 1305.25   1
  -5  13   0 28610.1 1160.38   3
 -13   5   0 28607.3 1266.43   1
   5   8   0 28233.4 1103.35   3
  13  -8   0 28745.8 722.730   3
  -5  13   0 27192.5 1132.84   1
 -13   5   0 29433.6 1180.15   4
  -8  -5   0 26947.6 1194.34   4
   5   8   0 28515.9 1148.65   4
   5   8   0 27888.2 1005.67   2
  -8  -5   0 27767.3 1099.87   2
   8 -13   0 29828.0 1133.12   3
  -8  -5   0 28811.3 1016.68   3
   8 -13   0 29806.8 1281.28   1
  13  -8   0 29536.0 1136.72   2
   8 -13   3 3453.62 606.176   1
  -8  -5   3 3445.32 420.096   3
 -13   5   3 2762.16 476.644   2
   8 -13   3 3028.05 242.976   2
  -8  -5   3 3607.32 416.673   4
  13  -8   3 2639.15 499.050   1
  -8  -5   3 2974.59 519.454   1
 -13   5   3 2775.97 426.819   4
  13  -8   3 3771.13 456.670   2
  -5  13   3 3240.37 510.148   3
  -5  13   3 3379.55 417.360   1
  13  -8   3 3955.24 520.656   4
  -8  -5   3 3171.49 408.711   2
   5   8   3 3889.44 541.523   3
  13  -8   6 5747.86 616.822   4
  -8  -5   6 5048.76 554.586   2
  13  -8   6 6304.96 744.141   1
  -5  13   6 5401.59 726.095   3
  -8  -5   6 6260.46 839.770   1
   8 -13   6 4040.27 680.134   1
  -8  -5   6 5037.48 372.321   4
 -13   5   6 4695.63 514.128   3
  -5  13   6 4080.82 347.285   1
 -13   5   6 6106.95 742.009   2
   5   8   6 5225.65 779.466   3
 -13   5   6 6126.80 589.493   4
   8 -13   6 4305.31 324.854   2
 -13   5   9 7701.10 859.869   1
 -13   5   9 6565.96 610.783   4
  -8  -5   9 5598.32 925.730   1
  -8  -5   9 6379.73 725.136   2
 -13   5   9 7226.62 935.983   2
  13  -8   9 4724.03 751.192   1
  -5  13   9 7117.85 976.655   3
   8 -13   9 5989.77 900.691   1
  -8  -5   9 376.403 1334.08   3
 -13   5   9 6830.02 801.036   3
  13  -8   9 1861.02 1944.53   3
   5   8   9 5991.70 980.899   3
 -13   6  -7 76.5746 371.454   2
 -13   6  -7 1268.39 433.565   4
  -6  13  -4 35413.3 1011.51   4
  -7  -6  -4 34750.1 1551.46   4
  -7  -6  -4 37871.2 1627.48   2
 -13   6  -4 35366.3 1409.85   1
   6   7  -4 35656.4 1087.08   2
  -7  -6  -4 35401.6 888.835   1
   6   7  -4 35486.8 948.974   4
 -13   6  -4 37466.7 1439.33   4
  13  -7  -4 36069.3 1383.63   4
   7 -13  -4 36693.7 1167.47   1
   7 -13  -4 33887.6 1417.63   3
 -13   6  -4 36056.0 1431.60   2
  -6  13  -1 1288.98 396.686   1
   7 -13  -1 1882.45 443.405   1
   7 -13  -1 1578.35 378.544   3
  -7  -6  -1 949.064 295.568   2
   6   7  -1 1130.80 294.295   3
  -6  13  -1 1180.69 211.508   2
  -6  13  -1 1694.32 396.719   3
 -13   6  -1 1140.65 357.265   4
  13  -7  -1 1253.87 333.418   4
   6   7  -1 1213.04 323.664   4
 -13   6  -1 1271.46 396.902   1
  13  -7  -1 1470.11 370.480   2
  -7  -6  -1 1016.72 388.117   4
   6   7  -1 1219.78 273.915   2
 -13   6  -1 1079.01 324.999   2
  -7  -6  -1 1349.92 344.256   3
  -6  13   2 29553.5 1193.21   3
 -13   6   2 27323.7 1123.00   4
   7 -13   2 28351.0 1203.73   3
 -13   6   2 27857.9 1209.27   2
  -7  -6   2 27905.8 1257.57   1
   6   7   2 28921.6 1199.68   3
 -13   6   2 26796.7 1272.44   1
  -7  -6   2 27047.5 1012.79   3
   7 -13   2 24641.1 1250.88   1
  13  -7   2 27823.8 1111.57   2
  13  -7   2 29713.0 1309.93   1
   6   7   2 24006.0 1155.98   4
  -7  -6   2 26232.1 958.085   2
  -7  -6   2 25670.0 1029.75   4
  13  -7   2 28585.4 1185.42   4
  -6  13   2 26978.5 1050.77   1
   6   7   2 27243.8 1188.42   2
  -6  13   5 7562.41 510.321   1
 -13   6   5 7272.60 747.806   2
  -7  -6   5 6258.55 524.652   2
  -7  -6   5 6041.87 625.134   3
  -6  13   5 6277.56 695.669   3
  13  -7   5 7000.35 710.749   1
  13  -7   5 6663.15 637.702   4
 -13   6   5 6207.02 601.098   4
 -13   6   5 6691.77 498.044   3
   6   7   5 6742.50 784.664   3
  -7  -6   5 5989.25 411.654   4
  -7  -6   5 7089.48 781.098   1
   7 -13   5 6930.65 778.947   1
  -6  13   8 11675.6 1132.65   3
 -13   6   8 11747.6 1133.36   2
 -13   6   8 10334.2 802.316   4
  -6  13   8 8564.50 390.751   1
  -7  -6   8 11180.8 1096.80   1
 -13   6   8 10482.8 876.200   3
  -7  -6   8 10416.4 796.240   2
  13  -7   8 10300.2 894.256   1
   7 -13   8 7335.17 511.142   2
  -6  13   8 8886.71 397.454   1
   6   7   8 9894.05 1112.75   3
   7 -13   8 10377.1 1100.26   1
   7 -13  11 1383.67 763.512   1
  -7  -6  11-167.953 2066.68   3
  -7  -6  11 722.311 523.281   2
   6   7  11 1208.21 727.052   3
 -13   6  11 540.633 555.046   1
  -6  13  11 567.144 610.326   3
  -7  -6  11 1195.89 764.726   1
   7 -13  11 2208.70 2317.39   3
 -13   6  11-405.946 553.604   2
  13  -7  11 927.222 928.834   3
 -13   6  11 381.186 503.940   3
 -13   7  -8 13964.9 1018.02   4
   7   6  -5 6192.82 391.099   4
 -13   7  -5 7088.40 656.733   4
 -13   7  -5 6264.57 650.383   2
  -7  13  -5 5513.08 408.840   4
 -13   7  -5 6080.69 669.021   1
  -6  -7  -2 21506.5 1073.31   2
   7   6  -2 25515.8 979.776   3
   7   6  -2 27218.5 1007.76   4
  13  -6  -2 26010.0 1121.04   4
 -13   7  -2 29228.0 1164.22   2
  -7  13  -2 24978.4 990.263   4
   6 -13  -2 26244.9 1052.30   1
  -6  -7  -2 24682.2 900.275   1
   7   6  -2 27714.3 955.113   2
  -7  13  -2 27130.1 1234.91   1
  -7  13  -2 25236.9 613.919   2
 -13   7  -2 24743.5 1117.17   4
  -6  -7  -2 24073.2 1244.77   4
   6 -13  -2 25074.4 1103.40   3
  13  -6  -2 26555.6 1168.26   2
  -6  -7  -2 25353.5 1147.46   3
 -13   7  -2 25640.9 1215.23   1
   7   6   1 1174.53 334.964   3
  -6  -7   1 1197.40 315.427   3
  -7  13   1 682.478 306.667   3
   6 -13   1 1844.96 405.768   3
  13  -6   1 1435.34 347.047   4
   7   6   1 1147.36 331.565   4
  13  -6   1 1482.84 803.213   3
   7   6   1 1009.72 368.215   2
   6 -13   1 885.119 384.507   1
 -13   7   1 1464.48 365.517   4
 -13   7   1 1335.61 365.511   2
  13  -6   1 1357.37 417.358   1
  -6  -7   1 1500.29 306.037   2
  13  -6   1 1712.56 378.967   2
  -6  -7   1 1649.01 359.719   4
  -7  13   1 1337.35 378.495   1
  -6  -7   1 1143.60 386.974   1
 -13   7   1 930.572 361.036   1
  -7  13   4 36548.1 1170.06   1
  13  -6   4 36956.5 1369.36   4
  -6  -7   4 38324.6 1380.77   3
  -6  -7   4 36512.9 1065.39   2
  13  -6   4 38197.1 1480.99   1
  -6  -7   4 36723.5 1587.29   1
   6 -13   4 37532.5 1632.51   1
 -13   7   4 40393.0 1578.21   2
  13  -6   4 35705.3 1386.06   2
  -6  -7   4 35434.7 1032.27   4
 -13   7   4 38933.7 1377.34   4
   7   6   4 34579.7 1516.58   3
 -13   7   4 36950.9 889.521   3
  -7  13   4 36907.2 1416.13   3
  13  -6   7 35.0452 319.413   1
  -7  13   7 682.737 433.477   3
 -13   7   7 405.218 333.964   4
  -6  -7   7 347.516 249.115   2
 -13   7   7 620.641 347.012   3
  -6  -7   7 336.813 431.068   1
 -13   7   7 480.566 471.169   2
   6 -13   7 1416.99 580.141   1
  -7  13   7 99.6364 233.264   1
  13  -6   7-163.218 1064.06   3
   6 -13   7 323.761 163.763   2
   7   6   7 508.940 480.597   3
  13  -6  10 4255.15 691.741   1
 -13   7  10 6659.39 874.566   1
  13  -6  10 7359.38 1290.72   3
  -6  -7  10 4672.33 660.444   2
   6 -13  10 3943.09 824.178   1
  -6  -7  10 1242.28 1575.01   3
  -7  13  10 6676.16 1042.04   3
  -6  -7  10 4275.30 846.512   1
 -13   7  10 4304.19 884.965   2
 -13   7  10 4777.16 603.998   4
 -13   7  10 6209.24 829.650   3
   7   6  10 4050.07 944.321   3
 -13   8  -9 8382.06 824.463   4
 -13   8  -6 5112.35 635.056   2
   8   5  -6 5139.03 343.016   4
  -8  13  -6 5331.34 413.532   4
 -13   8  -6 4775.17 554.642   4
  13  -5  -3 3882.84 484.207   4
 -13   8  -3 3035.59 450.716   2
 -13   8  -3 3379.65 468.790   4
  -8  13  -3 3545.52 390.489   4
  -5  -8  -3 3849.22 624.903   2
 -13   8  -3 4295.21 587.145   1
   8   5  -3 4583.68 449.571   2
   8   5  -3 3648.00 382.914   4
  -5  -8  -3 4273.28 367.848   1
   5 -13  -3 3873.90 432.760   1
  -8  13  -3 3285.56 258.646   2
   5 -13  -3 3291.93 517.780   3
   8   5   0 29094.2 1005.13   3
   5 -13   0 27884.0 1159.35   3
   8   5   0 30464.3 1102.80   2
  -5  -8   0 29237.6 1215.99   4
  13  -5   0 30408.6 1186.15   4
   5 -13   0 29547.5 1215.90   1
 -13   8   0 30782.4 1158.47   2
  -8  13   0 29602.1 974.370   2
   8   5   0 29250.1 1148.36   4
 -13   8   0 23329.6 1064.89   4
 -13   8   0 29465.8 1300.48   1
  13  -5   0 29059.5 670.750   3
  -8  13   0 27772.7 1089.93   3
  -5  -8   0 29230.6 1065.34   2
  -5  -8   0 28789.4 1144.85   1
  -8  13   0 28838.4 1171.24   4
  -8  13   0 27874.7 1195.66   1
  -5  -8   0 29088.2 1110.60   3
  13  -5   0 30929.9 1202.50   2
  -5  -8   3 30955.6 1212.54   3
   5 -13   3 30861.1 1432.59   1
  -8  13   3 32852.2 1200.96   1
 -13   8   3 32812.1 1375.14   2
  13  -5   3 30478.4 1239.45   2
 -13   8   3 30094.8 1230.06   4
  -5  -8   3 30163.5 1404.87   1
  13  -5   3 31254.0 1246.07   4
   8   5   3 30466.4 1307.94   3
  -5  -8   3 29596.7 1029.90   4
  -5  -8   3 31441.9 917.801   2
 -13   8   3 30379.6 687.464   3
  13  -5   3 30167.3 2543.17   3
  13  -5   3 32320.8 1306.71   1
 -13   8   3 32513.3 1404.85   1
  -8  13   3 33410.8 1248.68   3
  -8  13   6 5443.85 527.634   1
  13  -5   6 5433.91 630.027   1
 -13   8   6 5139.14 593.450   4
  -5  -8   6 5663.36 766.640   1
  -5  -8   6 4696.71 448.020   2
   8   5   6 5256.08 792.364   3
 -13   8   6 6665.50 806.897   2
   5 -13   6 5871.77 799.969   1
 -13   8   6 5485.71 554.389   3
  -8  13   6 5658.75 704.061   3
 -13   8   9 3068.16 529.124   4
   5 -13   9 1048.30 282.451   2
   5 -13   9 2308.79 700.412   1
  -8  13   9 1751.80 310.071   1
  -5  -8   9 2198.03 483.137   2
  -5  -8   9 2012.04 662.377   1
  13  -5   9 2621.22 562.445   1
 -13   8   9 1654.45 529.488   1
   8   5   9 1740.80 757.915   3
 -13   8   9 2763.47 678.325   2
  13  -5   9 3884.61 1023.52   3
 -13   8   9 2265.03 550.855   3
  -8  13   9 2677.54 710.529   3
 -13   9 -10 6010.28 713.675   4
 -13   9  -7-137.928 364.385   2
 -13   9  -7 253.781 328.180   4
  -9  13  -7 474.547 223.924   4
  13  -4  -4 18116.1 932.404   4
   4 -13  -4 16507.4 694.756   1
   9   4  -4 16159.1 864.484   2
   9   4  -4 17204.6 742.032   4
  -9  13  -4 16012.7 786.095   4
  -4  -9  -4 15662.4 484.986   1
 -13   9  -4 15455.7 1028.82   1
 -13   9  -4 15398.4 889.996   2
  -9  13  -4 15481.3 577.541   2
 -13   9  -4 15123.1 885.537   4
 -13   9  -1 2937.99 450.224   4
  -4  -9  -1 3052.36 440.361   2
  -4  -9  -1 2464.58 430.661   3
   4 -13  -1 2588.18 438.815   1
  -9  13  -1 3271.66 344.027   2
  -9  13  -1 3527.55 458.312   4
  13  -4  -1 3694.36 478.368   4
  13  -4  -1 3339.95 459.877   2
   9   4  -1 2700.61 372.762   4
   9   4  -1 3853.69 450.087   2
 -13   9  -1 3079.04 437.589   2
 -13   9  -1 2249.03 483.225   1
   9   4  -1 3355.52 380.531   3
  -4  -9  -1 3371.65 441.748   1
  -9  13  -1 3071.65 542.544   1
   4 -13  -1 3554.83 485.490   3
  -9  13   2 22491.8 970.781   3
   4 -13   2 20822.2 1071.95   3
 -13   9   2 23008.4 577.437   3
  -9  13   2 22000.5 1043.81   1
 -13   9   2 22455.1 1172.60   1
  -9  13   2 22360.7 1054.86   2
 -13   9   2 19487.3 1004.83   4
   9   4   2 21289.2 1099.43   4
 -13   9   2 23749.1 1124.31   2
  -4  -9   2 20360.1 1119.13   1
  -9  13   2 20420.5 1092.18   4
  13  -4   2 21205.9 1066.66   1
  -4  -9   2 22494.0 786.690   2
  13  -4   2 22133.1 1065.07   2
  13  -4   2 21297.4 973.466   3
   9   4   2 22433.9 1084.17   2
   4 -13   2 22207.8 1170.91   1
  13  -4   2 21547.8 1033.62   4
   9   4   2 20884.4 990.187   3
  -4  -9   2 22829.3 1028.60   3
  13  -4   5 639.081 366.301   1
   4 -13   5 501.682 408.177   1
  -9  13   5 367.057 272.168   1
  13  -4   5 567.752 524.048   3
  -4  -9   5 686.082 206.182   2
 -13   9   5 700.180 245.361   3
 -13   9   5 907.634 335.794   4
  -4  -9   5 446.617 405.997   1
 -13   9   5 1300.97 438.599   2
  -9  13   5 997.397 390.970   3
   9   4   5 624.544 403.730   3
  13  -4   8 4285.69 946.767   3
 -13   9   8 3142.45 695.997   2
  -9  13   8 2496.07 585.395   4
 -13   9   8 3219.50 544.611   4
   4 -13   8 1512.96 228.382   2
  -4  -9   8 2140.92 376.569   2
  13  -4   8 3707.16 559.523   1
  -9  13   8 2923.20 623.174   3
   4 -13   8 1349.19 228.567   2
   4 -13   8 5119.51 847.601   1
  -4  -9   8 2210.91 639.344   1
 -13   9   8 3316.85 567.809   3
   9   4   8 3275.45 781.760   3
  -9  13   8 2031.77 410.947   1
  -9  13  11 1333.37 730.447   3
   4 -13  11 416.666 708.345   1
 -13   9  11 192.396 605.825   2
   4 -13  11 1246.11 2435.52   3
  -4  -9  11-1320.40 1948.75   3
  -4  -9  11-570.409 575.941   1
 -13   9  11-332.653 493.276   1
  13  -4  11-214.441 753.751   3
   9   4  11 205.644 714.671   3
  -9  13  11 138.022 505.253   4
 -13   9  11 382.168 563.851   3
 -13  10  -8 17730.9 1029.02   4
 -10  13  -8 18233.3 774.920   4
 -10  13  -5 5172.83 430.807   2
  10   3  -5 5128.77 439.398   4
 -13  10  -5 4642.34 555.365   4
 -10  13  -5 5398.38 484.213   4
  13  -3  -5 4239.36 507.243   4
  10   3  -5 4710.73 565.174   2
 -13  10  -5 4740.60 541.916   2
   3 -13  -2 73273.5 1654.23   1
  13  -3  -2 70825.5 1879.84   2
  -3 -10  -2 73959.3 1548.79   1
  13  -3  -2 76268.0 1848.49   4
  10   3  -2 76624.2 1721.69   4
  10   3  -2 78521.8 1809.64   2
 -10  13  -2 70422.0 1728.52   4
 -13  10  -2 72792.7 1722.75   2
 -10  13  -2 69642.1 1336.86   2
 -13  10  -2 69783.6 1796.44   4
  -3 -10  -2 70657.8 1953.39   3
 -10  13  -2 71739.8 2064.56   1
 -13  10  -2 72509.2 2100.26   1
   3 -13  -2 70052.1 1919.61   3
 -10  13   1 1616.72 333.884   3
  10   3   1 968.130 294.706   3
 -10  13   1 1412.28 336.522   2
 -13  10   1 993.609 332.682   4
   3 -13   1 1568.16 397.129   3
 -13  10   1 1695.43 464.383   1
 -10  13   1 1452.32 413.773   4
  -3 -10   1 1267.61 365.556   3
  -3 -10   1 1459.91 403.626   1
  10   3   1 1604.40 394.754   2
 -13  10   1 1497.39 360.577   2
   3 -13   1 1026.42 338.181   1
  13  -3   1 1422.10 378.007   2
 -10  13   1 1306.71 395.535   1
  13  -3   1 2032.43 303.314   3
  -3 -10   1 2014.21 308.982   2
  13  -3   1 1204.53 338.943   4
  10   3   1 1616.48 400.780   4
 -10  13   4 57001.7 1635.10   3
 -10  13   4 56308.1 1927.45   2
  13  -3   4 55937.6 1659.97   1
 -13  10   4 59134.8 1967.36   2
 -13  10   4 55875.9 1866.34   1
  10   3   4 61762.8 1988.19   3
 -10  13   4 54490.7 1654.70   1
  -3 -10   4 55095.4 1969.97   1
 -10  13   4 56800.3 1889.57   4
  -3 -10   4 57228.2 1044.88   2
   3 -13   4 56782.3 2015.36   1
  13  -3   4 61161.6 1976.85   3
 -13  10   4 59193.8 1307.00   3
 -13  10   4 56570.5 1775.44   4
 -13  10   7 587.329 351.285   3
   3 -13   7 602.029 452.941   1
 -13  10   7 503.483 448.983   2
  -3 -10   7 96.2548 214.948   2
  13  -3   7-53.8234 326.649   1
   3 -13   7 114.122 69.6132   2
 -10  13   7-15.5972 361.286   4
 -10  13   7 24.7128 322.856   1
 -10  13   7-50.1720 391.600   3
  -3 -10   7 730.886 541.238   1
  13  -3   7 697.304 618.762   3
  10   3   7 354.182 458.627   3
 -13  10   7-143.239 335.157   4
 -13  10  10 17926.8 1356.48   3
 -10  13  10 17415.3 1584.20   2
 -10  13  10 15623.2 1218.13   4
 -13  10  10 15807.9 1439.41   2
 -13  10  10 16702.5 1195.60   1
   3 -13  10 16435.1 1466.65   1
  -3 -10  10 15507.8 1432.22   1
 -13  10  10 14772.4 1063.89   4
  13  -3  10 21428.7 1850.25   3
  10   3  10 16158.5 1575.69   3
 -10  13  10 19209.2 1480.94   3
 -13  11  -9 1458.84 417.627   4
 -11  13  -9 1772.86 320.641   4
 -13  11  -6 4832.08 549.597   2
  11   2  -6 4632.38 438.881   4
  13  -2  -6 4681.36 537.908   4
 -13  11  -6 4830.63 559.748   4
 -11  13  -6 4943.00 492.109   4
  -2 -11  -3 1693.78 263.220   1
 -11  13  -3 1273.97 339.774   4
 -13  11  -3 1420.65 314.674   4
  13  -2  -3 982.533 360.205   2
  11   2  -3 1866.40 362.702   4
  11   2  -3 1906.48 388.940   2
  13  -2  -3 1443.98 323.319   4
   2 -13  -3 1785.57 325.809   1
 -11  13  -3 1054.84 237.365   2
 -13  11  -3 1524.38 319.435   2
  -2 -11   0 1829.99 404.588   3
  13  -2   0 1882.39 390.955   2
   2 -13   0 1683.12 404.320   1
  13  -2   0 1470.75 340.699   4
 -11  13   0 2195.99 437.726   4
   2 -13   0 1086.63 380.182   3
  11   2   0 1622.25 291.587   3
  13  -2   0 2294.21 252.953   3
 -13  11   0 1937.68 408.757   4
 -11  13   0 1517.67 333.272   2
  -2 -11   0 1870.68 406.071   1
 -13  11   0 1949.45 492.983   1
  -2 -11   0 1962.41 379.171   2
 -11  13   0 1141.04 403.234   1
  11   2   0 1765.58 382.424   2
 -13  11   0 1345.16 325.356   2
  11   2   0 1440.95 343.546   4
 -11  13   3 2554.28 401.970   3
  13  -2   3 2790.29 471.488   3
 -11  13   3 2000.72 445.760   1
 -11  13   3 2541.81 480.572   2
 -13  11   3 2366.45 308.290   3
 -13  11   3 2462.09 460.073   4
  -2 -11   3 2198.00 545.272   1
 -13  11   3 2445.74 493.742   1
 -11  13   3 3116.27 507.756   4
  11   2   3 2657.97 483.185   3
 -13  11   3 3029.26 514.076   2
  -2 -11   3 2669.16 241.644   2
   2 -13   3 2022.05 514.194   1
  -2 -11   6 7324.73 872.720   1
 -11  13   6 6119.33 822.291   2
 -11  13   6 6213.88 735.412   4
 -13  11   6 6938.94 822.261   2
 -13  11   6 7662.76 744.596   4
  -2 -11   6 6567.16 366.335   2
   2 -13   6 7599.17 907.313   1
  13  -2   6 7648.17 912.356   3
  13  -2   6 7947.54 665.731   1
 -11  13   6 6911.74 693.266   1
  11   2   6 6879.50 861.445   3
 -13  11   6 7285.69 646.115   3
 -11  13   6 7316.40 741.125   3
  -2 -11   9 5483.77 902.762   1
  13  -2   9 3024.64 483.245   1
 -13  11   9 4050.05 682.307   3
 -11  13   9 5598.42 923.072   2
 -11  13   9 3791.75 689.295   4
 -13  11   9 4871.48 707.184   4
  -2 -11   9 3422.27 444.386   2
 -13  11   9 3461.32 801.263   2
   2 -13   9 4665.66 850.039   1
  13  -2   9 4346.68 918.208   3
 -11  13   9 5028.32 791.054   3
  11   2   9 4516.38 940.056   3
 -12  13  -7 2264.61 381.570   4
 -13  12  -7 3053.58 470.532   4
  13  -1  -4 4848.00 518.564   4
  12   1  -4 4687.36 484.098   4
   1 -13  -4 4370.73 354.648   1
 -12  13  -4 3640.50 451.058   4
 -13  12  -4 4574.27 525.169   4
  -1 -12  -4 4005.28 321.778   1
 -13  12  -4 4259.36 473.239   2
 -12  13  -4 4553.43 445.929   2
 -12  13  -1 11347.8 671.854   2
  13  -1  -1 12781.4 438.707   3
   1 -13  -1 9310.82 749.345   3
 -12  13  -1 12738.7 939.776   1
 -13  12  -1 12665.0 735.703   2
 -13  12  -1 12522.6 948.520   1
  -1 -12  -1 14191.8 801.248   1
 -12  13  -1 11444.1 783.523   4
 -13  12  -1 13000.7 853.414   4
  -1 -12  -1 12377.4 849.830   3
  13  -1  -1 13948.0 821.619   4
  12   1  -1 13860.7 813.529   4
   1 -13  -1 12917.0 774.110   1
  13  -1  -1 13160.8 822.573   2
  12   1  -1 12618.2 529.350   3
  12   1  -1 11815.5 778.389   2
 -13  12   2 1871.05 400.007   4
  12   1   2 1441.30 351.252   3
  -1 -12   2 850.149 327.615   3
 -12  13   2 682.904 237.477   3
 -13  12   2 1854.05 472.923   1
 -12  13   2 1039.89 382.691   2
   1 -13   2 1018.68 400.889   1
 -13  12   2 1308.02 412.110   2
 -13  12   2 1125.52 259.670   3
  -1 -12   2 1063.04 421.485   1
 -12  13   2 873.378 399.357   1
  13  -1   2 1288.04 357.715   3
 -12  13   2 1569.60 422.702   4
 -12  13   5 512.811 318.774   3
 -12  13   5 905.785 458.592   2
 -13  12   5 296.259 337.139   1
 -12  13   5 361.528 301.826   4
 -13  12   5 393.741 382.204   4
 -13  12   5 221.846 398.492   2
  12   1   5 940.908 456.950   3
 -12  13   5 287.219 398.505   1
  -1 -12   5 153.290 71.7506   2
  13  -1   5 72.8017 391.540   3
  -1 -12   5 311.816 426.758   1
   1 -13   5 536.602 446.694   1
 -13  12   5 76.7662 248.201   3
   1 -13   8 311.897 579.755   1
  -1 -12   8-698.909 565.328   1
 -13  12   8 450.230 501.851   2
  -1 -12   8 415.713 193.063   2
 -13  12   8 266.458 371.272   4
 -12  13   8 498.030 449.067   4
   1 -13   8 220.559 127.199   2
 -12  13   8-194.369 453.578   3
 -12  13   8 357.504 541.816   2
  13  -1   8 480.822 500.741   3
  12   1   8 755.024 580.434   3
 -13  12   8 781.139 437.262   3
  -1 -12  11 99.0408 1859.39   3
 -12  13  11 266.285 740.671   2
  -1 -12  11 245.711 642.845   1
 -12  13  11 1299.72 588.758   4
 -13  12  11 506.110 621.875   3
 -13  12  11 833.562 516.195   4
  12   1  11 1143.30 806.409   3
  13  -1  11-202.147 715.623   3
 -12  13  11 748.016 664.568   3
   1 -13  11 112.568 615.042   1
 -13  12  11-121.595 628.085   2
 -13  13  -8 35077.6 1335.36   4
 -13  13  -5 40.2326 265.228   2
  13   0  -5 38.9071 253.319   4
 -13  13  -5-195.391 281.151   4
  13   0  -2 109561. 2219.83   4
  13   0  -2 111051. 2412.62   2
 -13  13  -2 108771. 2349.97   4
 -13  13  -2 104859. 1969.44   2
   0 -13  -2 107891. 2018.18   1
 -13  13   1 424.828 310.741   4
   0 -13   1 145.833 337.898   3
 -13  13   1-139.575 369.430   1
   0 -13   1 19.4541 328.013   1
 -13  13   1-19.2075 218.603   3
 -13  13   1-52.1517 255.978   2
  13   0   1-202.735 222.107   3
  13   0   4 69773.2 2106.85   3
 -13  13   4 69905.1 2100.68   4
 -13  13   4 65400.1 2152.91   2
   0 -13   4 72422.2 2344.69   1
 -13  13   4 63772.9 2032.23   1
 -13  13   4 71961.2 1676.11   3
  13   0   7 69.9092 529.437   3
 -13  13   7 168.252 343.638   3
 -13  13   7 1.18222 381.870   4
 -13  13   7 271.206 453.674   2
   0 -13   7 774.558 526.903   1
   0 -13   7-2.38181 65.8936   2
 -13  13  10 24753.9 1501.18   4
 -13  13  10 31566.5 1469.32   1
 -13  13  10 29218.7 1738.48   3
   0 -13  10 30623.2 1952.23   1
 -13  13  10 27200.4 1949.48   2
  13   0  10 31879.5 2170.05   3
 -14   0  -8 537.628 520.317   4
   0  14  -5 40.7687 183.420   4
 -14   0  -5-54.0759 413.532   2
 -14   0  -5 251.862 395.062   4
  14 -14  -5 49.3284 342.825   3
 -14   0  -5 227.252 312.511   1
   0  14  -2 1739.58 447.882   3
   0  14  -2 1448.56 355.293   4
   0  14  -2 1334.53 206.506   2
 -14   0  -2 2030.07 511.426   2
 -14   0  -2 1785.49 491.427   4
 -14   0  -2 1722.90 436.177   1
 -14   0  -2 3026.18 1092.82   3
  14 -14  -2 2156.93 480.832   1
  14 -14  -2 1474.58 314.253   3
   0  14   1-396.034 361.572   3
   0  14   1 326.714 319.558   2
   0  14   1 77.1868 258.747   1
  14 -14   1-335.729 277.253   3
 -14   0   1-89.9550 297.522   4
  14 -14   1 204.805 438.764   1
  14 -14   1 106.527 267.965   2
 -14   0   1-0.86471 290.501   2
 -14   0   1-124.060 176.905   3
 -14   0   4 517.757 335.565   2
   0  14   4 471.585 387.489   3
  14 -14   4 942.937 355.997   4
 -14   0   4 1029.06 237.117   3
 -14   0   4 746.064 345.639   4
  14 -14   4 1128.62 326.766   2
  14 -14   4 544.286 458.197   1
 -14   0   7 213.842 480.209   1
 -14   0   7 707.451 456.561   2
 -14   0   7-557.693 1097.88   3
  14 -14   7 30.6901 341.675   4
 -14   0   7 38.9583 265.621   4
  14 -14   7 40.2534 306.930   2
  14 -14   7-54.3320 518.374   1
   0  14   7 55.2832 483.415   3
  14 -14  10 1096.37 693.423   1
 -14   0  10 893.291 508.749   2
 -14   0  10 1858.51 719.611   3
 -14   0  10 1680.88 686.037   1
   0  14  10 1761.48 703.260   3
 -14   1  -9 4584.20 838.758   4
 -13  -1  -6 1073.21 483.272   4
 -14   1  -6 741.412 427.869   2
 -13  -1  -6 1888.96 543.130   2
   1  13  -6 499.595 104.319   4
  -1  14  -6 595.149 124.075   4
  -1  14  -6 745.916 134.709   4
 -14   1  -6 977.891 381.536   1
 -13  -1  -6 1584.75 373.281   1
 -14   1  -6 750.110 443.535   4
  14 -13  -6 1386.93 1389.79   3
 -14   1  -3 2544.54 485.384   1
 -14   1  -3 2381.38 500.980   2
  13 -14  -3 3666.50 570.942   1
 -13  -1  -3 2717.57 489.322   1
 -13  -1  -3 3411.92 566.917   4
 -13  -1  -3 6150.81 1457.90   3
   1  13  -3 2340.10 200.738   2
  14 -13  -3 3246.07 540.102   1
 -14   1  -3 2328.10 506.195   4
  -1  14  -3 2096.25 392.230   4
 -13  -1  -3 3640.82 588.500   2
  14 -13  -3 2362.54 363.964   3
  13 -14  -3 2866.51 427.733   3
 -14   1  -3 5072.49 1325.21   3
   1  13  -3 2985.90 416.689   4
  13 -14   0 3362.44 413.077   3
  14 -13   0 4028.13 418.022   3
  -1  14   0 3866.12 563.370   3
   1  13   0 3424.68 536.420   4
  14 -13   0 3718.01 602.210   1
 -13  -1   0 3816.95 544.751   4
 -14   1   0 3565.68 565.798   1
 -13  -1   0 4032.05 389.178   3
  14 -13   0 3260.07 479.801   2
   1  13   0 4408.51 571.981   1
 -14   1   0 3834.59 544.907   4
  13 -14   0 4049.74 493.682   2
   1  13   0 3737.54 425.722   2
 -13  -1   0 3999.42 553.697   2
  -1  14   0 3081.38 490.087   1
 -14   1   0 4524.63 567.953   2
  -1  14   0 4561.19 451.496   2
   1  13   0 3213.04 537.856   3
  13 -14   0 3325.99 567.935   1
 -14   1   0 4211.07 410.209   3
 -13  -1   3 3223.91 331.527   3
  -1  14   3 2834.09 535.782   3
 -14   1   3 3185.01 494.043   2
 -14   1   3 3081.50 445.346   4
  13 -14   3 3676.65 677.765   1
  14 -13   3 2403.57 456.892   4
  13 -14   3 2425.63 349.011   2
 -13  -1   3 2858.49 439.687   4
  13 -14   3 2816.63 502.645   4
  14 -13   3 3398.54 437.705   2
 -14   1   3 2760.97 246.710   3
 -13  -1   3 3230.41 487.968   2
  14 -13   3 3451.69 652.189   1
   1  13   3 2698.22 521.059   3
  -1  14   3 2883.07 369.523   1
  14 -13   6 846.086 529.060   1
  13 -14   6 571.481 350.515   4
 -14   1   6 343.441 304.720   4
 -13  -1   6 557.771 337.887   3
  14 -13   6 195.106 307.990   4
 -13  -1   6 65.4876 349.613   2
  13 -14   6 511.830 295.532   2
  14 -13   6-359.878 332.623   2
 -13  -1   6 806.292 295.235   4
 -14   1   6 809.898 969.235   3
 -14   1   6 331.882 354.497   2
  13 -14   6 1447.30 582.197   1
   1  13   6-263.914 423.528   3
  -1  14   6 86.5040 414.148   3
  13 -14   9 133.424 586.893   1
 -13  -1   9 837.123 608.383   1
  14 -13   9 1017.37 596.250   1
 -14   1   9 1369.15 629.492   1
 -14   1   9 914.537 465.393   2
 -14   1   9 1300.34 341.775   4
 -14   1   9 1050.15 576.064   3
 -13  -1   9 1377.79 490.211   2
  13 -14   9 929.677 1711.17   3
  14 -13   9 1886.26 2124.83   3
 -13  -1   9-938.268 1444.03   3
  -1  14   9 900.764 616.553   3
   1  13   9 1948.72 743.347   3
 -14   2  -7 12309.9 1158.61   2
 -14   2  -7 12771.5 1079.06   4
 -14   2  -7 10930.9 818.737   1
 -12  -2  -7 13301.7 1149.53   4
 -12  -2  -7 11582.4 609.808   1
 -14   2  -4 8621.73 832.565   4
  -2  14  -4 8541.79 580.605   4
   2  12  -4 9080.17 568.027   4
 -12  -2  -4 9561.49 922.088   4
 -14   2  -4 8994.38 736.953   1
  14 -12  -4 9381.44 641.170   3
  12 -14  -4 9038.05 718.873   3
 -14   2  -4 8722.70 834.063   2
 -12  -2  -4 9334.81 665.121   1
 -12  -2  -4 10000.5 908.964   2
  -2  14  -1 33318.9 1408.78   1
 -12  -2  -1 34459.2 1454.81   4
  12 -14  -1 30370.1 1094.32   3
   2  12  -1 33464.6 1371.86   3
  -2  14  -1 32428.4 1382.66   3
   2  12  -1 33114.9 987.765   2
  12 -14  -1 32614.8 1444.89   1
   2  12  -1 33927.4 1398.15   1
  14 -12  -1 33153.5 1344.51   2
 -14   2  -1 33316.0 1417.16   4
 -12  -2  -1 32047.6 1357.95   2
 -12  -2  -1 33153.3 1159.33   3
   2  12  -1 33803.8 1311.23   4
  14 -12  -1 32287.9 1471.93   1
 -14   2  -1 32234.7 1361.93   2
 -14   2  -1 33685.0 1408.06   1
  -2  14  -1 32895.6 916.904   2
  14 -12  -1 29828.6 899.194   3
  12 -14   2 29847.2 1020.24   2
 -12  -2   2 31084.4 1246.17   4
  -2  14   2 27821.9 1282.08   2
  12 -14   2 30757.2 1256.03   3
  12 -14   2 29678.0 1272.15   4
  14 -12   2 28364.7 1253.45   4
  -2  14   2 28520.7 1091.75   1
 -14   2   2 28372.5 1226.25   4
  12 -14   2 29727.6 1465.47   1
  14 -12   2 30287.6 1162.57   2
 -12  -2   2 30391.1 1228.75   2
  14 -12   2 30211.4 1483.98   1
  -2  14   2 30048.8 1347.23   3
 -14   2   2 31290.0 1317.24   2
 -14   2   2 25997.7 473.137   3
 -12  -2   2 30004.5 881.519   3
   2  12   2 30822.7 1299.96   2
   2  12   2 29736.3 1343.11   3
  12 -14   5 34058.4 1058.64   2
 -12  -2   5 34492.3 1199.35   3
 -14   2   5 31274.3 1248.50   4
  -2  14   5 26939.5 680.518   1
  14 -12   5 33579.7 1629.08   1
  14 -12   5 30848.3 1312.78   4
  12 -14   5 32216.2 1277.03   4
 -14   2   5 34160.1 1522.28   2
 -12  -2   5 34134.6 1389.35   2
  -2  14   5 33770.3 1626.49   3
  14 -12   5 31216.2 1217.49   2
  12 -14   5 34259.1 1716.50   1
 -12  -2   5 34165.0 1197.64   4
   2  12   5 34405.3 1679.81   3
 -14   2   8 12545.3 770.362   4
 -12  -2   8 309.907 1351.00   3
 -12  -2   8 14987.8 1304.40   1
 -14   2   8 12591.4 1076.31   2
 -14   2   8 16994.3 1214.71   3
  14 -12   8 13612.7 1194.74   1
 -12  -2   8 11691.2 996.140   2
 -12  -2   8 13629.6 656.265   4
  12 -14   8 13117.1 1246.05   1
  14 -12   8 1138.51 1656.92   3
 -14   2   8 13627.4 1209.32   1
   2  12   8 13503.6 1278.21   3
  -2  14   8 13658.4 1275.44   3
 -14   2  11 9289.06 1076.94   3
 -14   2  11 8223.68 1090.93   2
 -14   2  11 9565.11 1192.12   1
  12 -14  11 7422.62 1096.98   1
  12 -14  11-2708.13 3233.57   3
  14 -12  11-1395.83 2340.99   3
 -12  -2  11 9678.95 1501.39   3
   2  12  11 7511.42 1268.51   3
  14 -12  11 8300.45 1072.58   1
 -12  -2  11 10423.9 1268.67   1
  -2  14  11 11920.6 1413.66   3
 -12  -2  11 7409.10 963.612   2
 -14   3  -8 871.493 469.704   4
 -11  -3  -5 4602.29 717.490   2
 -14   3  -5 4865.40 605.288   1
   3  11  -5 4718.92 349.406   4
  -3  14  -5 4386.26 352.338   4
 -11  -3  -5 5501.89 741.670   4
 -11  -3  -5 5552.94 482.824   1
 -14   3  -5 4285.40 644.908   4
  -3  14  -5 5236.81 414.334   4
 -14   3  -5 5932.50 775.689   2
 -11  -3  -2 2157.91 484.579   2
 -14   3  -2 2003.57 472.361   2
 -14   3  -2 2217.90 488.311   1
   3  11  -2 2052.36 429.155   3
  14 -11  -2 2781.27 528.458   1
   3  11  -2 1734.01 354.733   4
   3  11  -2 2212.58 278.247   2
 -11  -3  -2 2295.85 530.895   4
 -11  -3  -2 2447.29 452.829   3
  -3  14  -2 1393.24 160.290   2
  11 -14  -2 2263.69 395.464   3
  11 -14  -2 1811.62 436.346   1
  14 -11  -2 2257.28 268.430   3
 -14   3  -2 2058.46 475.853   4
   3  11   1 889.136 337.666   3
   3  11   1 819.284 304.458   2
 -14   3   1 1978.46 445.588   1
  -3  14   1 407.617 320.247   3
  11 -14   1 661.296 399.803   1
  11 -14   1 1108.42 331.359   3
 -14   3   1 1418.62 384.145   2
 -14   3   1 1072.91 349.916   4
  14 -11   1 786.798 260.576   3
 -11  -3   1 959.275 238.876   3
   3  11   1 784.203 332.771   4
  14 -11   1 660.717 331.131   4
  14 -11   1 953.503 414.423   1
 -11  -3   1 1313.99 356.387   4
  14 -11   1 1188.36 338.717   2
  11 -14   1 770.233 271.952   2
  -3  14   1 1438.34 366.188   1
 -11  -3   1 1183.75 357.305   2
 -11  -3   4 4829.26 491.003   4
  -3  14   4 4839.08 669.943   3
 -14   3   4 5432.05 565.709   4
 -11  -3   4 5381.52 492.242   3
 -14   3   4 5493.54 336.068   3
  11 -14   4 4511.64 742.706   1
  11 -14   4 4944.99 543.393   4
   3  11   4 4429.95 657.645   3
  11 -14   4 4840.99 393.328   2
 -11  -3   4 4946.80 562.199   2
  -3  14   4 4662.34 407.586   1
  14 -11   4 5488.43 704.447   1
 -14   3   4 4903.79 440.410   3
 -14   3   4 5995.30 671.486   2
  14 -11   4 4289.28 494.223   2
  14 -11   4 4748.25 572.640   4
   3  11   7 7824.19 1005.16   3
 -11  -3   7 8182.40 963.573   1
  11 -14   7 6388.27 912.197   1
  14 -11   7 6416.27 812.473   1
 -11  -3   7 7374.56 499.318   4
 -14   3   7 8104.13 869.327   2
 -14   3   7 8239.75 749.758   3
 -14   3   7 7164.93 610.100   4
  -3  14   7 7018.72 902.836   3
  11 -14   7 6038.05 527.689   2
 -11  -3   7 7801.93 755.656   2
  11 -14  10 3257.47 807.419   1
 -14   3  10 4535.88 811.678   1
  14 -11  10 3004.18 739.021   1
 -14   3  10 3380.07 763.417   2
 -11  -3  10 2502.25 601.517   2
  14 -11  10-2212.86 2253.60   3
 -11  -3  10 3856.00 831.388   1
 -11  -3  10-148.561 1540.69   3
  11 -14  10-437.802 1824.16   3
 -14   3  10 2284.46 628.364   3
   3  11  10 3885.75 886.971   3
  -3  14  10 3044.58 826.970   3
 -14   4  -9 3108.83 613.565   4
 -14   4  -6 2101.09 514.299   4
   4  10  -6 827.038 94.5198   4
 -14   4  -6 511.650 366.498   1
  -4  14  -6 910.634 148.342   4
 -10  -4  -6 1769.81 554.348   4
 -14   4  -6 2998.21 605.339   2
 -10  -4  -6 1882.69 257.513   1
  -4  14  -6 1634.60 200.630   4
 -10  -4  -3 17256.2 830.376   1
   4  10  -3 17060.9 658.682   2
 -14   4  -3 17743.8 1044.17   4
  10 -14  -3 17476.5 957.104   3
 -10  -4  -3 19745.1 1186.58   4
  10 -14  -3 17279.1 965.770   1
  14 -10  -3 18839.6 678.798   3
 -14   4  -3 17631.2 1024.56   1
 -10  -4  -3 17605.5 1094.18   3
   4  10  -3 17277.0 802.326   4
 -14   4  -3 18286.3 1063.23   2
 -10  -4  -3 19700.0 1163.92   2
  10 -14   0 3021.04 431.144   3
   4  10   0 2874.00 453.686   3
 -14   4   0 3801.78 513.853   4
  10 -14   0 2898.65 550.651   1
  14 -10   0 3171.55 551.552   1
   4  10   0 3519.32 422.190   2
 -10  -4   0 3217.82 476.350   2
  14 -10   0 3407.48 464.011   2
  14 -10   0 3675.43 335.587   3
   4  10   0 3542.38 509.588   4
 -14   4   0 3108.82 483.385   2
  -4  14   0 4278.46 547.414   1
 -10  -4   0 3906.00 521.968   4
 -10  -4   0 2594.85 367.509   3
  -4  14   0 3887.15 520.143   3
 -14   4   0 3055.31 517.851   1
  14 -10   0 3524.36 480.270   4
 -14   4   3 5974.80 584.246   4
 -10  -4   3 6157.07 498.655   3
 -14   4   3 6308.87 651.340   2
 -10  -4   3 5890.83 555.590   2
  10 -14   3 6077.93 749.933   1
  14 -10   3 6531.04 586.018   2
 -10  -4   3 6537.88 561.075   4
  14 -10   3 5710.25 581.446   4
  10 -14   3 6844.86 420.924   2
  -4  14   3 5709.50 486.383   1
   4  10   3 6420.38 710.116   3
  14 -10   3 6405.33 743.106   1
  -4  14   3 6296.15 699.930   3
  14 -10   6 1013.22 496.257   1
 -14   4   6 564.003 374.633   2
 -10  -4   6 778.293 521.850   1
  -4  14   6 93.2835 101.112   1
 -10  -4   6-151.813 226.625   4
  10 -14   6 36.3800 185.771   2
 -10  -4   6 612.682 309.159   2
  14 -10   6 182.861 1257.22   3
   4  10   6-153.974 446.671   3
  10 -14   6 58.3481 467.200   1
 -14   4   6 285.710 302.813   3
 -14   4   6-31.8125 250.948   4
  -4  14   6 375.179 468.776   3
 -14   4   9 5087.42 559.245   4
  10 -14   9 5162.53 878.937   1
 -14   4   9 4181.08 746.356   2
 -10  -4   9 5445.58 879.357   1
 -10  -4   9 6519.01 787.540   2
 -14   4   9 5918.58 761.934   3
   4  10   9 5687.66 983.881   3
  -4  14   9 4930.32 889.566   3
  14 -10   9 4692.80 771.936   1
 -14   4   9 6554.05 876.020   1
 -14   5 -10 4474.00 754.634   4
 -14   5  -7 11142.0 1054.65   2
 -14   5  -7 10952.2 871.871   1
 -14   5  -7 12052.7 1006.07   4
  -5  14  -4 4342.51 405.591   4
  -9  -5  -4 4386.33 650.928   2
   9 -14  -4 4709.26 529.531   1
   5   9  -4 4084.67 375.963   2
  -9  -5  -4 4585.56 416.887   1
 -14   5  -4 5193.32 634.263   1
 -14   5  -4 5148.36 636.260   4
  -9  -5  -4 5307.26 684.753   4
   5   9  -4 4419.96 396.566   4
 -14   5  -4 4219.71 609.886   2
   9 -14  -4 4211.60 592.338   3
 -14   5  -1 44041.8 1614.32   1
  14  -9  -1 45561.4 1702.35   1
   5   9  -1 43269.0 1405.19   3
  -5  14  -1 43069.7 1563.98   1
  -5  14  -1 43482.6 1512.34   3
  14  -9  -1 44342.2 1508.34   2
   9 -14  -1 42078.2 1506.05   1
   5   9  -1 45952.8 1436.71   4
  -9  -5  -1 48621.2 1679.10   4
   5   9  -1 46697.7 1233.03   2
 -14   5  -1 44086.7 1507.18   2
 -14   5  -1 42266.7 1511.91   4
  14  -9  -1 42547.5 1491.79   4
  -9  -5  -1 44093.9 1377.56   3
  -9  -5  -1 40940.2 1457.60   2
  14  -9  -1 44546.8 776.292   3
   9 -14  -1 43276.1 1378.43   3
  -9  -5   2 26223.0 974.711   3
  -5  14   2 24508.7 1152.59   3
  14  -9   2 25921.7 1089.81   2
  14  -9   2 26158.0 1333.75   1
 -14   5   2 24365.3 1099.28   4
 -14   5   2 26731.2 1229.56   2
  -9  -5   2 23009.9 1029.66   4
   5   9   2 26180.1 1200.36   3
  14  -9   2 26385.7 1164.32   4
  -9  -5   2 24399.6 1004.31   2
  -5  14   2 23623.9 993.458   1
   9 -14   2 24204.0 1142.79   3
   5   9   2 26393.2 1187.18   2
  -5  14   5 20153.1 1198.90   3
   9 -14   5 18374.2 1231.50   1
  -9  -5   5 18907.4 1018.03   3
 -14   5   5 18952.7 977.649   4
 -14   5   5 19862.0 1183.69   2
  -9  -5   5 20268.1 1285.46   1
 -14   5   5 19303.9 747.610   3
   9 -14   5 15145.6 533.552   2
  14  -9   5 20770.0 1255.51   1
  -9  -5   5 19320.3 945.510   2
  -5  14   5 20347.2 740.447   1
  -9  -5   5 18716.1 805.162   4
   5   9   5 17309.9 1206.61   3
   9 -14   8 12367.6 1210.77   1
  -9  -5   8 11471.3 1150.17   1
 -14   5   8 10070.4 846.903   3
 -14   5   8 10183.7 749.364   4
  14  -9   8 9302.23 958.428   1
 -14   5   8 10792.3 1067.99   2
   5   9   8 9011.51 1127.45   3
  -9  -5   8 9444.45 821.594   2
  -5  14   8 12272.2 1151.72   3
 -14   5  11 9602.67 1083.86   1
   9 -14  11 6673.13 1100.87   1
  -9  -5  11 5965.22 1034.07   1
   9 -14  11 905.692 2057.77   3
  -9  -5  11 7479.06 906.831   2
 -14   5  11 9872.71 1103.20   3
 -14   5  11 6634.91 1060.18   2
  -5  14  11 9126.51 1263.98   3
  -9  -5  11 576.529 1835.51   3
  14  -9  11 10432.9 1851.94   3
  14  -9  11 7370.54 962.876   1
   5   9  11 9247.32 1350.58   3
 -14   6  -8 3691.69 645.060   4
 -14   6  -5 18597.9 1108.85   1
 -14   6  -5 19977.2 1137.56   4
  -8  -6  -5 17743.7 586.196   1
  -8  -6  -5 19057.4 600.996   1
   6   8  -5 19032.2 660.025   4
  -6  14  -5 18842.8 719.599   4
  -8  -6  -5 21156.8 1308.70   4
 -14   6  -5 18108.9 1114.12   2
  -6  14  -2 653.710 403.103   1
  -6  14  -2 427.657 113.100   2
  14  -8  -2 750.609 341.272   2
   8 -14  -2 925.404 333.130   3
   6   8  -2 648.232 320.795   3
  -6  14  -2 449.158 242.004   4
  14  -8  -2 490.982 322.979   4
 -14   6  -2 617.736 339.600   4
   6   8  -2 990.940 295.133   4
  -8  -6  -2 995.222 414.987   2
 -14   6  -2 822.132 378.248   1
   6   8  -2 826.494 254.269   2
   8 -14  -2 486.510 293.799   1
  -8  -6  -2 875.207 321.257   4
 -14   6  -2 893.736 369.239   2
  -8  -6  -2 677.480 326.421   3
  -6  14   1 31130.6 1256.01   3
   8 -14   1 36313.5 1325.31   3
   8 -14   1 34260.3 1460.23   1
   6   8   1 35877.5 1403.22   4
  14  -8   1 37908.2 1324.26   2
  14  -8   1 35826.9 1347.63   4
   6   8   1 37969.4 1326.39   2
 -14   6   1 35465.7 1313.09   4
  -6  14   1 35997.2 1292.56   1
 -14   6   1 36080.6 1489.84   1
  -8  -6   1 38091.7 1243.25   2
  14  -8   1 36814.8 1527.06   1
  -8  -6   1 36858.1 1346.71   4
  -8  -6   1 35843.8 1161.17   3
   6   8   1 36680.2 1332.08   3
   8 -14   4 7235.57 808.985   1
  14  -8   4 7031.84 764.819   1
 -14   6   4 6568.75 711.395   2
  -8  -6   4 7588.71 636.955   3
  -8  -6   4 6307.71 730.718   1
  14  -8   4 4126.29 1245.92   3
 -14   6   4 6545.91 646.389   4
  -8  -6   4 5892.34 512.738   2
  14  -8   4 6356.75 640.073   4
   8 -14   4 3803.02 227.298   2
  -8  -6   4 6697.37 526.351   4
  14  -8   4 7201.70 665.338   2
 -14   6   4 5917.94 341.939   3
  -6  14   4 7144.94 559.849   1
   6   8   4 7001.91 741.857   3
  -6  14   4 6953.38 700.094   3
   8 -14   7 4787.39 774.201   1
  -8  -6   7 4896.91 564.778   2
  -6  14   7 5679.58 781.893   3
  -8  -6   7 6295.17 842.083   1
 -14   6   7 4772.37 575.152   4
   8 -14   7 3551.04 307.802   2
 -14   6   7 5198.46 560.430   3
  -6  14   7 5410.72 360.723   1
 -14   6   7 4570.12 765.926   2
   6   8   7 4862.09 830.231   3
  14  -8   7 5436.66 719.256   1
   8 -14  10-29.7932 575.451   1
 -14   6  10 1138.88 632.561   2
 -14   6  10 375.928 443.944   1
  -8  -6  10 47.3439 403.694   2
 -14   6  10 511.990 344.704   4
   8 -14  10-1095.69 1819.84   3
  -8  -6  10-1698.36 1832.71   3
  -8  -6  10 433.021 572.762   1
  14  -8  10-249.739 987.486   3
 -14   6  10 223.859 458.925   3
   6   8  10 380.002 676.636   3
  -6  14  10-139.301 653.226   3
  14  -8  10 1634.47 586.374   1
 -14   7  -9 5403.35 716.226   4
   7   7  -6 467.591 146.344   4
 -14   7  -6 430.560 387.119   2
  -7  14  -6 643.356 205.611   4
 -14   7  -6 191.156 344.492   4
  -7  -7  -3 24515.3 1281.58   2
   7   7  -3 24926.8 928.313   2
  14  -7  -3 23469.9 1120.20   4
  -7  -7  -3 24690.2 868.457   1
 -14   7  -3 25630.3 1249.61   1
  -7  14  -3 23547.0 940.676   4
   7 -14  -3 23980.7 1026.91   1
   7   7  -3 25638.7 950.586   4
  -7  -7  -3 24977.0 1337.50   4
 -14   7  -3 25440.5 1177.59   2
   7 -14  -3 23040.4 1131.81   3
  -7  -7   0 230.130 275.003   2
  -7  14   0 283.609 225.147   2
   7 -14   0 474.857 304.486   3
   7   7   0 524.150 308.364   3
  14  -7   0 112.071 369.629   1
  -7  14   0 394.888 302.213   3
 -14   7   0 436.517 312.257   4
 -14   7   0-86.7951 321.175   1
   7   7   0 273.242 299.033   4
  -7  14   0 853.650 367.224   1
  -7  -7   0 103.628 310.760   4
 -14   7   0 177.897 301.787   2
  14  -7   0 165.013 266.405   4
   7 -14   0 436.199 367.236   1
  -7  -7   0 248.895 291.484   1
  -7  -7   0 643.352 294.423   3
  14  -7   0 73.5483 262.538   2
   7   7   0 365.459 251.141   2
  -7  -7   3 24126.9 922.725   2
 -14   7   3 21954.3 1085.72   4
  -7  -7   3 18810.3 1128.30   1
   7 -14   3 21369.6 1248.17   1
 -14   7   3 23997.7 1221.32   2
  14  -7   3 24926.3 1243.95   1
  -7  -7   3 24371.0 1053.33   3
  14  -7   3 22978.9 1082.02   2
  -7  -7   3 24185.0 972.863   4
  14  -7   3 23940.1 1141.42   4
   7   7   3 24105.9 1197.73   3
  -7  14   3 21498.2 970.772   1
  -7  14   3 23614.9 1134.20   3
 -14   7   6 1090.88 367.639   4
  -7  -7   6 834.359 286.502   2
  14  -7   6 751.258 382.674   1
   7   7   6 125.978 476.276   3
 -14   7   6 88.5468 365.963   2
 -14   7   6 605.798 297.444   3
   7 -14   6 193.827 78.5676   2
  -7  14   6 457.235 270.471   1
  -7  -7   6 991.607 516.292   1
  14  -7   6 1707.76 1499.63   3
  -7  14   6 1348.24 482.302   3
   7 -14   6 208.807 470.920   1
 -14   7   9 3921.73 567.721   4
  -7  -7   9 4766.48 616.836   2
  -7  -7   9 5175.85 874.728   1
 -14   7   9 5290.39 774.959   1
 -14   7   9 3611.18 760.844   2
  14  -7   9 4156.20 1299.85   3
 -14   7   9 4110.32 676.264   3
   7   7   9 4643.51 945.782   3
  -7  14   9 4411.96 801.097   3
   7 -14   9 4747.54 864.724   1
  14  -7   9 4618.26 704.895   1
 -14   8 -10 648.429 480.882   4
 -14   8  -7 4371.50 676.429   2
 -14   8  -7 4302.42 609.853   4
  -8  14  -7 4460.41 343.758   4
  -8  14  -4 5427.45 271.143   2
 -14   8  -4 6551.35 746.008   1
   6 -14  -4 6296.62 522.203   1
 -14   8  -4 5451.40 602.058   2
   8   6  -4 6178.70 535.646   2
  -8  14  -4 6119.13 496.260   4
  -6  -8  -4 6578.29 386.621   1
   8   6  -4 5480.10 449.869   4
  -6  -8  -4 5988.65 383.510   1
  14  -6  -4 6430.11 630.423   4
 -14   8  -4 6829.48 664.697   4
 -14   8  -1 38409.7 1385.07   4
   8   6  -1 34869.6 1136.13   3
  14  -6  -1 35402.3 1308.32   4
  -8  14  -1 34946.3 935.846   2
  14  -6  -1 37994.8 1398.11   2
   6 -14  -1 39396.8 1389.22   1
   8   6  -1 38873.8 1303.94   4
  -6  -8  -1 36502.0 1227.67   1
   8   6  -1 37159.0 1186.60   2
 -14   8  -1 36016.4 1313.43   2
  -8  14  -1 34770.0 1279.98   4
  -6  -8  -1 39238.6 1500.76   4
 -14   8  -1 35422.5 1457.51   1
  -8  14  -1 34935.4 1429.23   1
  -6  -8  -1 34432.1 1295.61   3
   6 -14  -1 34251.8 1305.84   3
  -6  -8  -1 36069.1 1320.74   2
  -8  14   2 755.319 375.274   1
   8   6   2 1935.34 427.143   3
 -14   8   2 1264.74 340.808   4
 -14   8   2 1328.33 451.321   1
  -6  -8   2 744.793 300.014   3
  14  -6   2 1645.91 398.058   4
   6 -14   2 1308.59 385.412   3
  14  -6   2 1455.00 393.597   2
   6 -14   2 1302.10 484.942   1
  -6  -8   2 1639.30 466.524   1
  -8  14   2 1017.46 296.957   3
 -14   8   2 1099.34 369.363   2
  -6  -8   2 1657.20 361.928   4
  14  -6   2 1858.39 1001.37   3
  14  -6   2 1891.85 432.320   1
  -6  -8   2 1155.49 279.432   2
   8   6   2 1262.43 396.133   2
  14  -6   5 21358.6 1178.59   1
 -14   8   5 21317.5 1105.11   4
  -8  14   5 20358.1 922.090   1
 -14   8   5 21567.4 834.868   3
  -6  -8   5 21482.1 846.698   2
  -6  -8   5 18687.7 1250.88   1
   8   6   5 20134.7 1259.68   3
   6 -14   5 21200.6 1319.11   1
 -14   8   5 20753.9 1272.14   2
  -8  14   5 19499.0 1131.28   3
  14  -6   8 2313.40 512.000   1
   6 -14   8 1219.25 221.911   2
 -14   8   8 2753.70 485.550   4
  -6  -8   8 2211.91 639.024   1
   6 -14   8 1892.39 657.919   1
 -14   8   8 2485.93 661.127   2
  14  -6   8 2062.40 930.357   3
  -6  -8   8 2197.10 419.107   2
 -14   8   8 2356.06 497.161   3
   8   6   8 2471.62 786.184   3
  -8  14   8 2217.81 651.213   3
   8   6  11 5517.88 1117.97   3
 -14   8  11 4722.24 925.290   2
  -8  14  11 4969.82 865.130   4
   6 -14  11 4003.82 868.204   1
  -6  -8  11 6333.98 1050.34   1
  14  -6  11 7022.94 1297.19   3
   6 -14  11 925.293 2023.66   3
  -6  -8  11 4860.58 2429.63   3
 -14   8  11 5959.39 904.015   3
 -14   8  11 5592.82 829.598   1
  -8  14  11 5994.79 1063.86   3
 -14   9  -8 10122.6 876.161   4
  -9  14  -8 7725.48 463.020   4
  14  -5  -5 17924.8 1002.02   4
   9   5  -5 17814.7 950.535   2
   9   5  -5 17548.6 743.063   4
  -9  14  -5 17725.1 791.075   4
 -14   9  -5 17653.8 1020.72   4
 -14   9  -5 16878.5 1030.30   2
  14  -5  -2 22578.5 1118.96   2
   9   5  -2 24061.2 990.203   4
   5 -14  -2 22699.8 1008.82   1
   9   5  -2 21898.1 893.879   3
  -9  14  -2 22519.7 1008.99   4
  14  -5  -2 24445.9 1106.41   4
  -5  -9  -2 22255.8 1136.04   2
 -14   9  -2 22738.7 1035.89   2
 -14   9  -2 23362.7 1105.32   4
  -9  14  -2 21778.1 683.279   2
 -14   9  -2 22334.9 1193.99   1
  -5  -9  -2 20681.9 1195.69   4
   9   5  -2 23507.7 968.388   2
  -5  -9  -2 23722.3 921.825   1
  -5  -9  -2 22681.9 1148.22   3
   5 -14  -2 23181.8 1134.65   3
  -9  14   1 44692.3 1560.03   4
 -14   9   1 41847.0 1618.15   1
  -9  14   1 45584.5 1416.79   3
 -14   9   1 43440.2 1486.09   2
  -9  14   1 44617.0 1378.97   2
  -5  -9   1 41716.4 1378.04   3
  -5  -9   1 36808.4 1426.01   1
 -14   9   1 44887.5 1543.55   4
   5 -14   1 42192.5 1571.20   1
  -9  14   1 40339.2 1458.17   1
   9   5   1 45909.5 1559.41   4
  14  -5   1 42781.2 1466.21   4
  14  -5   1 46548.8 1499.97   2
   5 -14   1 44989.4 1536.42   3
  14  -5   1 41890.2 1122.48   3
   9   5   1 45655.8 1483.33   2
  -5  -9   1 43832.8 1250.64   2
   9   5   1 42978.9 1334.81   3
  -5  -9   1 41704.4 1416.33   4
  -5  -9   4 3987.68 631.000   1
   5 -14   4 3508.55 588.478   1
 -14   9   4 4129.95 604.449   2
  -9  14   4 5084.00 557.366   1
  -5  -9   4 4315.98 382.579   2
 -14   9   4 3975.89 517.914   4
 -14   9   4 4000.48 341.051   3
  14  -5   4 3081.82 1042.38   3
  -9  14   4 3888.56 527.355   3
  14  -5   4 4944.20 606.783   1
   9   5   4 2844.91 536.814   3
 -14   9   7 13511.9 1168.60   2
  14  -5   7 12653.7 941.478   1
  -5  -9   7 13867.7 742.628   2
  -9  14   7 12473.4 773.557   1
 -14   9   7 12014.2 899.304   4
  -5  -9   7 12907.3 1167.21   1
   9   5   7 11976.3 1181.59   3
   5 -14   7 10913.8 1104.30   1
 -14   9   7 11780.8 840.127   3
  -9  14   7 11647.6 996.283   3
 -14   9  10 1913.24 586.698   1
  -9  14  10 3799.65 757.995   4
   5 -14  10 2430.26 713.944   1
  14  -5  10 2957.12 614.725   1
 -14   9  10 1942.53 496.380   4
  -5  -9  10 2522.89 761.403   1
 -14   9  10 923.913 598.776   2
  -5  -9  10 1855.96 475.044   2
  14  -5  10 3572.37 971.951   3
 -14   9  10 3759.87 755.408   3
   9   5  10 2260.93 848.177   3
  -9  14  10 2426.16 715.351   3
 -14  10  -9 6820.72 733.620   4
  10   4  -6 339.717 215.635   4
 -10  14  -6 289.376 223.864   4
 -14  10  -6 486.605 330.370   4
 -14  10  -6 938.432 374.672   2
   4 -14  -3 7734.24 570.765   1
 -14  10  -3 7794.89 685.258   4
  10   4  -3 8182.31 589.218   4
  -4 -10  -3 8727.10 511.235   1
  10   4  -3 7976.91 626.462   2
  14  -4  -3 8403.56 695.666   4
 -10  14  -3 7540.73 608.155   4
 -10  14  -3 7042.68 424.756   2
 -14  10  -3 7704.23 638.006   2
   4 -14   0 3536.58 520.967   3
  10   4   0 3166.41 400.178   3
  -4 -10   0 3303.09 429.360   2
  14  -4   0 3770.35 491.962   4
 -10  14   0 2822.36 416.739   3
 -14  10   0 3397.90 461.240   2
 -10  14   0 2843.91 458.676   4
 -10  14   0 3951.65 426.480   2
 -14  10   0 3465.25 511.293   4
  10   4   0 4228.82 504.366   2
 -14  10   0 2048.37 490.502   1
 -10  14   0 3257.75 531.588   1
  14  -4   0 3511.51 488.330   2
   4 -14   0 4442.00 560.170   1
  14  -4   0 3753.54 274.869   3
  10   4   0 3986.15 514.329   4
  -4 -10   0 3157.70 454.921   1
  -4 -10   0 2912.58 448.973   3
 -10  14   3 17964.7 926.846   3
 -10  14   3 16258.1 951.139   1
 -14  10   3 18022.8 612.523   3
   4 -14   3 18435.9 1150.27   1
 -10  14   3 17907.2 1077.29   4
  -4 -10   3 18698.1 1173.38   1
 -10  14   3 16955.0 1031.96   2
  -4 -10   3 18175.8 1008.16   3
 -14  10   3 18066.2 1144.01   1
 -14  10   3 18594.4 1042.71   4
  -4 -10   3 18185.2 683.030   2
  14  -4   3 18752.1 1039.70   1
 -14  10   3 19636.0 1130.54   2
  14  -4   3 19336.3 1043.84   3
  10   4   3 19320.7 1056.71   3
 -10  14   6 1256.48 421.845   3
   4 -14   6 2218.69 607.151   1
 -14  10   6 1096.17 475.606   2
 -10  14   6 2090.03 436.398   1
 -14  10   6 2421.00 491.561   4
 -10  14   6 1875.06 506.066   4
  14  -4   6 2548.16 472.077   1
  -4 -10   6 1909.68 579.502   1
  14  -4   6 2313.49 639.408   3
  10   4   6 1762.07 536.763   3
  -4 -10   6 1861.54 280.655   2
 -14  10   6 1682.69 359.507   3
 -14  10   9 5064.97 907.912   2
  14  -4   9 4967.88 1036.83   3
  14  -4   9 3275.44 541.645   1
 -10  14   9 4597.90 533.539   1
 -14  10   9 5151.50 705.019   4
 -10  14   9 4896.43 820.512   3
  -4 -10   9 3504.14 496.306   2
  10   4   9 5585.07 1032.53   3
   4 -14   9 4999.71 875.801   1
 -10  14   9 4485.56 733.933   4
 -14  10   9 5587.69 749.964   3
  -4 -10   9 5632.91 903.791   1
 -14  11  -7 8139.56 782.362   2
 -11  14  -7 8888.75 617.539   4
 -14  11  -7 8355.70 748.071   4
  11   3  -4 5350.22 581.168   2
 -11  14  -4 4425.90 493.284   4
  11   3  -4 5668.63 515.761   4
 -11  14  -4 4752.65 403.515   2
   3 -14  -4 4771.81 422.902   1
 -14  11  -4 4345.03 509.245   2
  -3 -11  -4 4697.72 325.100   1
 -14  11  -4 4444.17 572.080   4
  14  -3  -4 4692.91 514.012   4
  -3 -11  -1 1287.70 354.318   3
 -14  11  -1 854.409 351.389   4
 -14  11  -1 596.884 443.637   1
  14  -3  -1 1517.56 376.866   4
  11   3  -1 709.200 246.013   3
  11   3  -1 1517.38 365.390   2
  14  -3  -1 1350.99 366.707   2
 -11  14  -1 1222.28 349.020   4
 -11  14  -1 1028.84 448.866   1
  11   3  -1 1578.75 344.165   4
 -11  14  -1 1457.00 283.843   2
   3 -14  -1 1176.51 365.994   3
 -14  11  -1 1143.61 335.902   2
  -3 -11  -1 972.729 308.910   1
   3 -14  -1 1963.37 405.393   1
  -3 -11   2 1929.49 447.227   3
 -14  11   2 1218.46 412.703   1
   3 -14   2 870.574 391.882   1
 -14  11   2 1366.33 225.964   3
 -14  11   2 1262.88 407.171   2
 -11  14   2 1461.62 341.755   3
 -14  11   2 1852.18 399.140   4
  -3 -11   2 1477.13 264.645   2
 -11  14   2 1653.86 423.801   2
 -11  14   2 1576.17 386.790   4
  -3 -11   2 1662.22 465.972   1
  14  -3   2 1559.03 347.447   3
  11   3   2 2157.54 417.319   3
 -11  14   2 1565.08 458.445   1
  14  -3   5 5396.47 608.920   1
 -11  14   5 5400.89 733.277   2
 -11  14   5 4382.06 651.504   4
 -14  11   5 5102.95 709.261   2
 -14  11   5 5138.97 612.189   4
 -11  14   5 5135.72 605.425   1
  -3 -11   5 5585.74 760.626   1
  14  -3   5 4714.92 677.721   3
   3 -14   5 6040.63 791.044   1
  11   3   5 4129.07 663.592   3
 -14  11   5 5088.10 491.587   3
  -3 -11   5 4063.70 313.316   2
 -11  14   5 4397.05 572.466   3
 -11  14   8 1154.05 491.729   4
   3 -14   8 516.222 609.317   1
  14  -3   8 1027.59 601.536   3
 -14  11   8 958.435 448.387   4
  -3 -11   8 998.153 288.731   2
 -11  14   8 1484.67 615.645   2
 -14  11   8 1273.55 567.853   2
  -3 -11   8 1260.81 598.245   1
  14  -3   8 948.558 381.563   1
  11   3   8 625.494 536.354   3
 -14  11   8 681.962 407.711   3
 -11  14   8 1888.63 558.806   3
  -3 -11  11 207.999 683.771   1
 -11  14  11-94.2951 632.376   2
  -3 -11  11-1781.00 1799.45   3
 -11  14  11 114.231 460.364   4
   3 -14  11-378.606 664.283   1
 -14  11  11 749.878 603.723   2
  14  -3  11 490.052 756.569   3
  11   3  11 1453.80 775.312   3
 -14  11  11 283.762 548.094   3
 -11  14  11 2431.04 772.689   3
 -12  14  -8 12671.8 756.118   4
 -14  12  -8 13964.5 930.982   4
  14  -2  -5 28789.3 1200.46   4
  12   2  -5 30193.7 1105.61   4
 -14  12  -5 28889.9 1212.73   2
 -12  14  -5 30606.1 1175.90   4
 -14  12  -5 31501.8 1310.82   4
 -12  14  -5 31066.0 1057.80   2
  14  -2  -2 28690.2 1191.46   4
 -14  12  -2 27242.3 1243.88   4
  12   2  -2 29464.4 1158.54   4
  12   2  -2 30784.6 1247.11   2
 -12  14  -2 28456.0 968.974   2
 -14  12  -2 29228.3 1126.60   2
  -2 -12  -2 29763.9 1071.39   1
 -12  14  -2 26637.8 1166.14   4
   2 -14  -2 30112.0 1111.92   1
  -2 -12   1 34748.0 1073.06   2
 -12  14   1 36509.3 1190.41   3
 -12  14   1 37162.6 1331.80   2
  -2 -12   1 35280.4 1382.18   3
 -14  12   1 37658.1 1452.80   4
  -2 -12   1 36995.6 1473.64   1
 -12  14   1 34691.4 1494.89   1
 -14  12   1 35731.7 1379.40   2
 -14  12   1 33503.8 1485.82   1
   2 -14   1 30740.5 1356.89   1
 -12  14   1 36724.4 1459.13   4
  14  -2   1 34744.2 1038.02   3
  12   2   1 36316.3 1158.70   3
   2 -14   4 7694.18 852.517   1
 -12  14   4 8044.90 810.186   2
 -12  14   4 7121.72 744.824   4
 -14  12   4 6567.63 511.814   3
 -14  12   4 7378.33 802.435   2
 -14  12   4 7220.29 730.411   4
 -12  14   4 7488.19 735.933   1
  -2 -12   4 7745.90 858.389   1
  14  -2   4 8246.01 774.983   3
  12   2   4 7851.40 769.610   3
  -2 -12   4 6690.02 329.497   2
 -12  14   4 7718.85 643.959   3
 -12  14   7 13235.3 1003.51   3
 -12  14   7 12802.2 1193.73   2
 -12  14   7 13701.7 1080.93   4
  14  -2   7 13703.7 866.201   1
 -14  12   7 12937.5 908.532   3
  -2 -12   7 13431.3 1233.22   1
 -14  12   7 12861.8 1020.86   4
 -14  12   7 11643.2 1137.13   2
   2 -14   7 13352.0 1188.98   1
 -12  14   7 11137.9 907.036   1
  14  -2   7 13808.6 1255.98   3
  12   2   7 14018.8 1261.29   3
  -2 -12   7 9136.62 458.612   2
 -12  14  10 3179.11 732.935   4
   2 -14  10 3211.12 867.302   1
 -12  14  10 5269.14 991.532   2
 -14  12  10 3713.17 693.957   4
  -2 -12  10 5795.17 991.968   1
 -14  12  10 3197.20 839.763   2
 -14  12  10 5831.20 804.747   1
  14  -2  10 4403.28 1066.05   3
  12   2  10 4182.44 1015.18   3
 -14  12  10 4726.15 805.451   3
 -12  14  10 5896.97 927.462   3
 -13  14  -9 1706.25 389.908   4
 -14  13  -9 1941.97 457.351   4
 -14  13  -6 68.4546 312.112   2
 -13  14  -6 642.234 334.470   2
  13   1  -6 501.333 287.513   4
 -14  13  -6 745.275 341.906   4
  14  -1  -6 703.695 323.466   4
 -13  14  -6 72.1570 269.051   4
   1 -14  -3 3370.56 407.382   1
  14  -1  -3 3173.02 475.170   4
 -14  13  -3 2822.95 467.581   4
  13   1  -3 3823.88 486.994   4
 -13  14  -3 3433.17 402.039   2
 -14  13  -3 3876.47 458.215   2
 -13  14  -3 3082.47 472.594   4
  -1 -13  -3 3936.95 406.168   1
 -13  14   0 3089.94 443.193   2
 -13  14   0 3317.92 508.404   4
 -14  13   0 3005.18 451.825   2
 -14  13   0 3048.42 504.409   4
  -1 -13   0 4385.53 562.968   1
   1 -14   0 3353.18 501.045   1
  14  -1   0 3932.02 346.142   3
  13   1   0 3334.34 356.597   3
 -13  14   3 2729.34 400.449   3
  13   1   3 2899.28 487.050   3
  14  -1   3 3275.62 502.103   3
 -14  13   3 2847.88 358.626   3
 -13  14   3 3059.40 545.484   2
 -14  13   3 2857.65 532.752   2
  -1 -13   3 3183.63 613.822   1
 -14  13   3 3726.98 570.112   4
 -13  14   3 2806.24 546.592   1
   1 -14   3 3360.88 604.171   1
 -13  14   3 3483.75 552.668   4
 -14  13   6 1582.47 421.385   3
 -13  14   6 1304.77 433.618   3
  14  -1   6 956.235 521.194   3
 -13  14   6-211.493 355.896   4
  13   1   6 821.047 516.781   3
 -14  13   6 1832.25 501.243   4
 -13  14   6 737.025 479.060   2
  -1 -13   6 842.300 511.156   1
 -14  13   6 1171.79 519.502   2
   1 -14   6 1105.33 542.987   1
  -1 -13   9 3808.00 829.960   1
 -14  13   9 3725.57 681.288   4
 -14  13   9 3146.01 765.953   2
   1 -14   9 4283.60 853.853   1
 -13  14   9 3113.23 662.999   4
 -13  14   9 2504.81 721.733   2
  14  -1   9 3472.48 884.158   3
  13   1   9 4404.24 954.719   3
 -14  13   9 4655.53 769.956   3
 -13  14   9 3997.56 740.568   3
 -14  14  -7-316.942 323.548   4
   0 -14  -4 741.709 231.139   1
  14   0  -4 626.316 335.306   4
 -14  14  -4 1142.37 376.126   4
 -14  14  -4 990.586 303.069   2
   0 -14  -1 309.458 290.777   1
  14   0  -1-27.1757 156.852   3
 -14  14  -1-98.1466 303.297   4
 -14  14  -1-93.5632 247.658   2
 -14  14   2 1913.51 310.249   3
 -14  14   2 2129.57 475.527   4
 -14  14   2 2044.97 420.857   2
   0 -14   2 2467.90 581.983   1
  14   0   2 2077.99 397.690   3
 -14  14   5 130.923 379.679   4
 -14  14   5 30.0889 450.037   2
 -14  14   5 294.370 281.051   3
  14   0   5-359.393 429.693   3
   0 -14   5 292.273 467.481   1
   0 -14   8 701.297 585.781   1
 -14  14   8 526.224 558.359   2
  14   0   8-5.43291 517.695   3
 -14  14   8 439.439 425.093   3
 -14  14   8 751.158 451.086   4
 -14  14  11-520.463 690.762   2
   0 -14  11 1392.58 752.011   1
 -14  14  11-596.913 524.099   4
  14   0  11-16.5409 697.868   3
 -14  14  11-430.111 568.167   3
 -15   0  -9 373.789 563.680   4
   0  15  -6 775.516 170.514   4
 -15   0  -6 1380.42 433.429   1
 -15   0  -6 1762.37 571.462   2
   0  15  -6 585.481 176.402   4
 -15   0  -6 1809.74 530.868   4
 -15   0  -3 8.19999 363.998   2
  15 -15  -3 189.021 346.688   1
  15 -15  -3 2.61752 250.215   3
   0  15  -3 5.19609 76.7157   2
 -15   0  -3 11.2551 354.547   1
 -15   0  -3-48.0320 352.592   4
   0  15  -3-158.493 273.108   4
  15 -15   0 11226.4 999.620   1
   0  15   0 11636.5 909.059   3
  15 -15   0 11862.7 732.508   3
   0  15   0 10209.1 843.421   1
  15 -15   0 11154.4 797.750   2
 -15   0   0 9823.47 839.988   4
 -15   0   0 10756.8 859.746   2
 -15   0   0 11180.4 636.997   3
   0  15   0 9260.11 659.912   2
   0  15   3-126.317 258.353   1
 -15   0   3-74.0872 151.342   3
   0  15   3 61.9177 376.876   3
  15 -15   3 371.601 277.465   2
 -15   0   3-223.740 279.662   4
 -15   0   3 225.454 364.729   2
  15 -15   3-138.110 394.792   1
  15 -15   6 2092.02 427.707   2
   0  15   6 3539.63 712.685   3
  15 -15   6 2219.24 656.590   1
 -15   0   6 2796.12 490.245   4
 -15   0   6 3055.73 588.920   2
 -15   0   6 2446.07 414.422   3
  15 -15   9-184.923 505.359   1
 -15   0   9 483.714 630.570   1
 -15   0   9 343.590 432.733   2
 -15   0   9-84.2698 775.398   3
   0  15   9 753.932 599.987   3
 -14  -1  -7 22340.2 1562.92   2
 -15   1  -7 18405.3 1443.06   2
 -15   1  -7 19795.7 1395.70   4
 -14  -1  -7 19237.1 1419.85   4
 -14  -1  -7 16064.5 861.086   1
 -15   1  -7 15289.7 955.703   1
 -15   1  -4 21520.2 1162.42   1
 -15   1  -4 22878.8 1371.21   4
   1  14  -4 22008.7 948.604   4
 -14  -1  -4 22916.2 1401.56   4
  -1  15  -4 22016.0 964.038   4
  15 -14  -4 23617.2 1024.40   3
  14 -15  -4 23277.4 1090.06   3
 -14  -1  -4 23148.3 1125.09   1
 -15   1  -4 26551.8 1439.11   2
 -14  -1  -4 22623.5 1379.00   2
   1  14  -1 31485.5 1404.81   3
  -1  15  -1 34161.5 1484.21   3
  14 -15  -1 33443.9 1570.75   1
   1  14  -1 33956.5 1046.06   2
  15 -14  -1 36625.1 1650.46   1
 -15   1  -1 32227.8 1469.53   4
 -14  -1  -1 33353.0 1498.60   4
   1  14  -1 32403.0 1404.17   4
 -15   1  -1 36133.3 1522.24   2
 -14  -1  -1 33842.4 1469.46   1
  -1  15  -1 32354.6 1388.18   4
 -14  -1  -1 35461.1 1244.81   3
 -14  -1  -1 34648.9 1506.14   2
  -1  15  -1 31546.7 968.873   2
  14 -15  -1 30320.0 1122.25   3
  15 -14  -1 31630.2 1050.56   3
   1  14   2 13333.3 984.708   3
  -1  15   2 12681.2 971.837   3
 -15   1   2 11818.7 433.181   3
  15 -14   2 12246.4 804.229   2
  14 -15   2 12088.5 838.563   3
  15 -14   2 11872.9 821.075   3
   1  14   2 12323.2 759.466   1
  -1  15   2 11591.0 767.306   1
 -14  -1   2 13971.6 914.801   4
 -15   1   2 13842.4 944.703   2
 -14  -1   2 12412.6 868.329   2
  14 -15   2 14068.0 1097.98   1
  -1  15   2 11686.9 854.308   2
  14 -15   2 12194.2 756.974   2
  15 -14   2 11748.7 1010.68   1
 -14  -1   2 12182.3 562.884   3
 -15   1   2 11066.3 840.597   4
 -14  -1   5 30279.8 1063.56   3
  15 -14   5 26764.3 1561.10   1
 -15   1   5 32245.2 987.939   3
  15 -14   5 25702.9 1107.66   2
  14 -15   5 28483.0 1638.23   1
  -1  15   5 27725.7 1541.06   3
 -14  -1   5 29799.1 1407.49   2
  14 -15   5 27071.8 1051.84   2
 -15   1   5 29390.8 1453.28   2
 -15   1   5 30434.2 1275.68   4
 -14  -1   5 28695.3 1235.08   4
   1  14   5 28460.9 1560.96   3
   1  14   8 3351.81 803.440   3
 -14  -1   8 2954.81 436.411   4
  -1  15   8 3294.96 762.766   3
  15 -14   8 2311.33 703.552   1
 -14  -1   8-87.3202 1297.46   3
 -15   1   8 3911.58 757.099   1
 -15   1   8 2871.93 465.087   4
 -15   1   8 2569.75 618.439   2
  14 -15   8 2906.55 728.525   1
  15 -14   8-791.096 1724.32   3
 -14  -1   8 2586.43 719.782   1
 -15   1   8-104.505 732.463   3
 -14  -1   8 2673.50 638.820   2
  14 -15  11 5278.03 1008.37   1
 -14  -1  11 7895.59 1035.87   2
  -1  15  11 9866.19 1424.12   3
 -15   1  11 9380.48 1229.33   1
 -14  -1  11 9943.02 1235.59   1
 -15   1  11 7714.52 1065.05   2
 -14  -1  11 9474.99 1264.60   3
  15 -14  11 6209.55 1069.38   1
 -15   1  11 7460.76 1025.97   3
  15 -14  11 2313.81 2397.27   3
   1  14  11 8803.33 1297.10   3
 -15   2  -8 667.631 525.822   4
 -13  -2  -8 666.024 539.050   4
 -15   2  -5 192.544 410.868   2
 -13  -2  -5 1143.41 490.652   2
 -15   2  -5 659.117 396.701   1
  -2  15  -5 686.307 221.249   4
   2  13  -5 821.615 233.224   4
 -15   2  -5 955.438 427.135   4
 -13  -2  -5 1028.54 480.330   4
  -2  15  -5 932.351 269.102   4
 -13  -2  -5 909.222 336.534   1
  15 -13  -5 191.448 760.086   3
 -13  -2  -2 3251.70 525.207   3
 -13  -2  -2 2673.12 524.782   4
  13 -15  -2 3232.70 444.264   3
   2  13  -2 3084.34 525.870   3
  15 -13  -2 4070.78 612.274   1
  -2  15  -2 3321.65 548.291   3
 -15   2  -2 3926.33 579.964   4
 -13  -2  -2 3647.41 549.162   1
 -15   2  -2 3409.00 564.638   1
   2  13  -2 3944.09 342.251   2
   2  13  -2 3140.04 465.171   4
  -2  15  -2 2634.08 235.166   2
 -13  -2  -2 3957.66 592.213   2
 -15   2  -2 3782.23 568.627   2
  15 -13  -2 3927.69 393.708   3
  13 -15  -2 3637.99 586.840   1
 -13  -2   1 749.242 360.538   4
 -13  -2   1 918.816 360.514   2
   2  13   1 995.432 307.062   2
   2  13   1 1427.05 435.637   3
  -2  15   1 989.696 385.929   3
  -2  15   1 1156.94 345.123   2
   2  13   1 1532.02 385.980   1
  15 -13   1 1219.02 336.757   3
  13 -15   1 1043.97 326.047   3
  13 -15   1 788.525 300.165   2
  -2  15   1 1223.35 353.936   1
  15 -13   1 1124.85 453.368   1
 -15   2   1 536.502 314.977   4
 -15   2   1 1089.59 385.189   2
 -15   2   1 64.5420 257.408   3
  15 -13   1 1273.66 353.908   2
 -13  -2   1 932.430 234.346   3
  13 -15   1 764.586 436.330   1
   2  13   4 361.817 367.688   3
 -15   2   4 433.894 153.785   3
  13 -15   4 920.522 357.721   4
 -13  -2   4 588.419 278.945   3
  15 -13   4 1168.45 503.636   1
  13 -15   4 484.949 243.277   2
  13 -15   4 44.5762 434.793   1
  -2  15   4 440.138 246.476   1
 -13  -2   4 350.832 286.952   4
  -2  15   4 12.6927 366.317   3
 -15   2   4 218.415 301.350   4
  15 -13   4 439.485 293.454   2
 -15   2   4 744.852 376.380   2
 -13  -2   4 778.573 330.292   2
 -15   2   4 532.534 540.660   3
 -13  -2   7 6302.62 886.965   1
  13 -15   7 5290.80 602.543   4
 -13  -2   7 7039.22 784.498   2
  13 -15   7 5830.33 892.725   1
 -15   2   7 6088.73 610.279   4
   2  13   7 6539.63 913.167   3
 -13  -2   7 5709.52 526.352   4
  13 -15   7 4819.09 510.623   2
  15 -13   7 5409.97 820.796   1
 -15   2   7 7207.22 861.303   3
 -15   2   7 5230.24 744.112   2
  -2  15   7 6018.80 909.522   3
  13 -15  10 848.730 656.247   1
  -2  15  10 536.228 630.474   3
 -13  -2  10 1651.64 692.028   1
  15 -13  10-177.848 594.797   1
 -15   2  10 1452.07 639.785   1
  13 -15  10 904.857 1987.01   3
 -15   2  10-101.467 485.906   2
  15 -13  10 1313.58 2506.30   3
 -13  -2  10 231.625 1481.93   3
 -15   2  10 263.279 529.709   3
 -13  -2  10 928.754 535.770   2
   2  13  10 1072.53 727.119   3
 -15   3  -9 1577.77 586.623   4
 -15   3  -6 4660.06 720.801   2
 -15   3  -6 4187.13 591.753   1
 -12  -3  -6 4487.34 455.267   1
  -3  15  -6 3142.34 285.646   4
   3  12  -6 2422.47 196.930   4
  -3  15  -6 2582.30 246.249   4
 -15   3  -6 3685.44 661.497   4
 -12  -3  -6 3025.71 729.247   2
 -12  -3  -6 4130.37 721.238   4
   3  12  -3 5295.25 361.081   2
   3  12  -3 4964.67 510.832   4
 -12  -3  -3 6577.70 603.662   1
 -12  -3  -3 4415.87 673.814   4
 -15   3  -3 5616.47 669.455   2
  12 -15  -3 6141.39 698.515   1
  15 -12  -3 4834.35 416.769   3
 -15   3  -3 5420.36 702.177   4
  12 -15  -3 5005.41 549.871   3
 -12  -3  -3 5148.28 652.360   2
 -15   3  -3 4800.25 610.688   1
  -3  15   0 3733.43 419.555   2
  12 -15   0 3851.00 476.480   3
  15 -12   0 3419.70 378.379   3
  -3  15   0 3355.00 523.315   3
 -12  -3   0 3821.90 536.029   2
 -12  -3   0 3782.40 544.472   4
  15 -12   0 4100.71 532.781   2
  12 -15   0 3961.17 610.772   1
  -3  15   0 3767.37 539.567   1
 -15   3   0 4416.80 571.436   4
  15 -12   0 5242.11 685.745   1
   3  12   0 4314.60 564.772   3
   3  12   0 3599.68 536.329   4
   3  12   0 4625.09 480.245   2
 -12  -3   0 3970.11 441.479   3
 -15   3   0 4828.05 594.440   2
 -12  -3   3 6037.15 489.846   3
 -15   3   3 5018.35 595.832   2
 -15   3   3 4738.60 581.724   4
 -12  -3   3 4373.01 544.115   2
  12 -15   3 5733.07 461.798   2
  12 -15   3 5240.38 738.587   1
  -3  15   3 4524.42 472.746   1
 -12  -3   3 4967.94 542.381   4
  15 -12   3 5277.21 726.198   1
   3  12   3 6624.46 755.007   3
  15 -12   3 4448.32 523.911   2
  -3  15   3 5704.43 694.541   3
  -3  15   6 2531.26 582.926   3
   3  12   6 2299.15 653.815   3
  15 -12   6 3428.35 672.974   1
 -12  -3   6 3604.58 555.124   3
 -15   3   6 3623.39 649.908   2
  12 -15   6 3626.17 725.035   1
 -12  -3   6 3416.94 550.976   2
  12 -15   6 2720.91 352.892   2
 -12  -3   6 3293.63 658.400   1
 -15   3   6 3247.76 491.383   4
 -15   3   6 3155.55 482.885   3
 -12  -3   6 3198.73 420.628   4
 -15   3   9 230.837 478.716   2
  15 -12   9 384.046 520.853   1
 -15   3   9 58.0745 285.415   4
 -12  -3   9 732.806 460.607   2
 -12  -3   9 371.779 511.018   1
 -12  -3   9 1402.04 1864.49   3
 -15   3   9-409.942 439.313   3
  12 -15   9-622.779 580.717   1
 -15   3   9 407.306 484.025   1
   3  12   9 964.539 684.488   3
  -3  15   9 499.588 584.156   3
 -15   4 -10 5987.65 885.008   4
 -15   4  -7 14704.1 1215.41   2
 -11  -4  -7 16354.7 1289.59   4
 -15   4  -7 16220.4 1229.38   4
 -11  -4  -7 13437.2 494.839   1
 -15   4  -7 11681.8 932.483   1
 -11  -4  -4 18578.1 882.063   1
  11 -15  -4 21062.6 1085.14   1
  -4  15  -4 17549.1 801.965   4
 -11  -4  -4 19830.2 1277.07   4
   4  11  -4 17428.9 779.266   4
 -15   4  -4 18470.4 1098.13   1
 -15   4  -4 20282.0 1194.38   4
   4  11  -4 18913.9 686.053   2
 -11  -4  -4 15102.4 1110.39   2
  11 -15  -4 16829.3 1015.35   3
 -15   4  -4 19453.5 1203.41   2
  -4  15  -1 33559.7 929.175   2
   4  11  -1 34987.9 1375.88   3
 -15   4  -1 34855.9 1444.87   2
  -4  15  -1 35208.6 1433.54   3
  15 -11  -1 36183.1 1582.03   1
 -11  -4  -1 34155.6 1231.27   3
  -4  15  -1 34714.7 1459.95   1
   4  11  -1 33624.9 1079.45   2
 -11  -4  -1 34874.2 1490.30   4
   4  11  -1 33039.3 1315.72   4
 -15   4  -1 33944.1 1486.85   1
 -11  -4  -1 37543.2 1479.78   2
  15 -11  -1 34687.4 843.470   3
  11 -15  -1 33690.2 1239.09   3
  15 -11   2 14066.3 860.066   2
  15 -11   2 14961.1 1074.19   1
  11 -15   2 12201.7 846.606   3
 -15   4   2 14224.9 918.681   2
  -4  15   2 13018.6 904.033   3
 -11  -4   2 13210.2 841.045   4
  11 -15   2 16377.5 1142.18   1
 -15   4   2 12736.1 849.403   4
 -11  -4   2 12544.6 794.884   2
  -4  15   2 12866.4 795.134   1
   4  11   2 13088.9 900.508   2
  11 -15   2 13207.2 650.896   2
 -11  -4   2 13486.1 703.878   3
   4  11   2 12916.1 930.874   3
 -11  -4   5 35729.5 1215.29   4
 -11  -4   5 35334.5 1750.92   1
   4  11   5 33234.5 1697.15   3
 -15   4   5 35376.7 1358.21   4
 -11  -4   5 34574.7 1299.41   3
  11 -15   5 34861.3 1738.38   1
 -15   4   5 34485.2 1568.85   2
  -4  15   5 33942.4 944.445   1
 -11  -4   5 32090.4 1290.31   2
  11 -15   5 33149.1 911.969   2
 -15   4   5 33607.2 956.122   3
  15 -11   5 34785.4 1682.59   1
  -4  15   5 33160.5 1597.79   3
 -15   4   8 3796.74 536.516   4
  11 -15   8 5646.99 901.032   1
 -11  -4   8 4815.14 920.708   1
 -15   4   8 4993.36 767.352   2
 -11  -4   8 4581.14 661.751   2
 -11  -4   8 3394.31 299.804   4
  15 -11   8 3520.60 755.832   1
 -15   4   8 3784.45 611.847   3
   4  11   8 5870.18 909.503   3
  -4  15   8 5740.68 906.041   3
  11 -15  11-300.787 2188.59   3
 -15   4  11 6975.10 1014.71   1
 -11  -4  11 5593.19 836.954   2
 -15   4  11 3898.68 893.085   2
 -11  -4  11 6873.42 1150.55   1
 -15   4  11 6099.32 877.124   3
 -11  -4  11-604.611 1754.34   3
  15 -11  11 4005.05 829.356   1
  15 -11  11 1557.07 1592.34   3
  11 -15  11 6068.76 1040.19   1
   4  11  11 6826.60 1287.67   3
  -4  15  11 6877.02 1162.72   3
 -15   5  -8 859.504 480.835   4
 -10  -5  -5 9374.54 959.220   2
 -15   5  -5 9287.01 862.787   4
 -10  -5  -5 7981.05 897.831   4
 -15   5  -5 7038.80 754.587   1
   5  10  -5 8238.15 473.734   4
  -5  15  -5 8071.15 505.377   4
 -10  -5  -5 8709.75 523.936   1
 -15   5  -5 8421.85 852.428   2
   5  10  -2 9835.36 571.087   2
 -10  -5  -2 10153.9 856.135   4
  -5  15  -2 9774.73 373.871   2
   5  10  -2 9178.03 733.768   3
  -5  15  -2 7558.36 310.600   2
 -15   5  -2 10741.2 833.837   4
 -15   5  -2 9955.13 818.942   2
  15 -10  -2 9445.77 383.061   3
   5  10  -2 10387.5 712.690   4
 -10  -5  -2 9971.54 761.319   3
 -15   5  -2 10362.2 855.801   1
  10 -15  -2 12468.5 887.109   1
 -10  -5  -2 10964.8 890.138   2
  10 -15  -2 9475.20 722.628   3
   5  10   1 19686.3 1042.15   3
 -15   5   1 19120.5 1053.26   2
  -5  15   1 20103.4 1069.10   3
  10 -15   1 19170.6 1015.26   3
 -10  -5   1 17718.2 996.028   4
  -5  15   1 18265.1 975.609   1
 -15   5   1 18885.1 1020.93   4
  15 -10   1 19700.6 1192.95   1
  15 -10   1 19556.7 998.278   2
 -10  -5   1 19662.0 994.023   2
   5  10   1 19492.0 991.275   2
  10 -15   1 20200.7 1190.43   1
 -10  -5   1 18060.6 834.342   3
 -10  -5   4 10207.0 710.075   3
  10 -15   4 9601.78 985.955   1
 -15   5   4 9635.58 360.290   3
  10 -15   4 8469.68 421.512   2
 -10  -5   4 9319.00 899.966   1
 -15   5   4 8873.52 737.214   4
   5  10   4 8665.50 868.086   3
 -15   5   4 10088.5 871.562   2
 -10  -5   4 9349.69 661.499   4
 -10  -5   4 8902.10 672.608   2
 -15   5   4 8579.98 350.671   3
  15 -10   4 8707.96 703.879   2
  -5  15   4 9000.08 609.477   1
  15 -10   4 10202.2 946.029   1
  -5  15   4 8532.60 789.911   3
 -15   5   7 1519.11 407.063   3
 -15   5   7 501.451 442.621   2
 -15   5   7 1583.38 388.500   4
  10 -15   7 1302.26 254.177   2
 -10  -5   7 1814.25 267.121   4
 -10  -5   7 2190.57 600.314   1
 -10  -5   7 1480.97 388.774   2
  10 -15   7 1652.43 611.778   1
  15 -10   7 1331.95 492.769   1
   5  10   7 1881.26 634.725   3
  -5  15   7 2283.13 618.823   3
 -15   5  10 941.006 574.378   2
 -15   5  10 1362.70 600.782   1
 -10  -5  10 952.568 474.335   2
 -10  -5  10 1794.33 743.058   1
  10 -15  10 790.579 624.923   1
 -10  -5  10-289.294 1602.07   3
  15 -10  10 2735.01 1854.13   3
  15 -10  10 801.894 607.352   1
 -15   5  10 1233.73 523.698   3
   5  10  10 1134.12 751.289   3
  -5  15  10 837.822 580.446   3
 -15   6  -9 705.654 457.962   4
 -15   6  -6 7174.75 822.276   2
  -6  15  -6 6314.13 395.311   4
 -15   6  -6 8026.83 830.091   4
  -9  -6  -6 7528.24 905.255   4
  -9  -6  -6 6703.09 290.605   1
   6   9  -6 6074.04 336.744   4
 -15   6  -3 4239.04 608.198   2
   9 -15  -3 4670.82 570.182   1
  -9  -6  -3 3813.27 579.243   2
  -6  15  -3 3042.45 408.963   4
   6   9  -3 3995.15 398.766   2
 -15   6  -3 3784.49 555.290   4
   6   9  -3 3370.31 411.616   4
 -15   6  -3 3384.73 553.224   1
  -9  -6  -3 2930.80 586.135   4
   9 -15  -3 3285.58 517.317   3
  -6  15   0 10596.5 800.680   3
  15  -9   0 10711.9 485.849   3
  -9  -6   0 10887.6 752.763   2
  15  -9   0 12349.8 944.508   1
 -15   6   0 10989.0 879.510   1
   9 -15   0 10743.7 856.178   1
  15  -9   0 10280.3 769.930   2
 -15   6   0 11086.1 815.211   4
  -9  -6   0 10854.2 842.157   4
 -15   6   0 11132.1 806.936   2
  -6  15   0 10532.5 810.222   1
   6   9   0 12162.1 736.760   2
   6   9   0 11346.6 774.781   3
   6   9   0 11058.9 804.820   4
  15  -9   0 11438.1 822.553   4
  -9  -6   0 11295.5 723.629   3
   9 -15   0 10451.8 762.690   3
  -9  -6   3 6546.91 573.915   3
  15  -9   3 5621.57 591.545   2
   9 -15   3 6396.13 775.076   1
  -9  -6   3 6794.26 592.233   4
  15  -9   3 6356.51 750.403   1
  -6  15   3 6508.46 568.833   1
  -9  -6   3 7032.18 758.592   1
 -15   6   3 5856.67 607.019   4
  -9  -6   3 6006.67 550.033   2
   6   9   3 6083.66 673.668   3
 -15   6   3 5519.14 673.089   2
  -6  15   3 5407.33 634.203   3
  -6  15   6 1800.47 499.130   3
 -15   6   6 2305.77 591.522   2
   9 -15   6 1351.21 176.340   2
 -15   6   6 2053.04 428.618   4
  -9  -6   6 4164.90 733.991   1
  -9  -6   6 2823.70 350.486   4
  -9  -6   6 2057.42 401.970   2
  15  -9   6 2701.12 587.623   1
  -6  15   6 2224.85 305.900   1
 -15   6   6 1874.12 348.490   3
   9 -15   6 2266.85 637.725   1
   6   9   6 2717.77 649.320   3
 -15   6   9 1245.74 413.986   4
  -9  -6   9 1681.08 468.331   2
 -15   6   9 1865.39 569.227   1
 -15   6   9 2034.98 665.194   2
   9 -15   9 2533.51 774.910   1
  -9  -6   9 2776.08 765.166   1
  15  -9   9-480.715 1444.62   3
 -15   6   9 2202.74 575.241   3
   6   9   9 1115.96 700.270   3
  15  -9   9 1710.91 586.280   1
  -6  15   9 1610.57 596.138   3
 -15   7 -10 3813.75 698.022   4
 -15   7  -7 9170.54 920.229   2
 -15   7  -7 10449.0 919.750   4
  -7  15  -7 7310.92 383.328   4
  -8  -7  -4 14378.9 1072.45   2
  -7  15  -4 13115.3 713.227   4
   7   8  -4 13293.7 712.701   2
   7   8  -4 13590.6 693.300   4
 -15   7  -4 14270.1 979.824   4
  -8  -7  -4 13948.7 654.546   1
  -8  -7  -4 13741.7 1081.06   4
   8 -15  -4 13024.9 788.685   1
  -8  -7  -4 14294.1 638.961   1
 -15   7  -4 13339.6 959.512   2
  -7  15  -1 56135.8 1825.75   1
  -8  -7  -1 59200.4 1685.99   3
   7   8  -1 58650.6 1614.13   3
  -7  15  -1 58904.6 1784.73   3
  15  -8  -1 59559.8 1798.03   4
  -8  -7  -1 62143.7 1942.63   4
 -15   7  -1 59937.6 1818.10   4
   8 -15  -1 55692.3 1683.67   3
   7   8  -1 58763.6 1662.05   4
   7   8  -1 61978.1 1520.73   2
   8 -15  -1 59549.1 1816.51   1
 -15   7  -1 58918.9 1763.91   2
  -7  15  -1 58027.4 1187.86   2
  -8  -7  -1 61656.2 1806.92   2
 -15   7  -1 61213.4 1980.72   1
  -7  15   2 7775.43 697.536   3
   8 -15   2 8215.17 825.008   1
  15  -8   2 7467.53 650.129   2
 -15   7   2 8090.18 702.745   2
  -8  -7   2 9511.29 842.420   1
  15  -8   2 8984.12 1308.66   3
  -8  -7   2 8288.72 626.592   3
 -15   7   2 9540.63 751.254   4
  -7  15   2 7988.00 675.487   1
  15  -8   2 8767.58 826.069   1
  -8  -7   2 8182.20 654.150   4
  -8  -7   2 8323.43 616.692   2
   7   8   2 9532.14 767.400   3
   7   8   2 9312.78 766.599   2
  15  -8   5 31347.8 1494.65   1
  -8  -7   5 25129.0 1461.87   1
  -7  15   5 26416.4 1000.29   1
 -15   7   5 29037.1 1299.23   4
  -7  15   5 27482.3 1401.34   3
 -15   7   5 28721.0 1461.37   2
  -8  -7   5 28344.7 1076.13   2
  -8  -7   5 27721.8 977.420   4
 -15   7   5 27724.5 859.993   3
   7   8   5 27565.6 1498.21   3
   8 -15   5 26298.1 1504.79   1
  -7  15   8 600.537 464.526   3
  -8  -7   8 411.164 331.759   2
  15  -8   8 684.208 470.176   1
  -8  -7   8 1057.69 584.663   1
   8 -15   8 1190.92 624.800   1
 -15   7   8 843.555 380.724   4
 -15   7   8 154.855 454.267   2
  15  -8   8-282.055 1281.09   3
 -15   7   8 300.039 381.930   3
   7   8   8 1005.67 667.038   3
   7   8  11 3358.43 1040.17   3
 -15   7  11 4179.11 809.193   1
  -8  -7  11 2304.15 832.034   1
   8 -15  11 4284.67 995.384   1
   8 -15  11 2682.67 2357.77   3
  15  -8  11 5702.47 1340.61   3
 -15   7  11 2023.12 726.415   2
 -15   7  11 3640.68 762.599   3
  -7  15  11 3611.45 884.827   3
 -15   8  -8 866.385 444.086   4
   8   7  -5 24888.3 853.449   4
   8   7  -5 24517.1 1053.89   2
  -8  15  -5 24011.0 922.277   4
 -15   8  -5 27224.3 1324.32   4
 -15   8  -5 26870.7 1341.67   2
  -7  -8  -5 24683.0 585.207   1
 -15   8  -2 9957.82 790.748   4
  15  -7  -2 8737.95 706.681   4
  -7  -8  -2 8927.09 789.850   2
   8   7  -2 9913.04 669.864   3
  -8  15  -2 8348.51 645.683   4
  -8  15  -2 7819.04 400.113   2
   8   7  -2 9954.06 635.949   2
   7 -15  -2 9675.25 738.087   1
   8   7  -2 10961.9 713.646   4
   7 -15  -2 7666.84 705.719   3
 -15   8  -2 8941.92 814.628   1
  -7  -8  -2 9946.86 863.812   4
 -15   8  -2 9431.06 751.312   2
  -7  -8  -2 9569.34 629.866   1
  -7  -8  -2 9501.66 782.432   3
   7 -15   1 65497.0 1866.84   3
   7 -15   1 63949.9 1979.46   1
  -8  15   1 66982.5 1830.32   3
  -8  15   1 63074.6 1837.82   1
  15  -7   1 65030.8 1815.82   2
   8   7   1 63336.2 1878.91   4
  15  -7   1 66113.4 2033.72   1
 -15   8   1 65413.2 1873.88   2
  -7  -8   1 64401.9 1823.03   4
   8   7   1 65451.5 1814.51   2
  -7  -8   1 62620.2 1671.50   3
 -15   8   1 65987.2 1871.04   4
  -7  -8   1 60753.4 1580.52   2
  -7  -8   1 62344.0 1899.76   1
   8   7   1 66844.1 1767.01   3
  -8  15   4 15479.8 849.948   1
  -7  -8   4 15222.9 938.214   3
  -7  -8   4 13612.2 744.146   4
  -7  -8   4 13884.4 1065.44   1
  15  -7   4 14085.8 1007.50   1
 -15   8   4 14841.7 1033.16   2
 -15   8   4 14607.3 497.649   3
 -15   8   4 15206.8 976.611   4
  -7  -8   4 14219.3 723.944   2
   8   7   4 14702.1 1042.97   3
   7 -15   4 14113.3 1115.01   1
  -8  15   4 15153.1 973.732   3
   7 -15   7 7930.69 1002.48   1
  -8  15   7 9126.98 599.524   1
 -15   8   7 8891.84 1008.22   2
  15  -7   7 9442.57 888.335   1
  -7  -8   7 8532.05 988.772   1
  -7  -8   7 8973.75 676.704   2
 -15   8   7 9565.18 842.067   4
 -15   8   7 8646.48 711.278   3
   8   7   7 9502.41 1079.77   3
  -8  15   7 8403.50 911.221   3
 -15   8  10 4540.94 877.534   2
 -15   8  10 3516.82 585.653   4
  -7  -8  10 3811.34 608.196   2
 -15   8  10 4362.67 748.958   1
   7 -15  10 3097.78 842.462   1
  15  -7  10 3380.07 963.118   3
  -8  15  10 4818.67 910.966   3
  15  -7  10 3006.70 662.160   1
  -7  -8  10 3119.90 815.592   1
 -15   8  10 4629.15 745.598   3
   8   7  10 3752.70 947.344   3
 -15   9  -9 2138.74 550.019   4
 -15   9  -6 3151.90 532.798   4
 -15   9  -6 2158.98 475.659   2
   9   6  -6 2153.04 289.480   4
  -9  15  -6 2278.74 330.997   4
   9   6  -3 6104.58 527.031   4
  -9  15  -3 6277.54 579.310   4
 -15   9  -3 5467.05 611.580   4
  15  -6  -3 6573.29 660.768   4
   6 -15  -3 6515.92 581.214   1
  -6  -9  -3 6979.87 812.857   4
  -6  -9  -3 5384.38 734.692   2
   9   6  -3 6252.82 563.583   2
 -15   9  -3 6823.42 649.411   2
  -9  15  -3 5368.95 333.900   2
  -6  -9  -3 7022.45 491.915   1
   6 -15   0 8893.88 757.051   3
   9   6   0 10960.1 705.338   3
   6 -15   0 9373.66 795.562   1
   9   6   0 10257.2 758.739   4
  -9  15   0 8888.40 683.971   3
  -9  15   0 9424.28 772.982   4
  -9  15   0 9924.03 628.240   2
  15  -6   0 10917.5 802.129   4
 -15   9   0 9020.85 722.937   4
 -15   9   0 10205.9 759.160   2
  15  -6   0 9579.42 746.457   2
   9   6   0 9254.37 681.823   2
  -6  -9   0 10263.4 696.289   2
  -6  -9   0 10499.4 754.190   1
  -6  -9   0 9649.74 810.237   4
  -9  15   0 9179.58 791.039   1
  -6  -9   0 10610.4 765.941   3
  15  -6   0 9880.76 416.136   3
  -9  15   3 4903.13 571.734   3
  -6  -9   3 4407.96 545.255   3
  -9  15   3 3931.96 517.981   1
 -15   9   3 4887.23 586.399   4
  -6  -9   3 4279.69 623.110   1
 -15   9   3 4220.31 598.157   2
   9   6   3 4797.79 601.734   3
  -6  -9   3 4299.68 409.884   2
  -6  -9   3 4323.89 496.814   4
 -15   9   3 4552.54 243.542   3
   6 -15   3 4642.66 667.915   1
  15  -6   3 4872.02 630.835   1
 -15   9   6 7338.03 874.913   2
  -9  15   6 6774.99 606.208   1
  -6  -9   6 8012.45 961.296   1
 -15   9   6 8016.82 612.834   3
  15  -6   6 8819.25 810.976   1
  -6  -9   6 7126.77 542.123   2
   9   6   6 7596.08 913.211   3
   6 -15   6 7189.92 893.827   1
 -15   9   6 7051.45 712.102   4
  -9  15   6 7338.39 790.039   3
   6 -15   9 144.349 644.393   1
  -6  -9   9 628.633 350.655   2
 -15   9   9 1300.62 432.964   4
  -6  -9   9 1049.00 550.893   1
  15  -6   9 2078.57 798.186   3
  15  -6   9 1002.56 496.509   1
   9   6   9 177.993 587.159   3
 -15   9   9 516.377 438.223   3
 -15   9   9 1423.76 576.564   2
  -9  15   9 1235.24 590.223   3
 -15  10 -10 628.511 448.628   4
 -15  10  -7 480.284 393.888   2
 -10  15  -7 1214.91 285.920   4
 -15  10  -7 1646.60 464.214   4
   5 -15  -4 9509.12 609.638   1
 -10  15  -4 8760.81 638.989   4
  10   5  -4 8854.60 600.653   4
 -15  10  -4 9837.61 785.943   4
  10   5  -4 9158.84 705.692   2
  -5 -10  -4 9785.98 489.341   1
  15  -5  -4 9611.55 755.664   4
 -15  10  -4 9833.53 771.316   2
 -10  15  -4 9090.40 453.028   2
  -5 -10  -1 19204.3 985.695   2
  10   5  -1 16096.2 781.765   3
  10   5  -1 19298.5 935.495   2
   5 -15  -1 17943.1 985.746   1
 -15  10  -1 19244.7 993.615   2
  10   5  -1 17431.0 939.762   4
  15  -5  -1 18453.0 1012.86   4
 -10  15  -1 17852.9 757.409   2
 -10  15  -1 16346.6 942.028   4
 -15  10  -1 16737.4 972.358   4
  -5 -10  -1 16918.8 896.872   1
  -5 -10  -1 17530.2 1014.96   3
  -5 -10   2 10028.2 757.574   3
 -10  15   2 11227.4 760.009   3
 -10  15   2 9817.28 783.012   1
 -10  15   2 10120.7 844.391   4
 -15  10   2 9979.36 819.208   2
  -5 -10   2 10886.7 902.834   1
  15  -5   2 10122.5 831.715   1
  15  -5   2 10680.8 733.375   3
 -15  10   2 10808.4 825.748   4
  -5 -10   2 10657.5 611.101   2
   5 -15   2 10785.8 905.528   1
  10   5   2 11250.2 775.923   3
 -10  15   2 10233.6 791.360   2
  -5 -10   5 9364.60 985.032   1
 -15  10   5 8651.90 857.641   2
 -10  15   5 9045.50 748.323   1
  -5 -10   5 8845.97 529.583   2
  15  -5   5 8392.08 968.900   3
  15  -5   5 8117.93 755.457   1
   5 -15   5 10521.7 1020.85   1
  10   5   5 8133.14 894.191   3
 -15  10   5 8732.42 801.154   4
 -15  10   5 8452.85 547.690   3
 -10  15   5 9984.49 842.389   3
  15  -5   8 943.134 410.234   1
   5 -15   8 162.906 527.660   1
 -10  15   8 1326.69 497.013   4
 -15  10   8 1452.30 571.010   2
 -15  10   8 1160.90 454.154   4
  -5 -10   8 362.177 506.640   1
  -5 -10   8 646.805 301.058   2
  15  -5   8 1263.53 658.781   3
  10   5   8 1246.25 632.180   3
 -15  10   8 1421.67 433.109   3
 -10  15   8 1153.97 560.263   3
   5 -15  11 2672.49 869.937   1
 -10  15  11 2192.04 676.967   4
 -15  10  11 1782.90 691.988   3
  -5 -10  11 4588.34 981.768   1
 -15  10  11 3015.71 738.488   1
  -5 -10  11-36.6818 1968.44   3
 -15  10  11 3007.17 831.017   2
  15  -5  11 3473.00 1038.65   3
 -10  15  11 612.406 674.316   2
  10   5  11 4193.23 1129.07   3
 -10  15  11 3604.91 899.649   3
 -15  11  -8 6640.10 750.126   4
 -11  15  -8 5700.41 483.838   4
 -11  15  -5 31447.1 910.182   2
  11   4  -5 32546.1 1123.45   4
   4 -15  -5 28260.7 860.817   1
  15  -4  -5 30904.0 1293.84   4
 -15  11  -5 33248.8 1415.01   4
 -15  11  -5 35113.8 1442.44   2
 -11  15  -5 30641.6 1145.69   4
   4 -15  -2 15152.3 871.447   1
  11   4  -2 15487.8 726.820   3
 -15  11  -2 15640.8 882.227   2
 -11  15  -2 15819.8 909.631   4
  11   4  -2 16599.1 900.160   2
 -15  11  -2 16445.8 957.042   4
  11   4  -2 15347.9 850.849   4
 -11  15  -2 15627.9 676.267   2
  -4 -11  -2 16596.0 820.391   1
  15  -4  -2 15957.3 961.891   4
  -4 -11   1 34215.6 1104.24   2
 -11  15   1 33157.8 1438.46   1
 -11  15   1 33270.1 1221.94   3
 -15  11   1 34518.7 1379.36   2
 -11  15   1 30623.3 1374.09   4
 -11  15   1 35417.7 1293.46   2
 -15  11   1 33769.9 1403.80   4
  -4 -11   1 34109.5 1433.68   1
  15  -4   1 33022.4 1006.06   3
   4 -15   1 34180.4 1467.11   1
  -4 -11   1 33039.0 1344.93   3
  11   4   1 35744.1 1236.25   3
 -15  11   4 21009.1 767.220   3
 -11  15   4 19338.8 1206.58   2
 -11  15   4 18833.7 1187.64   4
  -4 -11   4 19066.2 1265.33   1
 -15  11   4 19210.6 1214.77   2
  15  -4   4 20459.9 1114.86   1
 -15  11   4 19876.5 1125.42   4
  15  -4   4 21437.6 1221.86   3
  -4 -11   4 20364.5 709.769   2
   4 -15   4 23128.4 1370.20   1
 -11  15   4 20369.6 1107.29   1
  11   4   4 20528.3 1215.74   3
 -11  15   4 20669.2 1064.21   3
  -4 -11   7 14014.9 662.728   2
 -15  11   7 15730.8 1293.17   2
 -11  15   7 16793.4 1233.41   4
 -15  11   7 15519.6 1064.87   4
 -11  15   7 15375.1 967.360   1
 -15  11   7 15272.8 925.837   3
  15  -4   7 14944.9 1353.40   3
  11   4   7 15343.8 1291.04   3
   4 -15   7 17923.3 1370.98   1
  -4 -11   7 15423.0 1324.09   1
 -11  15   7 15964.4 1135.24   3
  15  -4   7 14500.7 968.792   1
 -15  11  10 5290.32 741.161   4
 -11  15  10 5567.83 1007.62   2
 -15  11  10 5045.89 784.985   1
 -11  15  10 7066.98 922.546   4
 -15  11  10 6663.71 1043.41   2
  -4 -11  10 8381.35 1199.31   1
  15  -4  10 8549.20 1309.44   3
 -15  11  10 7312.98 915.877   3
  11   4  10 6101.60 1145.34   3
   4 -15  10 5955.68 1098.43   1
 -11  15  10 6466.08 933.325   3
 -15  12  -9 285.766 391.665   4
  12   3  -6 3505.98 431.173   4
  15  -3  -6 3862.57 550.033   4
 -12  15  -6 3237.75 442.139   4
 -15  12  -6 3706.47 552.285   2
 -15  12  -6 3239.33 548.373   4
  -3 -12  -3 6189.71 466.123   1
  12   3  -3 5611.76 549.339   4
  12   3  -3 5588.63 591.849   2
   3 -15  -3 5809.30 518.732   1
  15  -3  -3 5867.25 613.807   4
 -12  15  -3 5650.46 589.512   4
 -12  15  -3 5756.38 452.722   2
 -15  12  -3 5665.46 609.570   4
 -15  12  -3 5187.71 539.793   2
  15  -3   0 4041.39 304.099   3
  -3 -12   0 3495.45 436.291   2
  12   3   0 3157.85 387.594   3
 -12  15   0 3965.11 482.000   2
 -12  15   0 2624.30 414.011   3
 -15  12   0 3441.38 555.606   4
  -3 -12   0 3585.50 519.794   1
  12   3   0 3622.31 513.038   2
   3 -15   0 4433.91 594.490   1
 -15  12   0 2853.97 476.224   2
 -12  15   0 4665.97 596.196   4
  -3 -12   3 5942.23 753.370   1
 -12  15   3 5293.82 536.198   3
 -15  12   3 5170.00 415.042   3
 -12  15   3 5514.23 651.477   4
 -12  15   3 4839.49 642.354   2
 -15  12   3 5359.57 653.133   4
 -12  15   3 5562.51 665.096   1
  -3 -12   3 5953.43 394.564   2
  15  -3   3 5917.88 630.006   3
   3 -15   3 7109.42 833.650   1
  12   3   3 6615.58 677.296   3
 -15  12   3 5471.28 645.267   2
 -15  12   6 4036.15 724.960   2
  15  -3   6 4021.63 552.459   1
 -12  15   6 4721.23 784.034   2
 -12  15   6 4730.20 739.963   4
 -15  12   6 3365.22 567.257   4
 -12  15   6 3740.26 574.327   1
  15  -3   6 4980.89 811.850   3
  -3 -12   6 3497.56 300.602   2
   3 -15   6 4605.73 769.998   1
  -3 -12   6 2718.44 661.085   1
  12   3   6 3655.93 685.445   3
 -15  12   6 5060.35 537.234   3
 -12  15   6 4323.04 598.436   3
 -12  15   9 81.1478 501.862   3
   3 -15   9-525.434 585.227   1
 -12  15   9-609.671 469.393   4
 -12  15   9-416.264 547.542   2
 -15  12   9-5.69135 520.219   2
  15  -3   9 320.587 625.803   3
  12   3   9-81.4068 610.358   3
  -3 -12   9 498.038 640.135   1
 -15  12   9 1383.35 512.615   3
 -15  12   9 425.504 413.634   4
  15  -3   9 302.600 349.172   1
 -15  13  -7 5294.35 679.689   2
  13   2  -7 5644.91 531.963   4
 -13  15  -7 5093.63 558.648   4
 -15  13  -7 6511.14 692.716   4
   2 -15  -4 645.995 263.096   1
  15  -2  -4 229.333 293.263   4
  13   2  -4 382.350 275.880   4
  -2 -13  -4 389.325 199.035   1
 -13  15  -4 634.690 330.557   4
 -15  13  -4 453.967 285.723   4
 -15  13  -4 346.825 292.573   2
 -13  15  -4 453.687 212.952   2
  13   2  -1 699.324 299.219   4
  15  -2  -1 1062.49 142.492   3
  13   2  -1 1223.21 252.166   3
   2 -15  -1 662.112 314.451   1
 -13  15  -1 1010.26 280.030   2
 -15  13  -1 891.146 300.241   2
 -13  15  -1 1024.02 382.457   4
  -2 -13  -1 1142.25 348.802   1
 -15  13  -1 986.270 416.110   4
 -13  15   2 3766.96 462.027   3
  -2 -13   2 4197.85 368.130   2
  -2 -13   2 3669.05 601.430   1
 -15  13   2 4645.34 598.654   2
 -13  15   2 2617.09 476.099   2
   2 -15   2 3926.14 639.012   1
 -13  15   2 3213.97 573.308   4
  15  -2   2 3367.68 453.012   3
  13   2   2 4000.27 507.633   3
 -15  13   2 3377.44 542.155   4
 -15  13   2 3837.05 363.477   3
   2 -15   5 729.321 471.313   1
 -15  13   5 866.096 292.309   3
 -13  15   5 1222.12 453.216   4
 -13  15   5 1294.74 505.383   2
 -15  13   5 893.790 439.143   4
  -2 -13   5 952.643 505.091   1
 -13  15   5 1185.74 404.709   3
  -2 -13   5 432.318 111.408   2
  15  -2   5 989.201 468.599   3
  13   2   5 355.634 439.492   3
 -15  13   5 1113.14 480.275   2
  13   2   8 1400.89 663.790   3
   2 -15   8 1177.66 607.689   1
 -13  15   8 732.826 459.031   4
 -13  15   8 947.525 564.748   2
 -15  13   8 847.934 485.570   4
 -15  13   8 1574.01 690.296   2
 -15  13   8 1102.36 447.211   3
  -2 -13   8 332.764 156.799   2
  15  -2   8 1030.20 627.042   3
  -2 -13   8 2752.03 760.034   1
 -13  15   8 1359.26 524.474   3
 -13  15  11 1352.21 668.464   4
  -2 -13  11 837.173 671.517   1
  13   2  11 960.117 806.808   3
   2 -15  11 1193.30 759.473   1
 -13  15  11 1119.16 692.118   2
 -15  13  11 1105.90 587.405   4
  -2 -13  11 1249.19 1994.96   3
 -15  13  11 1810.55 824.373   2
  15  -2  11 1746.51 957.104   3
 -15  13  11 1088.43 634.233   3
 -13  15  11 2526.76 777.320   3
 -15  14  -8 2702.88 516.921   4
 -14  15  -8 3285.24 489.419   4
  15  -1  -5 34532.5 1353.48   4
 -14  15  -5 32707.5 1184.92   2
  14   1  -5 29468.2 1193.54   4
 -14  15  -5 31176.4 1292.49   4
 -15  14  -5 32151.9 1340.89   4
 -15  14  -5 27975.4 1205.81   2
 -14  15  -2 11587.2 853.247   4
 -14  15  -2 13058.6 747.114   2
 -15  14  -2 10693.3 725.634   2
  -1 -14  -2 12229.0 765.924   1
 -15  14  -2 12912.1 906.764   4
   1 -15  -2 12669.5 796.310   1
 -14  15   1 31592.3 1436.62   4
 -14  15   1 32199.1 1324.22   2
  14   1   1 34007.3 1143.64   3
 -15  14   1 34338.0 1408.19   2
  15  -1   1 35133.3 1093.74   3
 -14  15   1 32212.7 1136.26   3
  -1 -14   1 32353.6 1460.79   1
   1 -15   1 32404.1 1425.77   1
 -15  14   1 32111.0 1418.71   4
 -14  15   4 24562.4 1072.64   3
 -15  14   4 24842.0 1004.21   3
 -14  15   4 23039.5 1346.60   2
 -15  14   4 25089.3 1356.05   4
 -14  15   4 24784.2 1351.54   4
 -15  14   4 24599.0 1380.39   2
  -1 -14   4 22795.7 1400.96   1
   1 -15   4 26084.9 1512.52   1
  15  -1   4 25713.8 1327.83   3
  14   1   4 25557.1 1329.47   3
  -1 -14   7 19196.1 1476.76   1
 -14  15   7 18394.2 1447.12   2
 -14  15   7 18398.8 1262.86   4
 -15  14   7 19470.2 1434.64   2
 -15  14   7 18454.0 1246.32   4
  15  -1   7 18530.3 1449.23   3
  14   1   7 18279.9 1435.74   3
   1 -15   7 18196.0 1438.07   1
 -14  15   7 19132.4 1173.81   3
 -15  14   7 21320.3 1163.79   3
   1 -15  10 4568.83 992.733   1
 -14  15  10 4452.51 810.860   4
 -15  14  10 4173.77 762.064   4
  -1 -14  10 3923.61 957.244   1
 -15  14  10 3097.46 926.056   2
 -14  15  10 3760.34 887.229   2
  15  -1  10 4144.02 962.380   3
  14   1  10 4700.56 1024.89   3
 -15  14  10 3517.98 753.249   3
 -14  15  10 4172.42 783.854   3
 -15  15  -9 307.707 369.956   4
 -15  15  -6 1613.14 405.538   2
  15   0  -6 1680.54 407.688   4
 -15  15  -6 2170.87 440.827   4
   0 -15  -3 107.809 250.177   1
 -15  15  -3-376.041 322.248   4
 -15  15  -3 100.393 235.998   2
 -15  15   0 9868.36 737.378   2
   0 -15   0 10972.2 864.693   1
 -15  15   0 9743.68 817.774   4
  15   0   0 11156.8 580.778   3
 -15  15   3 564.127 393.307   4
 -15  15   3 10.0935 231.241   3
   0 -15   3-73.7844 420.150   1
 -15  15   3 570.712 415.122   2
  15   0   3 102.390 378.476   3
 -15  15   6 1265.42 421.963   3
 -15  15   6 586.751 493.887   2
   0 -15   6 148.625 484.637   1
  15   0   6 415.780 457.462   3
   0 -15   9 276.992 664.154   1
 -15  15   9 225.084 506.874   4
 -15  15   9 279.146 621.991   2
  15   0   9 555.594 727.195   3
 -15  15   9 344.488 505.546   3
 -16   0  -7-1433.71 614.883   2
 -16   0  -7 153.260 467.845   4
 -16   0  -4 29736.3 1637.30   2
 -16   0  -4 30956.7 1640.28   4
   0  16  -4 27861.3 1156.53   4
  16 -16  -4 29283.7 1212.62   3
 -16   0  -4 28586.2 1378.56   1
   0  16  -1-118.909 357.975   3
 -16   0  -1 60.3568 354.546   4
 -16   0  -1 584.025 596.640   3
  16 -16  -1-13.9901 269.413   3
  16 -16  -1-320.617 416.083   1
 -16   0  -1-421.536 424.485   2
   0  16  -1-215.008 227.327   2
   0  16   2 67187.9 2220.33   3
   0  16   2 63512.3 1795.04   1
  16 -16   2 66967.3 1840.89   2
 -16   0   2 69925.0 2108.08   4
  16 -16   2 70656.7 2510.15   1
 -16   0   2 65833.8 1183.25   3
 -16   0   2 71062.7 2121.26   2
  16 -16   5 323.058 468.344   1
   0  16   5 126.933 474.369   3
 -16   0   5 99.5947 245.706   3
  16 -16   5 115.317 287.720   2
 -16   0   5-75.4556 297.065   4
 -16   0   5-155.529 394.465   2
 -16   0   8 12171.6 1107.79   2
 -16   0   8 10333.6 770.232   4
  16 -16   8 9449.45 1145.97   1
   0  16   8 11276.4 1298.38   3
 -15  -1  -8 598.845 552.255   4
 -16   1  -8 395.772 616.429   4
 -16   1  -5 1497.35 521.202   2
 -15  -1  -5 944.521 484.204   2
 -16   1  -5 1206.58 474.549   1
 -15  -1  -5 1047.79 403.424   1
   1  15  -5 1234.22 322.580   4
 -16   1  -5 1866.94 575.253   4
 -15  -1  -5 2062.21 584.941   4
  16 -15  -5 2563.52 573.746   3
  15 -16  -5 1519.05 452.484   3
  -1  16  -5 1396.76 317.948   4
  15 -16  -2 220.381 277.498   3
 -15  -1  -2 166.526 343.995   2
  15 -16  -2-170.470 367.772   1
   1  15  -2-310.282 401.793   3
  -1  16  -2 136.914 353.912   3
  -1  16  -2-179.585 327.257   4
  16 -15  -2 118.917 396.170   1
   1  15  -2-81.7549 159.891   2
 -16   1  -2 55.8520 343.146   4
 -15  -1  -2 20.5021 418.197   4
   1  15  -2 222.674 303.204   4
 -16   1  -2-285.307 1072.82   3
 -15  -1  -2 231.571 332.739   1
 -15  -1  -2 670.977 718.115   3
  -1  16  -2 110.814 140.364   2
 -16   1  -2-264.026 357.012   2
  16 -15  -2 89.4240 254.667   3
   1  15   1 808.797 325.432   2
   1  15   1 1341.98 418.474   3
  -1  16   1 1397.54 462.866   3
  -1  16   1 953.982 333.142   2
  16 -15   1 488.811 413.306   1
  15 -16   1 1715.12 405.320   3
  16 -15   1 1186.93 358.147   3
  16 -15   1 1721.14 396.743   2
  15 -16   1 840.997 342.306   2
  -1  16   1 1569.49 411.113   1
   1  15   1 926.214 346.562   1
 -16   1   1 1192.96 451.557   4
 -16   1   1 1748.83 444.791   2
  15 -16   1 1081.14 489.561   1
 -15  -1   1 1624.75 293.873   3
 -16   1   1 1373.43 226.298   3
 -15  -1   1 1255.23 383.133   2
 -15  -1   1 839.962 390.793   4
   1  15   4-197.465 393.558   3
  -1  16   4 142.683 391.661   3
 -16   1   4 484.048 176.516   3
 -15  -1   4 144.155 208.563   3
 -16   1   4 314.952 366.547   2
  15 -16   4 54.2764 452.081   1
 -16   1   4 115.587 301.537   4
  -1  16   4 528.711 261.264   1
  15 -16   4 34.5117 248.172   2
  16 -15   4 394.138 415.479   1
  16 -15   4 230.230 301.305   2
 -15  -1   4 648.845 382.056   2
 -15  -1   4 8.42407 276.230   4
  -1  16   7 1089.16 597.150   3
  15 -16   7 1024.95 588.692   1
 -15  -1   7 1970.69 522.743   2
 -15  -1   7-268.284 1051.36   3
  16 -15   7 2249.62 699.972   1
 -15  -1   7 2265.09 665.114   1
 -16   1   7 397.455 298.348   4
 -16   1   7 1186.23 500.146   2
 -15  -1   7 1639.22 375.580   4
 -16   1   7-769.220 964.016   3
   1  15   7 1968.81 675.018   3
  16 -15  10 1679.50 714.936   1
  15 -16  10 1377.04 744.685   1
 -16   1  10 1558.28 618.333   3
 -16   1  10 1118.71 715.840   1
 -16   1  10 1380.26 606.491   2
 -15  -1  10 1304.19 707.603   1
  15 -16  10 401.902 2095.42   3
 -15  -1  10 2233.98 937.907   3
  -1  16  10 2392.32 867.573   3
  16 -15  10-1942.18 2647.59   3
 -15  -1  10 618.625 507.493   2
   1  15  10 1439.60 836.407   3
 -16   2  -9 1939.36 667.873   4
 -16   2  -6 1007.45 514.305   2
 -14  -2  -6 1313.97 550.823   2
 -14  -2  -6 1320.10 597.015   4
  -2  16  -6 981.792 226.664   4
  -2  16  -6 712.617 189.115   4
 -16   2  -6 640.932 447.419   4
  16 -14  -6 748.157 1333.53   3
 -14  -2  -6 1730.91 398.987   1
   2  14  -6 409.537 164.371   4
 -16   2  -6 1036.80 452.577   1
 -16   2  -3 1347.01 462.644   2
 -14  -2  -3 1635.74 481.484   2
   2  14  -3 1881.71 233.622   2
  16 -14  -3 1759.25 336.644   3
  14 -16  -3 1520.10 391.713   3
 -14  -2  -3 2104.12 481.106   1
 -16   2  -3 2145.99 513.372   4
 -14  -2  -3 2008.48 503.491   4
   2  14  -3 2032.51 427.846   4
  -2  16  -3 1246.19 385.455   4
  14 -16  -3 2457.09 531.643   1
  16 -14  -3 1773.59 467.228   1
  14 -16   0 4804.07 536.289   3
  16 -14   0 4268.76 441.666   3
   2  14   0 5032.83 647.072   3
 -16   2   0 3722.70 578.510   4
  16 -14   0 6427.58 829.065   1
   2  14   0 3540.73 590.506   1
  -2  16   0 2639.47 526.007   3
 -14  -2   0 4209.96 630.028   4
 -16   2   0 4378.62 607.283   2
 -14  -2   0 4895.79 623.357   2
 -14  -2   0 4335.13 459.112   3
   2  14   0 4459.68 485.394   2
  14 -16   0 4123.76 652.998   1
  -2  16   0 5010.71 498.954   2
 -16   2   3 7116.77 703.043   4
  -2  16   3 6850.45 590.523   1
  14 -16   3 6408.77 554.982   2
  16 -14   3 7151.03 643.662   2
  14 -16   3 6508.65 839.468   1
 -14  -2   3 6213.62 650.192   4
 -16   2   3 6394.54 703.704   2
 -14  -2   3 7464.68 703.836   2
  16 -14   3 6572.66 819.426   1
 -16   2   3 5213.81 242.256   3
 -14  -2   3 7128.79 489.321   3
   2  14   3 5650.62 731.783   3
  -2  16   3 7432.55 796.196   3
 -14  -2   6 3905.04 523.232   4
 -14  -2   6 3931.08 516.008   3
 -16   2   6 4589.38 475.303   3
 -14  -2   6 5462.45 843.565   1
  16 -14   6 3859.15 749.151   1
 -16   2   6 3264.94 639.687   2
 -16   2   6 4106.04 552.179   4
  14 -16   6 3371.51 435.159   2
 -14  -2   6 5262.71 671.247   2
  14 -16   6 4004.63 758.225   1
   2  14   6 4491.80 788.376   3
  -2  16   6 4372.84 774.325   3
 -14  -2   9 1666.87 682.378   1
 -16   2   9 986.578 562.379   2
 -16   2   9 1306.02 391.749   4
 -14  -2   9 1862.83 547.231   2
  16 -14   9 2351.39 719.242   1
  14 -16   9-387.621 1902.91   3
  16 -14   9-1637.55 2321.61   3
 -14  -2   9 693.862 1515.97   3
 -16   2   9 1379.83 525.071   3
 -16   2   9 1865.72 728.630   1
  14 -16   9 612.680 613.722   1
   2  14   9 1238.84 649.258   3
  -2  16   9 903.846 671.593   3
 -16   3 -10 12113.8 1201.69   4
 -13  -3  -7 618.190 258.200   1
 -16   3  -7 870.908 543.655   2
 -13  -3  -7 307.698 493.263   4
 -16   3  -7 473.981 519.191   4
  13 -16  -4 53710.6 1857.87   1
 -13  -3  -4 51941.0 1592.44   1
   3  13  -4 48345.9 977.002   2
   3  13  -4 47161.0 1371.66   4
  -3  16  -4 46727.9 1426.34   4
 -13  -3  -4 52158.4 2092.67   4
  16 -13  -4 57629.1 1494.83   3
  13 -16  -4 47643.5 1655.33   3
 -16   3  -4 50761.9 1984.34   2
 -16   3  -4 47351.3 1739.82   1
 -16   3  -4 50734.8 1988.70   4
 -13  -3  -4 53018.6 2082.55   2
  13 -16  -1 3653.15 635.065   1
   3  13  -1 3258.37 517.401   3
 -16   3  -1 3971.75 583.720   2
  -3  16  -1 2734.14 506.567   3
  13 -16  -1 2833.44 425.039   3
 -13  -3  -1 3210.08 565.395   4
 -16   3  -1 2611.49 522.924   4
   3  13  -1 3188.79 519.257   4
  16 -13  -1 3129.94 588.066   1
   3  13  -1 3341.68 388.281   2
 -13  -3  -1 4071.68 523.806   3
 -13  -3  -1 3419.44 555.163   2
  -3  16  -1 3129.53 360.238   2
  16 -13  -1 3624.61 365.310   3
   3  13   2 52649.4 1861.32   3
  -3  16   2 52770.9 1882.16   3
  16 -13   2 54938.1 2070.32   1
  -3  16   2 46138.6 1643.69   2
  13 -16   2 49861.3 1380.26   2
 -16   3   2 50406.4 1739.59   4
  13 -16   2 50669.2 2005.51   1
 -13  -3   2 53084.0 1730.24   4
 -16   3   2 49689.0 1757.83   2
  16 -13   2 51147.9 1611.01   2
  -3  16   2 51862.7 1578.22   1
 -13  -3   2 51675.0 1687.98   2
 -13  -3   2 51465.8 1276.08   3
   3  13   5 70.6373 415.125   3
  -3  16   5-61.1162 428.699   3
 -16   3   5-93.3168 323.841   2
 -13  -3   5 156.056 296.454   3
 -16   3   5 308.730 224.075   3
 -16   3   5 442.464 356.736   4
  13 -16   5 50.5868 211.229   2
  -3  16   5 240.785 218.397   1
 -13  -3   5 100.412 296.123   4
  16 -13   5 505.488 480.487   1
 -16   3   5 330.918 243.192   3
  13 -16   5 536.604 525.542   1
 -13  -3   5 98.1799 321.938   2
  13 -16   8 29147.6 1849.85   1
 -13  -3   8 36972.8 1675.55   2
 -16   3   8 32729.8 1345.79   4
 -16   3   8 33247.6 1789.15   2
 -13  -3   8 36999.4 2062.32   1
 -13  -3   8 31993.7 1047.32   4
  16 -13   8 32913.7 1841.36   1
 -16   3   8 32792.5 1467.87   3
   3  13   8 33908.3 2007.52   3
  -3  16   8 33753.9 1972.61   3
  13 -16  11-730.267 773.047   1
  16 -13  11 723.414 751.468   1
 -16   3  11-60.5843 564.623   2
 -13  -3  11 924.360 545.654   2
 -16   3  11 194.941 557.795   1
 -13  -3  11 564.472 770.670   1
   3  13  11 292.541 700.238   3
  13 -16  11 653.807 2637.43   3
  16 -13  11 1409.33 2410.19   3
 -13  -3  11 433.426 1325.07   3
  -3  16  11 207.244 698.063   3
 -16   4  -8 1027.95 588.179   2
 -16   4  -8 1867.38 592.914   4
 -16   4  -5 707.449 463.707   4
 -16   4  -5 248.867 397.823   2
 -12  -4  -5 1122.20 512.073   2
  -4  16  -5 688.272 250.419   4
   4  12  -5 739.444 235.151   4
 -12  -4  -5 421.161 277.360   1
 -12  -4  -5 1512.61 555.340   4
  16 -12  -5 489.835 1025.85   3
   4  12  -2 2367.84 478.571   3
 -16   4  -2 3345.73 573.629   4
  -4  16  -2 2813.44 227.348   2
  12 -16  -2 2063.08 472.840   1
  16 -12  -2 2928.11 577.413   1
 -12  -4  -2 3951.06 683.028   4
   4  12  -2 2992.53 338.718   2
   4  12  -2 2600.30 445.999   4
  12 -16  -2 3151.14 478.487   3
 -12  -4  -2 3165.82 518.309   3
 -16   4  -2 4157.58 614.612   2
  -4  16  -2 3076.98 244.997   2
  16 -12  -2 3624.98 308.310   3
 -12  -4  -2 3651.46 578.084   2
   4  12   1 5782.91 649.662   3
  16 -12   1 5529.19 604.836   2
  -4  16   1 4432.10 600.320   3
  12 -16   1 5933.15 626.173   3
  16 -12   1 5360.67 484.917   3
 -16   4   1 3996.12 578.860   4
  12 -16   1 4451.73 680.560   1
 -12  -4   1 5864.76 649.076   4
 -16   4   1 5607.99 644.620   2
  16 -12   1 4883.21 666.596   1
 -12  -4   1 5277.81 596.517   2
   4  12   1 5266.03 573.685   2
  -4  16   1 5801.10 629.910   1
 -12  -4   1 5325.98 481.367   3
 -16   4   4 4623.14 226.012   3
   4  12   4 4107.72 683.637   3
 -12  -4   4 5896.98 565.545   3
  12 -16   4 4736.50 400.264   2
  12 -16   4 5967.01 822.643   1
 -16   4   4 4627.24 572.475   4
 -16   4   4 4665.51 645.390   2
  -4  16   4 4898.90 474.807   1
 -12  -4   4 4609.85 524.583   4
 -12  -4   4 4807.44 562.131   2
 -16   4   4 3868.05 219.144   3
  16 -12   4 5613.28 822.212   1
  -4  16   4 4459.13 624.606   3
  12 -16   7 4990.26 894.787   1
 -12  -4   7 4646.08 787.935   1
 -16   4   7 5471.14 768.897   2
 -16   4   7 5060.03 605.948   4
  12 -16   7 2932.99 364.488   2
 -12  -4   7 4875.62 632.149   2
 -16   4   7 3960.55 515.985   3
 -12  -4   7 5113.69 481.951   4
  16 -12   7 4275.68 755.673   1
   4  12   7 4677.48 836.983   3
  -4  16   7 5041.06 848.847   3
 -16   4  10 2085.85 689.240   2
 -12  -4  10 2107.41 2115.26   3
 -12  -4  10 1392.37 537.152   2
  16 -12  10-650.508 2076.26   3
 -12  -4  10 1293.42 646.334   1
  16 -12  10 1878.70 686.656   1
 -16   4  10 1350.39 649.213   1
 -16   4  10 1277.75 546.859   3
  12 -16  10 1203.40 716.207   1
   4  12  10 2541.21 964.385   3
  -4  16  10 966.960 637.781   3
 -16   5  -9 1697.64 619.371   4
 -11  -5  -6 14130.8 619.974   1
  -5  16  -6 12268.5 556.193   4
 -16   5  -6 15927.9 1175.82   2
 -16   5  -6 15187.0 1144.49   4
 -11  -5  -6 14567.2 1218.77   4
  -5  16  -6 13476.8 626.767   4
 -11  -5  -3-11.2368 349.126   4
 -16   5  -3 320.278 357.102   4
 -11  -5  -3 39.9674 363.298   2
   5  11  -3 553.888 227.641   2
   5  11  -3 62.7519 253.930   4
  16 -11  -3 348.301 213.202   3
  11 -16  -3 587.405 371.042   1
 -11  -5  -3 105.220 261.497   1
  11 -16  -3 39.1397 314.443   3
 -16   5  -3 76.7840 318.525   2
   5  11   0 12392.7 756.137   2
  11 -16   0 10734.6 768.401   3
   5  11   0 12255.8 859.502   3
  16 -11   0 12079.8 571.473   3
  -5  16   0 10665.6 838.057   3
  11 -16   0 11521.9 953.416   1
   5  11   0 10997.8 841.449   4
 -16   5   0 11238.2 852.402   4
  -5  16   0 12626.6 914.737   1
 -16   5   0 12659.0 916.235   2
 -11  -5   0 11698.6 826.112   2
 -11  -5   0 11099.0 882.857   4
 -11  -5   0 10671.2 707.550   3
  16 -11   0 13104.4 1019.00   1
 -11  -5   3 2054.40 368.699   3
   5  11   3 1683.97 484.977   3
  -5  16   3 1563.18 442.920   3
  11 -16   3 1595.83 255.447   2
 -11  -5   3 1754.90 379.927   2
  16 -11   3 2146.98 575.500   1
 -16   5   3 1870.99 426.010   4
 -16   5   3 1374.52 394.760   2
 -11  -5   3 1820.38 404.771   4
  16 -11   3 2370.34 422.953   2
  -5  16   3 1854.58 379.151   1
  11 -16   3 1727.82 556.478   1
  -5  16   6 20.0231 438.822   3
  11 -16   6-48.7280 168.516   2
 -11  -5   6 845.756 483.742   1
 -16   5   6 120.696 226.890   3
 -16   5   6 581.444 405.914   2
 -16   5   6 593.127 326.524   4
 -11  -5   6 431.447 318.012   2
  11 -16   6-336.115 505.645   1
  16 -11   6-1022.32 1255.20   3
  -5  16   6 69.7559 170.434   1
  16 -11   6 374.732 425.647   1
 -11  -5   6 149.054 237.260   4
   5  11   6 31.5074 444.254   3
 -16   5   9 799.413 387.894   4
 -11  -5   9 1255.21 451.897   2
 -16   5   9 1575.63 599.883   1
  16 -11   9 632.652 2026.34   3
   5  11   9 1134.69 699.883   3
 -11  -5   9 808.273 633.684   1
  11 -16   9 2200.27 700.278   1
 -11  -5   9 62.5224 1292.16   3
  16 -11   9 102.606 543.450   1
 -16   5   9 574.074 428.119   3
 -16   5   9 270.149 478.210   2
  -5  16   9 1034.94 621.485   3
 -16   6 -10 12595.1 1164.68   4
 -16   6  -7 116.895 411.572   2
 -16   6  -7 139.467 384.659   4
  -6  16  -7 106.428 112.343   4
 -10  -6  -4 27993.4 1506.11   2
   6  10  -4 30242.3 999.936   2
   6  10  -4 29425.9 1038.64   4
 -16   6  -4 29708.4 1441.24   4
 -10  -6  -4 30106.8 1568.11   4
 -10  -6  -4 31020.0 1073.57   1
  -6  16  -4 26858.9 1026.22   4
  10 -16  -4 29828.4 1277.68   1
 -16   6  -4 28861.0 1425.48   2
   6  10  -1 18832.6 1018.06   3
  -6  16  -1 17112.0 1052.72   3
  -6  16  -1 17509.2 681.034   2
   6  10  -1 19062.9 860.292   2
 -16   6  -1 17923.8 1071.37   4
  16 -10  -1 17437.1 1163.16   1
  16 -10  -1 17411.1 505.473   3
   6  10  -1 19812.1 1051.40   4
 -10  -6  -1 19636.5 1159.25   4
 -16   6  -1 19293.2 1076.66   2
 -10  -6  -1 17904.8 962.891   3
 -10  -6  -1 19358.7 1085.32   2
  10 -16  -1 17015.4 965.008   3
  10 -16  -1 17899.6 1115.52   1
 -16   6   2 52662.1 1771.89   2
  -6  16   2 49261.3 1736.07   3
 -16   6   2 49756.5 1686.18   4
  10 -16   2 52994.9 1988.52   1
   6  10   2 51295.4 1758.31   3
  16 -10   2 51790.9 1941.08   1
  16 -10   2 47719.0 1592.15   2
 -10  -6   2 46170.1 1580.43   4
  -6  16   2 45914.2 1490.12   1
 -10  -6   2 50477.6 1540.96   2
 -10  -6   2 51232.5 1455.47   3
  -6  16   5 776.484 439.706   3
 -10  -6   5 1880.59 561.737   1
 -10  -6   5 1644.36 421.592   3
  16 -10   5 2473.91 574.557   1
 -16   6   5 1878.64 260.009   3
 -10  -6   5 1795.85 341.411   4
 -16   6   5 2450.54 562.872   2
  10 -16   5 1504.39 542.409   1
  -6  16   5 1846.29 342.801   1
 -10  -6   5 1594.12 350.608   2
 -16   6   5 1922.57 422.689   4
  10 -16   5 960.280 150.857   2
   6  10   5 1639.81 550.377   3
 -10  -6   8 20527.0 1527.80   1
  10 -16   8 17302.8 1421.51   1
 -16   6   8 20818.0 1456.96   2
 -16   6   8 18624.7 1062.51   4
  -6  16   8 19763.4 1477.49   3
 -10  -6   8 19967.2 1147.34   2
 -16   6   8 20114.2 1122.96   3
  16 -10   8 19240.2 1358.45   1
 -10  -6  11 2650.12 2421.54   3
 -16   6  11 156.556 552.264   1
  10 -16  11-925.855 2097.81   3
  10 -16  11 514.917 687.486   1
 -10  -6  11-22.8455 668.795   1
  16 -10  11 618.688 1114.19   3
 -16   6  11 753.234 571.985   3
 -16   6  11 169.016 543.313   2
   6  10  11 762.686 890.832   3
  -6  16  11-148.378 729.214   3
 -16   7  -8 3107.57 642.591   4
 -16   7  -8 2204.10 609.456   2
   7   9  -5 7647.37 584.648   2
  -9  -7  -5 7335.29 438.199   1
  -7  16  -5 6941.69 515.486   4
   7   9  -5 7009.02 488.397   4
  -9  -7  -5 7126.34 457.351   1
 -16   7  -5 7013.66 781.873   4
  -9  -7  -5 7342.97 877.355   4
 -16   7  -5 7216.24 774.332   2
   7   9  -2 9680.33 723.204   3
  -9  -7  -2 11098.8 926.621   4
   7   9  -2 9611.14 704.097   4
   7   9  -2 9585.12 626.960   2
   9 -16  -2 9393.94 758.895   3
  -7  16  -2 8746.74 394.489   2
 -16   7  -2 10209.9 825.654   4
 -16   7  -2 12032.6 881.887   2
   9 -16  -2 10907.8 830.470   1
  -9  -7  -2 10087.7 822.002   3
  -7  16  -2 9315.75 709.097   4
  -9  -7  -2 10892.8 865.753   2
   7   9   1 9592.73 762.919   3
  16  -9   1 10401.9 907.137   1
  -7  16   1 9114.44 775.777   3
   9 -16   1 8803.47 865.455   1
  -9  -7   1 10560.9 836.679   1
  -9  -7   1 9545.65 671.892   3
 -16   7   1 10418.3 816.967   4
  -9  -7   1 9963.17 788.654   4
 -16   7   1 9470.15 783.146   2
  16  -9   1 10542.0 1142.72   3
  -7  16   1 8827.32 750.303   1
   7   9   1 9988.72 750.752   2
  -9  -7   1 10365.9 732.193   2
   9 -16   4 17276.0 1245.06   1
  -9  -7   4 19462.9 1026.00   3
 -16   7   4 19538.3 1207.44   2
  -7  16   4 19367.3 1159.05   3
 -16   7   4 19344.4 1068.77   4
  -9  -7   4 17816.1 881.625   2
  -9  -7   4 18241.2 898.681   4
  16  -9   4 20157.1 1254.91   1
  -7  16   4 16183.7 892.439   1
  -9  -7   4 17663.3 1225.81   1
   7   9   4 21323.0 1281.34   3
 -16   7   4 16342.8 406.239   3
  -7  16   7-80.1759 415.378   3
  -7  16   7 468.964 216.529   1
 -16   7   7-123.967 326.344   4
  16  -9   7-584.512 468.963   1
  -9  -7   7 596.452 484.213   1
 -16   7   7 149.976 460.920   2
   9 -16   7 159.284 102.900   2
   9 -16   7 647.407 536.984   1
  -9  -7   7 118.229 264.876   2
  16  -9   7 960.692 1605.81   3
 -16   7   7 334.643 337.358   3
   7   9   7 399.080 495.114   3
  -9  -7  10 3723.38 896.919   1
  16  -9  10 2739.96 676.756   1
 -16   7  10 3078.31 795.839   2
  -9  -7  10 3487.81 610.702   2
   9 -16  10 3504.85 902.206   1
  16  -9  10 3260.77 1305.95   3
 -16   7  10 4399.58 802.207   1
  -7  16  10 4488.04 930.434   3
 -16   7  10 3549.93 674.625   3
   7   9  10 4679.01 1029.44   3
 -16   8  -9 437.447 484.481   4
   8   8  -6 6764.36 436.837   4
  -8  16  -6 7317.91 492.676   4
 -16   8  -6 8301.01 824.120   4
 -16   8  -6 6914.16 828.729   2
   8   8  -3 632.932 257.203   2
  -8  -8  -3 436.015 333.936   2
  -8  -8  -3 325.072 222.870   1
  -8  16  -3 545.965 276.267   4
 -16   8  -3 216.481 325.623   4
   8   8  -3-137.717 243.118   4
  -8  -8  -3 623.450 455.403   4
   8 -16  -3 504.796 292.840   1
  -8  16  -3 328.666 96.2978   2
 -16   8  -3 200.447 303.811   2
  16  -8   0-350.394 457.098   3
   8   8   0 435.633 332.217   4
  -8  16   0 1558.55 458.639   1
   8 -16   0 1627.84 408.059   3
   8   8   0 686.261 310.967   3
  -8  16   0 709.766 331.315   3
  -8  16   0 794.960 278.049   2
  -8  -8   0 1343.13 388.504   1
 -16   8   0 913.961 373.773   4
   8   8   0 1987.25 388.960   2
  -8  -8   0 1050.63 409.180   4
 -16   8   0 984.570 364.713   2
  16  -8   0 1076.81 425.657   1
   8 -16   0 902.254 431.540   1
  -8  -8   0 1137.41 350.642   3
  -8  -8   0 1409.56 384.458   2
   8   8   3 474.499 376.358   3
  -8  16   3 735.622 405.243   3
  -8  -8   3 1081.84 361.383   3
  16  -8   3 465.267 419.277   1
 -16   8   3 863.284 365.751   4
  -8  16   3 1389.55 404.047   1
  -8  -8   3 703.235 397.127   1
   8 -16   3 260.067 450.852   1
  -8  -8   3 778.126 262.042   2
 -16   8   3 600.078 402.734   2
  -8  -8   3 549.337 300.846   4
  16  -8   3 417.008 1016.82   3
  16  -8   6 7672.83 838.334   1
  -8  -8   6 8606.69 648.674   2
  -8  -8   6 7965.79 919.962   1
 -16   8   6 7475.92 772.964   4
 -16   8   6 8990.48 950.297   2
 -16   8   6 7933.90 582.031   3
   8   8   6 8583.90 977.737   3
  -8  16   6 7993.38 598.423   1
  -8  16   6 7357.68 809.508   3
   8 -16   6 6917.06 931.654   1
  -8  -8   9 822.405 374.070   2
 -16   8   9 458.995 393.609   4
   8 -16   9 569.144 565.080   1
 -16   8   9 484.383 543.992   2
  16  -8   9 170.482 457.558   1
  -8  -8   9 1308.79 656.672   1
  16  -8   9 323.140 999.438   3
 -16   8   9-124.244 391.182   3
   8   8   9 737.661 657.811   3
  -8  16   9 570.307 554.948   3
 -16   9 -10 3846.20 717.371   4
   9   7  -7 73.1071 121.868   4
 -16   9  -7 127.330 422.603   2
  -9  16  -7-6.52424 189.644   4
 -16   9  -7-234.006 401.585   4
   7 -16  -4 18974.0 953.252   1
  -9  16  -4 18589.7 900.661   4
  -7  -9  -4 19501.9 737.093   1
   9   7  -4 19616.5 874.839   4
 -16   9  -4 17611.2 1073.45   4
 -16   9  -4 18931.8 1107.54   2
   9   7  -4 19428.3 944.609   2
   9   7  -1 9808.25 694.544   3
   7 -16  -1 9094.27 804.867   1
  -7  -9  -1 9079.26 698.500   1
  -9  16  -1 8576.88 713.450   4
  -7  -9  -1 8898.99 821.040   4
  -9  16  -1 9897.05 562.342   2
 -16   9  -1 10406.7 825.697   4
   9   7  -1 9564.32 741.223   4
   9   7  -1 9769.91 694.883   2
 -16   9  -1 9834.60 791.237   2
  -7  -9  -1 9582.21 764.974   3
  -7  -9  -1 8635.06 736.329   2
   7 -16   2 12483.0 1005.39   1
  -7  -9   2 10353.9 763.578   3
  -9  16   2 10704.0 809.852   3
  -7  -9   2 10997.7 682.435   2
  -7  -9   2 11178.5 794.344   4
  -9  16   2 11861.6 846.048   1
 -16   9   2 11785.1 871.730   4
 -16   9   2 11866.0 896.406   2
  -7  -9   2 11546.8 932.887   1
  16  -7   2 11976.1 957.452   1
  16  -7   2 10691.0 1337.16   3
   9   7   2 11080.8 832.355   3
  -9  16   5 6497.89 616.144   1
 -16   9   5 6373.04 768.900   2
 -16   9   5 6332.97 692.705   4
  -7  -9   5 8184.83 969.528   1
  16  -7   5 7327.48 800.106   1
  -7  -9   5 8703.57 600.789   2
   9   7   5 7286.24 862.026   3
 -16   9   5 7694.44 466.560   3
   7 -16   5 6882.28 898.077   1
  -9  16   5 9104.68 833.058   3
  -7  -9   8 2737.45 451.694   2
  16  -7   8 3122.33 639.366   1
 -16   9   8 2486.48 530.322   4
   7 -16   8 1971.88 691.363   1
 -16   9   8 2149.41 613.634   2
  -7  -9   8 2708.70 725.956   1
  16  -7   8 4759.59 1119.28   3
   9   7   8 3055.12 773.654   3
 -16   9   8 2305.86 480.805   3
  -9  16   8 1836.40 595.904   3
  -9  16  11-196.037 517.678   4
   7 -16  11 354.930 664.513   1
 -16   9  11-8.08880 534.278   1
 -16   9  11 228.552 647.474   2
  -7  -9  11-1240.28 1846.01   3
  16  -7  11 1051.76 831.832   3
  -7  -9  11 992.076 709.780   1
 -16   9  11 448.096 551.555   3
   9   7  11-1142.72 848.379   3
  -9  16  11 530.357 676.299   3
 -10  16  -8 15272.9 650.473   4
 -16  10  -8 20936.6 1280.21   4
  -6 -10  -5 1061.77 151.346   1
 -16  10  -5 1287.63 455.986   2
  10   6  -5 1319.82 377.939   2
 -10  16  -5 1611.38 349.931   4
  10   6  -5 1634.21 329.169   4
 -16  10  -5 1762.96 481.224   4
   6 -16  -5 1348.46 324.973   1
  -6 -10  -2 52858.8 1771.00   2
  10   6  -2 53927.1 1555.02   2
  10   6  -2 50860.6 1439.54   3
 -10  16  -2 52924.7 1634.11   4
   6 -16  -2 54364.9 1675.93   1
  -6 -10  -2 52598.3 1474.26   1
 -16  10  -2 52003.1 1740.57   4
  10   6  -2 51603.2 1545.10   4
 -10  16  -2 51374.7 1119.95   2
 -16  10  -2 53511.8 1697.17   2
  -6 -10  -2 48817.0 1906.81   4
 -10  16   1 18030.7 986.391   3
 -10  16   1 17948.7 1095.93   4
 -10  16   1 17674.4 930.220   2
  -6 -10   1 19079.8 1098.56   1
 -16  10   1 18349.6 1069.12   4
  16  -6   1 19111.9 785.825   3
  -6 -10   1 18856.7 1055.66   4
  -6 -10   1 18608.8 905.754   2
 -16  10   1 18603.2 1074.05   2
 -10  16   1 18159.8 1080.76   1
  10   6   1 19748.9 988.157   3
  -6 -10   1 18908.9 1016.31   3
   6 -16   1 18261.7 1125.84   1
 -16  10   4 31502.7 788.897   3
  16  -6   4 30766.4 1446.54   1
 -10  16   4 29020.7 1269.38   1
  -6 -10   4 32291.7 1621.49   1
 -16  10   4 30769.4 1416.27   4
 -16  10   4 31845.2 1522.97   2
  -6 -10   4 29801.0 982.067   2
   6 -16   4 29720.0 1583.20   1
  10   6   4 28295.9 1446.35   3
 -10  16   4 32166.4 1387.29   3
  16  -6   7 409.709 448.974   1
   6 -16   7 573.849 543.864   1
  10   6   7 255.378 535.228   3
 -10  16   7 397.818 351.078   1
 -16  10   7 804.019 487.110   2
 -16  10   7 53.4394 343.006   4
  -6 -10   7 140.982 234.492   2
  -6 -10   7 1854.20 711.275   1
 -10  16   7-127.236 429.622   3
  16  -6   7 496.116 693.680   3
 -16  10   7 331.380 288.778   3
 -10  16  10 9620.52 1094.11   4
 -16  10  10 13111.4 1194.19   1
 -16  10  10 12731.4 1359.30   2
 -16  10  10 11336.6 1019.64   4
  -6 -10  10 12167.2 1325.81   1
  16  -6  10 14027.9 1597.21   3
  10   6  10 15377.9 1588.04   3
 -16  10  10 14130.6 1148.49   3
 -10  16  10 14211.3 1327.68   3
   6 -16  10 12151.9 1327.49   1
 -16  11  -9 252.150 418.948   4
 -16  11  -6 1110.47 425.075   2
  11   5  -6 393.959 226.095   4
 -11  16  -6 554.506 264.586   4
 -16  11  -6-153.760 325.481   4
   5 -16  -3 1924.31 375.445   1
  11   5  -3 2192.27 392.129   4
 -16  11  -3 2326.19 489.465   4
  11   5  -3 2043.66 412.770   2
 -11  16  -3 1373.03 243.776   2
 -16  11  -3 2405.54 455.563   2
  -5 -11  -3 1713.79 316.820   1
 -11  16  -3 1261.15 345.549   4
  -5 -11   0 10213.4 705.561   2
  11   5   0 10777.1 695.945   3
 -11  16   0 9614.99 742.563   3
  -5 -11   0 9493.07 785.026   1
 -16  11   0 10261.6 823.408   4
 -16  11   0 8811.29 732.581   2
  11   5   0 10499.1 773.711   2
 -11  16   0 9912.21 809.495   4
  16  -5   0 10881.0 439.214   3
 -11  16   0 10322.8 687.232   2
  -5 -11   0 9236.79 777.590   3
   5 -16   0 12013.9 915.874   1
  -5 -11   3 608.253 232.833   2
 -11  16   3 417.086 296.468   3
 -11  16   3 233.408 396.025   4
 -16  11   3 540.739 344.519   4
 -16  11   3 215.119 349.139   2
 -16  11   3 533.488 162.915   3
   5 -16   3 704.693 498.091   1
 -11  16   3 142.225 298.771   2
  16  -5   3 100.419 327.549   1
  -5 -11   3 377.652 387.373   1
  11   5   3 717.119 385.891   3
 -11  16   3 1135.58 445.909   1
  16  -5   3 255.791 347.688   3
  -5 -11   6 15116.9 1259.63   1
 -11  16   6 16258.5 1103.37   3
 -16  11   6 13669.0 1164.42   2
  -5 -11   6 15417.8 686.456   2
 -16  11   6 16152.9 1100.27   4
  16  -5   6 16282.1 1294.22   3
 -11  16   6 12613.6 913.307   1
 -16  11   6 15186.4 811.741   3
   5 -16   6 15559.1 1300.95   1
  11   5   6 14875.2 1242.22   3
 -11  16   6 14786.8 1149.15   4
  16  -5   6 16151.3 1067.06   1
 -16  11   9 1401.67 503.000   4
   5 -16   9 1088.26 653.945   1
 -16  11   9 920.435 614.614   2
  -5 -11   9 832.411 300.208   2
  16  -5   9 882.366 440.337   1
  16  -5   9 1988.93 784.304   3
  -5 -11   9 2008.69 711.778   1
  11   5   9 975.051 743.995   3
 -16  11   9 1251.62 469.490   3
 -11  16   9 2435.17 663.944   3
 -11  16   9 1256.57 586.887   4
  12   4  -7 3724.97 416.386   4
 -16  12  -7 3662.10 614.208   2
 -12  16  -7 4844.58 515.412   4
 -16  12  -7 4318.90 631.529   4
 -12  16  -4 5517.42 581.513   4
  12   4  -4 5378.09 527.490   4
  -4 -12  -4 4889.86 386.515   1
   4 -16  -4 4282.22 472.570   1
 -16  12  -4 4687.35 617.860   4
 -16  12  -4 4498.42 561.479   2
 -12  16  -4 5576.71 445.945   2
   4 -16  -1 5209.67 595.140   1
  12   4  -1 4443.98 450.226   3
  -4 -12  -1 5031.65 590.398   2
 -12  16  -1 4400.72 569.846   4
 -16  12  -1 4125.07 507.453   2
 -16  12  -1 5443.27 627.848   4
  12   4  -1 4350.02 523.080   2
 -12  16  -1 5088.86 480.147   2
  -4 -12  -1 5080.48 562.858   1
 -12  16   2 4341.82 504.937   3
 -12  16   2 3696.67 572.515   1
  -4 -12   2 3926.74 592.078   1
 -12  16   2 3663.85 566.678   4
 -12  16   2 3818.96 562.719   2
 -16  12   2 4439.56 638.483   4
 -16  12   2 5016.25 616.739   2
  16  -4   2 4318.90 508.164   3
   4 -16   2 4239.72 648.876   1
  12   4   2 4091.39 544.127   3
  -4 -12   2 4169.28 419.790   2
 -12  16   5 782.247 420.872   1
 -16  12   5 870.071 284.329   3
 -12  16   5 674.101 361.735   3
 -12  16   5-235.193 431.095   2
   4 -16   5 295.412 483.537   1
  16  -4   5 717.538 441.243   3
  16  -4   5 956.183 378.961   1
 -12  16   5 1025.20 451.488   4
 -16  12   5 1035.74 490.840   2
 -16  12   5 1110.68 414.078   4
  -4 -12   5 1166.58 542.578   1
  -4 -12   5 637.181 186.758   2
  12   4   5 651.990 478.488   3
 -12  16   8 1405.65 543.704   3
 -16  12   8 1966.25 672.755   2
 -16  12   8 604.324 416.306   4
   4 -16   8 2544.69 727.011   1
 -16  12   8 1471.26 429.877   3
 -12  16   8 1189.53 604.053   2
  16  -4   8 1379.00 466.236   1
  16  -4   8 2040.13 773.506   3
  -4 -12   8 1754.56 705.681   1
  12   4   8 1632.77 695.757   3
  -4 -12   8 839.565 238.662   2
 -12  16   8 2225.33 608.689   4
  -4 -12  11 26.4272 673.604   1
  16  -4  11 1696.17 886.116   3
 -12  16  11-285.667 603.998   4
 -16  12  11 1022.98 816.913   2
 -12  16  11 643.174 823.599   2
   4 -16  11 743.510 685.467   1
  12   4  11 822.378 814.811   3
 -16  12  11 280.438 520.465   3
 -12  16  11 735.175 635.991   3
 -13  16  -8 34191.6 1239.26   4
 -16  13  -8 35871.6 1566.57   4
  13   3  -5-103.613 260.351   4
 -16  13  -5-109.301 313.512   2
 -13  16  -5-278.500 222.909   2
 -16  13  -5-158.563 345.154   4
 -13  16  -5 459.933 307.018   4
   3 -16  -5 93.5071 187.610   1
   3 -16  -2 49980.7 1563.87   1
  13   3  -2 49558.5 1239.81   3
 -16  13  -2 49253.4 1591.55   2
 -13  16  -2 47151.5 1623.40   4
 -16  13  -2 52818.5 1767.57   4
  13   3  -2 47055.9 1565.04   4
 -13  16  -2 49167.9 1328.74   2
  -3 -13  -2 51124.5 1516.64   1
 -13  16   1 3020.46 468.238   2
  -3 -13   1 3499.92 407.699   2
 -13  16   1 3321.70 452.173   3
 -13  16   1 4329.49 604.588   4
 -16  13   1 3105.62 550.022   4
  13   3   1 3593.96 450.820   3
 -16  13   1 3675.00 546.007   2
  -3 -13   1 3531.51 585.984   1
   3 -16   1 4099.49 632.811   1
  16  -3   1 3191.87 366.945   3
 -13  16   4 53152.4 1642.54   3
 -16  13   4 55612.7 1323.62   3
 -13  16   4 53042.6 2001.59   2
 -16  13   4 54222.9 1932.36   4
 -16  13   4 53774.5 2027.20   2
 -13  16   4 53070.6 1983.40   4
  -3 -13   4 55963.7 2189.17   1
   3 -16   4 53503.0 2130.20   1
  16  -3   4 52601.3 1886.04   3
  13   3   4 53147.7 1927.69   3
  -3 -13   4 52249.9 1037.56   2
 -16  13   7 959.633 398.769   3
 -13  16   7 902.186 448.441   3
 -16  13   7-81.5191 361.032   4
   3 -16   7 1145.58 650.014   1
 -13  16   7 377.060 484.634   2
  -3 -13   7 559.517 159.968   2
 -13  16   7 943.964 476.010   4
 -16  13   7 723.571 507.347   2
  16  -3   7 1195.86 636.858   3
  -3 -13   7 64.9194 541.112   1
  13   3   7 1761.81 714.996   3
 -13  16  10 12136.8 1400.09   2
 -13  16  10 12762.8 1205.89   4
  16  -3  10 13704.0 1556.91   3
 -16  13  10 14188.5 1488.77   2
  -3 -13  10 14183.9 1469.14   1
  13   3  10 15388.9 1619.83   3
   3 -16  10 12655.1 1416.57   1
 -16  13  10 14734.1 1237.40   3
 -16  13  10 11104.4 1047.83   4
 -13  16  10 14080.0 1331.49   3
 -14  16  -9 1728.72 402.873   4
 -16  14  -9 1404.01 463.477   4
  14   2  -6 4335.42 514.677   4
 -14  16  -6 3997.47 531.992   4
 -16  14  -6 3631.12 560.258   4
 -14  16  -6 3653.78 447.631   2
 -16  14  -6 4924.64 610.211   2
   2 -16  -3 7564.28 628.203   1
 -14  16  -3 6141.31 636.689   4
 -16  14  -3 5417.52 635.859   4
 -14  16  -3 7103.68 553.256   2
  -2 -14  -3 7635.30 577.099   1
 -16  14  -3 6831.03 635.890   2
  14   2   0 4646.22 439.130   3
 -16  14   0 4513.18 559.449   2
 -14  16   0 4436.92 595.459   4
 -16  14   0 4781.92 617.602   4
  -2 -14   0 3956.66 564.896   1
 -14  16   0 6037.54 592.230   2
   2 -16   0 4049.39 624.639   1
  16  -2   0 5473.06 396.760   3
  -2 -14   3 1812.27 244.097   2
 -16  14   3 1799.98 310.700   3
 -14  16   3 1670.39 362.065   3
 -14  16   3 1141.40 405.516   4
 -16  14   3 1874.49 481.620   4
 -14  16   3 1704.01 435.503   2
 -16  14   3 717.384 408.020   2
  -2 -14   3 1748.62 557.275   1
  16  -2   3 2080.09 445.061   3
  14   2   3 1750.24 416.912   3
   2 -16   3 1358.55 450.710   1
 -16  14   6 1866.05 431.719   3
 -14  16   6 1703.08 476.893   3
   2 -16   6 1875.08 622.413   1
 -14  16   6 1724.00 562.895   4
 -16  14   6 2318.24 588.986   4
 -16  14   6 1541.87 569.862   2
 -14  16   6 1000.50 522.039   2
  16  -2   6 873.711 514.355   3
  -2 -14   6 1302.68 544.790   1
  14   2   6 1343.14 517.400   3
 -14  16   9 2704.45 701.938   3
   2 -16   9 2092.93 726.315   1
 -14  16   9 1315.45 552.085   4
 -14  16   9 1571.38 686.816   2
 -16  14   9 882.394 565.153   2
 -16  14   9 1593.23 554.936   4
  16  -2   9-243.585 596.628   3
  14   2   9 1771.75 745.303   3
  -2 -14   9 959.534 588.514   1
 -16  14   9 1454.50 535.484   3
 -16  15  -7 1873.91 454.610   2
 -15  16  -7 1455.79 431.713   4
 -16  15  -7 1703.27 458.535   4
 -16  15  -4 419.678 348.250   4
 -15  16  -4 935.561 366.643   4
  -1 -15  -4 502.001 257.538   1
   1 -16  -4 348.549 236.884   1
 -15  16  -4 176.775 254.172   2
 -16  15  -4 333.345 264.405   2
  -1 -15  -1 2112.01 445.173   1
  16  -1  -1 1351.52 214.410   3
   1 -16  -1 1614.19 381.740   1
  15   1  -1 1473.31 258.614   3
 -15  16  -1 2185.03 472.964   4
 -16  15  -1 2397.11 521.284   4
 -16  15  -1 1620.94 378.940   2
 -15  16  -1 1669.14 376.882   2
   1 -16   2-319.837 394.637   1
 -15  16   2-54.2133 420.173   4
 -16  15   2 1244.65 410.676   2
  -1 -15   2 174.185 397.132   1
 -15  16   2 369.472 276.516   3
 -16  15   2 112.273 219.303   3
 -15  16   2-71.9627 317.671   2
 -16  15   2 237.508 348.086   4
  16  -1   2-0.73111 271.631   3
  15   1   2-62.7976 291.514   3
   1 -16   5 1084.98 538.756   1
 -15  16   5 1236.22 385.194   3
 -16  15   5 955.273 317.920   3
 -15  16   5 1905.97 531.536   4
 -16  15   5 1324.04 492.109   4
 -16  15   5 1813.35 563.961   2
 -15  16   5 1117.14 512.307   2
  16  -1   5 1643.28 511.615   3
  15   1   5 1297.87 473.626   3
  -1 -15   5 1763.31 616.923   1
 -16  15   8 360.233 385.976   3
 -15  16   8 81.5809 432.952   3
   1 -16   8 1674.94 722.045   1
 -15  16   8-88.2260 479.297   4
 -16  15   8-194.949 528.969   2
 -16  15   8 272.673 457.840   4
 -15  16   8 969.017 624.277   2
  16  -1   8 796.468 691.099   3
  15   1   8-216.441 572.496   3
  -1 -15   8 871.780 654.686   1
 -16  16  -8 11147.8 880.622   4
 -16  16  -5-53.4976 276.511   2
 -16  16  -5 17.8430 315.210   4
   0 -16  -5 72.0811 175.148   1
 -16  16  -2 68164.3 2093.34   4
 -16  16  -2 65571.2 1773.99   2
   0 -16  -2 67899.9 1841.67   1
  16   0   1-56.5266 253.248   3
 -16  16   1-433.792 421.855   4
 -16  16   1 126.250 301.005   2
   0 -16   1 202.293 366.556   1
   0 -16   4 30706.6 1718.99   1
 -16  16   4 30003.4 1581.83   2
 -16  16   4 31557.4 1198.27   3
 -16  16   4 32360.2 1616.38   4
  16   0   4 30812.1 1491.01   3
   0 -16   7 103.176 521.213   1
 -16  16   7 504.054 434.941   3
 -16  16   7-19.0773 511.018   2
 -16  16   7 387.707 543.411   4
  16   0   7 244.504 569.013   3
 -16  16  10 11384.0 1397.65   2
 -16  16  10 10457.4 1111.24   4
   0 -16  10 11871.5 1409.36   1
  16   0  10 12893.3 1556.13   3
 -16  16  10 13084.7 1196.63   3
 -17   0  -8 461.106 577.575   4
 -17   0  -5 354.896 486.182   2
 -17   0  -5-20.7116 423.197   4
   0  17  -5-550.230 312.162   4
  17 -17  -5 6.14018 399.408   3
   0  17  -2 3032.49 621.080   3
 -17   0  -2 2828.97 569.131   4
   0  17  -2 3513.35 334.895   2
  17 -17  -2 4436.08 756.034   1
 -17   0  -2 4640.32 691.620   2
  17 -17  -2 2763.17 440.090   3
  17 -17   1-2.10489 494.370   1
   0  17   1-240.068 394.991   2
   0  17   1 88.3248 379.470   3
  17 -17   1 4.12234 336.848   3
 -17   0   1-396.040 400.779   4
 -17   0   1-254.337 338.579   2
 -17   0   1 248.508 223.128   3
 -17   0   4 1121.11 226.272   3
  17 -17   4 530.442 327.342   2
  17 -17   4-184.217 480.321   1
   0  17   4 775.298 484.921   3
 -17   0   4 906.688 386.189   2
 -17   0   4 798.195 382.708   4
   0  17   7 453.154 511.830   3
 -17   0   7 254.108 342.369   4
 -17   0   7-490.271 381.821   2
 -17   0   7-341.571 1046.69   3
  17 -17   7-198.467 570.996   1
   0  17  10 1501.19 758.250   3
 -17   0  10 2096.92 785.914   1
  17 -17  10 3669.17 877.014   1
 -17   0  10 2002.86 738.788   2
 -16  -1  -9 401.981 571.960   4
 -17   1  -9 180.280 570.650   4
 -16  -1  -6 120.810 367.330   1
 -17   1  -6 965.195 574.905   2
 -16  -1  -6 237.341 530.107   2
   1  16  -6 391.113 213.045   4
  -1  17  -6 350.152 198.712   4
   1  16  -6 532.664 221.759   4
  -1  17  -6 583.617 248.972   4
 -16  -1  -6 262.289 506.355   4
 -17   1  -6 117.353 469.593   4
 -17   1  -6 560.119 445.383   1
   1  16  -3 5248.93 321.899   2
  16 -17  -3 7474.81 843.288   1
 -16  -1  -3 7880.65 893.696   4
  17 -16  -3 7675.78 881.276   1
 -17   1  -3 7483.87 884.638   4
   1  16  -3 7939.58 738.715   4
  -1  17  -3 5920.94 674.512   4
  17 -16  -3 6973.01 594.032   3
 -17   1  -3 8081.60 908.663   2
  16 -17  -3 5613.80 594.194   3
 -16  -1  -3 8550.52 899.978   2
  16 -17   0 3731.35 516.936   3
  17 -16   0 4137.45 504.945   3
   1  16   0 3276.49 592.227   3
  -1  17   0 3615.17 600.189   3
  16 -17   0 3321.27 648.116   1
  17 -16   0 4385.79 727.703   1
 -16  -1   0 3300.48 569.115   4
  -1  17   0 3433.81 460.689   2
 -17   1   0 3952.85 626.468   2
 -16  -1   0 3527.59 441.356   3
 -16  -1   0 4524.25 645.902   2
 -17   1   0 3105.03 589.009   4
   1  16   0 3004.31 454.986   2
  17 -16   3 5559.57 602.381   2
  16 -17   3 5801.12 590.646   2
 -17   1   3 7211.77 740.625   4
 -16  -1   3 6178.90 713.158   2
 -16  -1   3 7205.49 734.895   4
 -17   1   3 8115.09 801.557   2
  -1  17   3 5938.90 595.791   1
  16 -17   3 5663.42 840.159   1
  -1  17   3 6929.14 827.704   3
  17 -16   3 6783.13 900.501   1
 -17   1   3 5979.67 318.964   3
 -16  -1   3 6906.63 442.905   3
   1  16   3 6818.06 815.141   3
   1  16   6 1495.10 645.206   3
 -16  -1   6 1678.39 406.829   3
 -17   1   6 1750.59 361.310   3
  16 -17   6 1408.79 632.405   1
  -1  17   6 1660.82 608.769   3
 -17   1   6 1976.27 463.360   4
  16 -17   6 2130.31 445.576   2
 -16  -1   6 2078.45 438.939   4
 -17   1   6 1029.55 477.864   2
  17 -16   6 2235.71 660.464   1
 -17   1   6-558.109 919.250   3
 -16  -1   6 2179.07 527.600   2
  -1  17   9 1248.78 711.153   3
  16 -17   9 1715.08 711.843   1
 -17   1   9 929.674 495.795   3
 -16  -1   9 677.071 473.527   2
  17 -16   9 2158.86 827.509   1
 -17   1   9 1704.46 705.449   1
 -17   1   9 1433.84 609.985   2
  17 -16   9-115.674 1784.40   3
 -16  -1   9 753.955 1190.35   3
 -16  -1   9 2068.46 728.698   1
   1  16   9 1157.02 762.146   3
 -17   2 -10 4003.33 826.184   4
 -17   2  -7 19153.9 1459.23   2
 -15  -2  -7 17743.0 1553.35   2
 -17   2  -7 20476.4 1486.56   4
 -15  -2  -7 21956.8 1584.27   4
 -15  -2  -4 1252.48 394.313   1
 -17   2  -4 1234.85 491.227   2
 -17   2  -4 1550.83 511.947   4
 -15  -2  -4 2272.30 610.013   2
   2  15  -4 1034.66 346.505   4
  15 -17  -4 1726.45 510.194   1
  -2  17  -4 1806.63 396.111   4
   2  15  -4 1468.94 173.754   2
 -15  -2  -4 1709.27 566.707   4
  17 -15  -4 1653.60 361.847   3
  15 -17  -4 1603.76 409.939   3
  15 -17  -1 11355.3 1015.67   1
   2  15  -1 12720.7 974.233   3
  -2  17  -1 11009.4 925.481   3
 -15  -2  -1 11504.7 972.427   4
  15 -17  -1 10722.7 765.692   3
 -17   2  -1 13180.5 1013.99   4
  17 -15  -1 11790.8 1038.67   1
 -15  -2  -1 11480.5 775.643   3
   2  15  -1 10324.8 643.801   2
 -17   2  -1 11227.0 934.031   2
 -15  -2  -1 12160.1 968.075   2
  -2  17  -1 10384.2 600.305   2
  17 -15  -1 10426.3 644.093   3
  -2  17   2 21063.8 1294.63   3
  17 -15   2 19343.8 1046.13   3
  -2  17   2 18442.1 1009.52   1
   2  15   2 19690.7 1261.44   3
  15 -17   2 19692.1 980.507   2
 -17   2   2 19277.5 1142.22   4
  17 -15   2 18435.4 1030.74   2
 -15  -2   2 18565.8 1105.40   4
 -15  -2   2 19372.3 780.814   3
 -17   2   2 19500.7 1171.22   2
  15 -17   2 19701.5 1329.06   1
 -15  -2   2 21180.4 1166.71   2
  17 -15   2 20306.4 1373.72   1
 -17   2   5 23006.9 746.040   3
 -15  -2   5 22175.3 972.912   3
  -2  17   5 17306.8 710.882   1
  15 -17   5 20896.5 953.583   2
  15 -17   5 22769.3 1548.71   1
 -17   2   5 23124.2 1192.55   4
 -17   2   5 21482.7 1310.36   2
 -15  -2   5 23160.0 1275.83   2
 -15  -2   5 22660.7 1146.86   4
  17 -15   5 22501.1 1510.19   1
   2  15   5 21681.3 1458.02   3
  -2  17   5 21535.9 1425.79   3
 -15  -2   8 9556.49 704.651   4
  15 -17   8 9952.89 1218.76   1
 -15  -2   8 10382.3 992.104   2
 -17   2   8 10527.9 818.016   4
 -17   2   8 11553.0 1218.07   1
 -15  -2   8 11703.7 1261.03   1
 -17   2   8 9456.36 1059.54   2
 -17   2   8 9737.90 855.484   3
  17 -15   8-878.982 1974.31   3
 -15  -2   8 23.5896 1421.82   3
  17 -15   8 9320.30 1113.03   1
   2  15   8 8920.00 1148.13   3
  -2  17   8 9430.74 1137.16   3
 -14  -3  -8 2690.97 710.003   4
 -17   3  -8 2158.09 758.294   4
 -17   3  -8 2631.27 724.911   2
 -17   3  -5 847.868 448.359   2
 -14  -3  -5 535.026 543.793   2
  17 -14  -5 1124.26 968.527   3
  -3  17  -5 541.698 261.827   4
 -14  -3  -5 535.370 327.899   1
 -17   3  -5 440.411 395.540   4
   3  14  -5 514.568 260.983   4
 -14  -3  -5 33.2730 460.408   4
  -3  17  -5 410.778 276.006   4
  14 -17  -2 1777.33 393.491   3
  17 -14  -2 2765.49 523.918   1
 -14  -3  -2 1691.51 485.443   2
 -14  -3  -2 3321.77 566.872   4
   3  14  -2 3239.07 578.004   3
   3  14  -2 2464.20 329.341   2
  -3  17  -2 2339.85 515.242   3
  14 -17  -2 3092.44 596.704   1
 -17   3  -2 3046.36 595.639   4
   3  14  -2 1493.27 418.525   4
 -14  -3  -2 3148.82 533.027   3
  17 -14  -2 2273.75 324.074   3
  -3  17  -2 1641.37 213.350   2
 -17   3  -2 2799.31 560.214   2
 -14  -3  -2 2077.47 471.711   1
   3  14   1 6462.21 726.503   3
  -3  17   1 7701.65 800.297   3
  -3  17   1 5931.86 616.354   2
  17 -14   1 7683.54 604.608   3
  14 -17   1 7657.10 653.102   2
 -17   3   1 8093.52 781.480   4
  17 -14   1 7355.61 872.214   1
  -3  17   1 6591.26 699.702   1
 -14  -3   1 9021.59 823.899   4
 -17   3   1 8064.85 772.034   2
  14 -17   1 6461.15 802.789   1
 -14  -3   1 8685.36 779.445   2
   3  14   1 6792.28 667.017   2
 -14  -3   1 7866.62 570.483   3
   3  14   4 1876.51 525.622   3
  -3  17   4 2065.79 566.307   3
  14 -17   4 2127.01 604.149   1
 -14  -3   4 1978.02 354.820   3
 -17   3   4 1768.27 457.453   4
  14 -17   4 1837.99 348.883   2
 -17   3   4 1833.37 469.120   2
  -3  17   4 1688.20 367.762   1
 -14  -3   4 1733.30 425.004   2
 -17   3   4 1330.14 142.652   3
  17 -14   4 1674.91 551.348   1
 -17   3   4 1709.60 148.034   3
 -14  -3   4 1930.24 448.608   4
  -3  17   7 632.045 561.202   3
  17 -14   7 647.143 519.319   1
 -17   3   7 944.289 398.434   4
   3  14   7 925.496 569.052   3
 -14  -3   7 661.682 594.022   1
 -14  -3   7 1322.37 358.119   4
 -14  -3   7 1681.01 493.714   2
 -17   3   7 870.176 473.405   2
 -17   3   7 910.372 339.516   3
  14 -17   7 1010.68 603.553   1
  14 -17  10-536.297 642.464   1
 -14  -3  10 472.266 461.983   2
 -17   3  10 1411.25 681.957   1
 -14  -3  10 962.145 781.354   1
  17 -14  10 479.904 549.512   1
  14 -17  10-1620.82 2347.20   3
  17 -14  10-497.231 2677.31   3
 -14  -3  10 1436.15 1748.76   3
 -17   3  10 466.388 541.912   3
   3  14  10 163.494 664.523   3
 -17   3  10 748.599 610.540   2
  -3  17  10 504.559 628.236   3
 -17   4  -9 756.759 567.307   4
 -17   4  -6 3499.68 711.965   2
  -4  17  -6 2531.59 305.849   4
 -13  -4  -6 3445.12 716.572   2
 -13  -4  -6 3008.57 436.993   1
  -4  17  -6 2361.89 336.960   4
 -17   4  -6 3444.72 673.535   4
 -13  -4  -6 3794.81 728.604   4
   4  13  -6 1980.29 248.813   4
  13 -17  -3 409.651 377.077   1
 -13  -4  -3 403.660 373.802   2
   4  13  -3 246.869 274.661   4
 -13  -4  -3 1030.27 451.114   4
 -17   4  -3 793.907 382.671   4
  17 -13  -3 840.280 247.096   3
   4  13  -3 1008.70 247.632   2
 -13  -4  -3 671.895 331.174   1
  13 -17  -3 433.106 307.873   3
 -17   4  -3 992.392 422.655   2
  13 -17   0 687.731 360.731   3
 -17   4   0 904.048 374.193   4
   4  13   0 485.923 379.418   3
  17 -13   0 951.394 289.688   3
  -4  17   0 1219.46 459.623   3
  -4  17   0 380.053 247.669   2
  17 -13   0 1031.37 447.322   1
 -13  -4   0 354.596 336.281   2
   4  13   0 764.514 329.411   2
  13 -17   0 689.877 497.166   1
 -13  -4   0 1055.37 408.646   4
 -17   4   0 257.490 353.719   2
 -13  -4   0 1077.49 331.954   3
  -4  17   3 4598.19 660.632   3
  17 -13   3 5931.41 804.383   1
  13 -17   3 5471.69 791.898   1
  -4  17   3 4801.72 538.921   1
 -17   4   3 5588.88 637.593   4
 -13  -4   3 5061.42 578.993   4
  13 -17   3 5169.90 467.172   2
 -17   4   3 4465.60 644.023   2
   4  13   3 5520.67 734.887   3
 -13  -4   3 4957.60 582.793   2
 -13  -4   3 5356.73 502.043   3
  -4  17   6 563.401 467.292   3
 -17   4   6 1574.12 555.979   2
 -17   4   6 666.205 264.400   3
 -17   4   6 1221.95 288.575   3
  13 -17   6 518.897 245.317   2
  -4  17   6 251.364 152.503   1
 -13  -4   6 1047.00 575.558   1
 -13  -4   6 642.639 295.255   4
 -13  -4   6 849.780 390.621   2
  17 -13   6 343.013 502.725   1
 -17   4   6 507.985 357.421   4
  13 -17   6 1078.41 587.232   1
   4  13   6 1007.84 558.237   3
  -4  17   9 598.665 668.024   3
 -17   4   9 315.890 519.081   1
 -17   4   9 781.087 373.829   4
 -13  -4   9 538.767 543.026   1
 -13  -4   9 348.646 386.534   2
 -17   4   9-544.318 506.880   2
  17 -13   9 468.112 2120.76   3
  17 -13   9 276.871 544.825   1
 -17   4   9 270.672 435.755   3
 -13  -4   9-128.853 1554.07   3
  13 -17   9 423.291 553.006   1
   4  13   9 581.755 675.099   3
 -17   5 -10 173.696 508.503   4
 -17   5  -7 12855.7 1193.36   2
 -12  -5  -7 9653.74 438.804   1
 -17   5  -7 10362.7 1038.88   4
 -12  -5  -7 12224.5 1218.45   4
 -12  -5  -4 7151.39 620.552   1
  12 -17  -4 6306.03 684.958   1
 -12  -5  -4 7673.25 838.894   2
 -17   5  -4 6375.87 786.246   4
  -5  17  -4 6195.97 562.571   4
   5  12  -4 7369.24 599.056   4
 -12  -5  -4 5809.01 813.948   4
   5  12  -4 7052.11 485.647   2
 -17   5  -4 6193.54 775.329   2
  -5  17  -1 12679.3 626.143   2
   5  12  -1 12419.7 892.507   3
  -5  17  -1 11744.6 921.584   3
 -17   5  -1 11090.7 883.008   4
 -12  -5  -1 12882.5 1004.87   4
   5  12  -1 12124.2 887.677   4
 -17   5  -1 14479.1 995.852   2
  12 -17  -1 14228.8 1058.56   1
 -12  -5  -1 12187.8 819.136   3
  17 -12  -1 12829.1 1045.89   1
 -12  -5  -1 13507.4 975.705   2
   5  12  -1 12978.9 730.644   2
  17 -12  -1 12797.4 538.027   3
  12 -17  -1 11047.0 809.927   3
  -5  17   2 5442.60 667.727   3
  -5  17   2 5976.53 631.311   1
  12 -17   2 5569.96 776.424   1
 -17   5   2 5844.07 672.114   4
 -17   5   2 6845.69 716.707   2
 -12  -5   2 7533.76 710.253   4
 -12  -5   2 6155.26 623.277   2
  17 -12   2 7227.13 875.255   1
 -12  -5   2 6549.13 561.312   3
   5  12   2 7322.24 745.121   3
 -12  -5   5 26218.3 1200.13   3
 -17   5   5 28150.5 703.193   3
  12 -17   5 31770.2 1747.41   1
 -12  -5   5 29017.6 1671.62   1
  12 -17   5 24200.8 769.200   2
 -17   5   5 28682.1 1336.27   4
 -17   5   5 29226.8 1536.76   2
 -12  -5   5 28970.4 1291.99   2
  -5  17   5 25135.7 952.663   1
 -12  -5   5 28394.6 1181.40   4
 -17   5   5 26137.0 700.480   3
   5  12   5 28566.0 1585.10   3
  17 -12   5 27909.9 1592.40   1
  -5  17   5 27274.9 1535.22   3
  12 -17   8 5967.88 988.142   1
 -17   5   8 4710.26 625.723   4
 -12  -5   8 6376.24 741.655   2
 -12  -5   8 4135.43 812.749   1
 -12  -5   8 4805.90 412.110   4
 -17   5   8 4261.81 762.107   2
 -17   5   8 4954.27 600.714   3
  17 -12   8 5353.67 840.693   1
  -5  17   8 6096.20 938.022   3
   5  12   8 4651.12 871.995   3
 -17   5  11 4023.99 898.206   2
  12 -17  11 4137.16 963.820   1
 -17   6  -8 1028.94 614.915   2
 -17   6  -8 516.397 499.955   4
 -11  -6  -5 6835.07 932.744   2
  -6  17  -5 8515.82 579.687   4
   6  11  -5 8587.14 564.247   4
 -17   6  -5 10171.9 952.934   4
 -11  -6  -5 8990.35 1003.21   4
 -11  -6  -5 10343.5 633.722   1
 -17   6  -5 8814.49 886.155   2
   6  11  -2 1384.87 381.955   4
  -6  17  -2 1090.17 187.674   2
 -11  -6  -2 1893.16 488.362   2
   6  11  -2 1287.63 402.967   3
  11 -17  -2 1255.32 379.771   3
  -6  17  -2 969.152 162.612   2
 -17   6  -2 1594.83 442.978   4
 -11  -6  -2 1182.43 444.536   4
   6  11  -2 1196.35 280.293   2
 -17   6  -2 1731.53 532.277   2
  17 -11  -2 1218.03 155.179   3
  11 -17  -2 1026.83 376.442   1
   6  11   1 48715.2 1715.30   3
  -6  17   1 45691.5 1703.60   3
  11 -17   1 48807.5 1918.08   1
 -17   6   1 46641.0 1702.97   4
 -17   6   1 49222.0 1761.61   2
  -6  17   1 45359.4 1628.11   1
  17 -11   1 49805.7 1941.90   1
 -11  -6   1 50557.8 1644.78   2
   6  11   1 47397.9 1607.20   2
 -11  -6   1 47959.0 1743.35   4
 -11  -6   1 46708.9 1413.35   3
 -11  -6   4 3723.16 521.967   3
 -17   6   4 5006.06 706.585   2
  17 -11   4 4252.77 711.532   1
 -17   6   4 3320.49 501.197   4
  11 -17   4 4396.90 768.202   1
 -11  -6   4 4395.53 519.408   4
  11 -17   4 3823.21 299.391   2
 -11  -6   4 4877.55 716.942   1
 -11  -6   4 4158.30 520.811   2
  -6  17   4 4291.56 677.483   3
  -6  17   4 4791.11 504.319   1
   6  11   4 3824.51 660.236   3
  -6  17   7 2178.27 635.121   3
  17 -11   7 2927.41 634.465   1
 -17   6   7 2705.20 499.554   4
  -6  17   7 993.417 189.314   1
 -11  -6   7 2650.88 490.433   2
 -17   6   7 2203.32 607.803   2
 -11  -6   7 1928.57 320.433   4
  11 -17   7 3292.86 782.547   1
 -11  -6   7 3069.12 712.143   1
 -17   6   7 2155.19 417.234   3
  11 -17   7 918.962 189.667   2
   6  11   7 2478.28 739.971   3
 -17   6  10 127.518 505.678   1
   6  11  10 2413.09 924.771   3
  17 -11  10 547.067 579.852   1
 -17   6  10 488.256 578.961   2
 -11  -6  10-227.810 405.404   2
 -11  -6  10 478.540 615.926   1
 -11  -6  10-762.575 1669.76   3
  11 -17  10 387.378 628.122   1
  17 -11  10-784.671 1470.74   3
 -17   6  10-205.780 480.546   3
  -6  17  10 657.398 663.616   3
 -17   7  -9 274.046 476.937   4
 -10  -7  -6 2331.43 240.218   1
 -17   7  -6 1788.68 481.008   2
 -10  -7  -6 2315.25 230.828   1
  -7  17  -6 2137.79 319.500   4
 -17   7  -6 2753.37 596.173   4
   7  10  -6 1876.83 270.278   4
 -10  -7  -6 2581.38 677.890   4
  10 -17  -3 2136.39 489.098   1
 -17   7  -3 2552.95 520.643   4
 -10  -7  -3 2643.70 547.696   2
  -7  17  -3 1710.27 378.437   4
   7  10  -3 1589.86 362.717   4
 -10  -7  -3 2116.70 574.751   4
   7  10  -3 1407.65 312.532   2
 -17   7  -3 2116.60 493.361   2
   7  10   0 3499.89 539.929   3
  17 -10   0 3143.10 283.303   3
  -7  17   0 3474.43 548.744   3
  10 -17   0 4529.45 647.409   1
 -17   7   0 3416.59 540.301   2
 -17   7   0 3427.96 550.459   4
  17 -10   0 3792.86 610.425   1
 -10  -7   0 2623.40 500.795   4
   7  10   0 2593.61 436.998   2
 -10  -7   0 3493.99 543.898   2
 -10  -7   0 2661.88 422.974   3
  -7  17   3 4351.23 603.068   3
 -10  -7   3 4917.57 572.325   3
 -10  -7   3 4820.15 533.783   2
  10 -17   3 6025.84 818.070   1
 -17   7   3 4767.31 592.961   4
 -10  -7   3 4664.22 562.201   4
  17 -10   3 4476.15 706.665   1
  -7  17   3 3921.36 515.931   1
 -10  -7   3 4163.81 657.341   1
 -17   7   3 5326.25 695.858   2
   7  10   3 4686.80 661.991   3
  -7  17   6 2281.03 588.264   3
  -7  17   6 1137.93 312.047   1
  17 -10   6 698.674 488.453   1
 -17   7   6 358.437 404.798   2
 -10  -7   6 872.618 463.723   1
  10 -17   6 1175.36 601.095   1
 -10  -7   6 665.746 283.032   4
   7  10   6 947.942 552.990   3
 -10  -7   6 999.209 332.631   2
 -17   7   6 1263.19 384.642   4
 -17   7   6 1425.36 317.605   3
  17 -10   9 1739.28 639.783   1
 -17   7   9 2632.58 711.305   2
 -10  -7   9 2510.56 513.511   2
 -10  -7   9 3254.27 803.954   1
  10 -17   9 3180.58 802.026   1
  17 -10   9 2442.72 1709.91   3
 -17   7   9 3061.73 582.380   3
   7  10   9 1669.45 765.717   3
 -17   7   9 2983.84 558.871   4
  -7  17   9 2964.47 756.742   3
 -17   8 -10 698.876 511.223   4
 -17   8  -7 10471.6 1019.85   2
  -8  17  -7 7152.28 442.972   4
 -17   8  -7 9773.63 969.655   4
  -9  -8  -4 4235.52 706.687   2
   8   9  -4 3097.72 414.044   4
   8   9  -4 3536.13 456.324   2
  -9  -8  -4 3685.20 413.349   1
  -9  -8  -4 4239.00 435.369   1
  -8  17  -4 2902.11 421.280   4
   9 -17  -4 3166.09 494.572   1
 -17   8  -4 3848.14 607.458   4
  -9  -8  -4 2393.41 631.836   4
 -17   8  -4 3592.06 597.815   2
  -8  17  -1 32344.1 971.940   2
   8   9  -1 30358.2 1259.39   3
  -8  17  -1 33498.9 1470.29   3
  -9  -8  -1 31950.9 1339.03   3
  -9  -8  -1 31944.3 1312.09   1
 -17   8  -1 34503.6 1484.76   4
   9 -17  -1 31764.3 1435.72   1
   8   9  -1 31835.2 1339.71   4
   8   9  -1 33605.6 1219.50   2
  -9  -8  -1 29480.9 1472.48   4
 -17   8  -1 32033.9 1394.41   2
  -9  -8  -1 33157.9 1421.94   2
  -8  17   2 10131.3 822.299   3
   9 -17   2 9645.46 933.467   1
  -9  -8   2 9252.44 776.396   4
  -9  -8   2 10734.0 915.190   1
 -17   8   2 9417.69 784.006   4
 -17   8   2 9926.50 854.393   2
  17  -9   2 8071.30 1514.28   3
  -9  -8   2 10274.3 731.000   2
  -8  17   2 8402.18 738.337   1
  17  -9   2 9959.96 919.906   1
   8   9   2 9409.97 823.590   3
  -9  -8   2 10178.3 753.647   3
 -17   8   5 27014.3 1337.97   4
 -17   8   5 29439.6 1557.81   2
  17  -9   5 28767.8 1535.01   1
  -9  -8   5 27155.8 1578.41   1
   9 -17   5 27129.0 1609.29   1
  -9  -8   5 28933.6 1139.93   2
  -9  -8   5 25776.5 1052.66   4
  -8  17   5 25944.1 1107.84   1
   8   9   5 26481.3 1527.40   3
 -17   8   5 29008.0 754.527   3
  -8  17   5 28662.0 1475.62   3
  -8  17   8 1979.15 642.581   3
  17  -9   8 2568.19 638.418   1
 -17   8   8 1848.54 482.901   4
 -17   8   8 2338.05 645.160   2
  -9  -8   8 1547.08 400.092   2
   8   9   8 2879.04 814.109   3
   9 -17   8 2053.41 647.388   1
  -9  -8   8 2058.18 669.391   1
  17  -9   8-397.494 1116.29   3
 -17   8   8 2475.30 501.699   3
  -8  17  11 3862.01 844.690   4
 -17   8  11 6987.57 979.997   1
 -17   8  11 4952.28 982.727   2
  -9  -8  11 5747.62 1119.63   1
  17  -9  11 7879.60 1528.85   3
  -9  -8  11 1455.30 2132.56   3
   9 -17  11 4663.04 1019.21   1
   8   9  11 6652.65 1227.91   3
  -8  17  11 7074.36 1129.87   3
 -17   9  -8 1705.60 582.585   2
  -9  17  -8 1059.19 189.703   4
 -17   9  -8 1174.18 515.607   4
  -8  -9  -5 22904.1 725.863   1
   8 -17  -5 25242.2 1057.18   1
   9   8  -5 23265.1 1072.27   2
  -9  17  -5 23378.1 992.268   4
   9   8  -5 24261.9 931.524   4
  -8  -9  -5 25142.9 734.571   1
 -17   9  -5 24744.6 1368.82   4
 -17   9  -5 25225.4 1359.85   2
  -8  -9  -2 9169.75 824.182   2
   9   8  -2 9364.85 720.282   3
  -9  17  -2 8607.87 724.378   4
  -8  -9  -2 11139.6 738.270   1
  -9  17  -2 8620.68 456.620   2
   9   8  -2 8942.52 659.108   2
   9   8  -2 10150.4 765.671   4
   8 -17  -2 8922.37 779.062   1
  -8  -9  -2 9170.01 892.290   4
 -17   9  -2 11311.9 880.637   2
 -17   9  -2 10168.4 849.016   4
  -9  17   1 30737.3 1327.35   3
   8 -17   1 32407.4 1530.02   1
  -9  17   1 32093.0 1236.70   2
 -17   9   1 32094.9 1429.63   4
  17  -8   1 33134.5 1569.16   1
  -8  -9   1 32810.2 1466.52   1
 -17   9   1 32403.0 1398.33   2
  -8  -9   1 31586.5 1406.79   4
  -9  17   1 30322.5 1394.37   1
  -8  -9   1 32703.8 1249.49   2
  -8  -9   1 32755.6 1291.15   3
   9   8   1 33286.2 1341.72   3
 -17   9   4 3512.87 204.324   3
  -8  -9   4 5126.96 774.938   1
 -17   9   4 3589.04 622.772   2
 -17   9   4 3300.91 546.446   4
  -8  -9   4 4173.00 505.525   4
  -8  -9   4 4126.70 457.142   2
  17  -8   4 4162.13 668.009   1
   9   8   4 4865.33 699.265   3
  -9  17   4 3469.09 515.629   1
   8 -17   4 3704.64 670.929   1
  -9  17   4 4074.67 609.165   3
   8 -17   7 11228.0 1230.68   1
 -17   9   7 9754.15 1067.83   2
  17  -8   7 11247.5 999.794   1
 -17   9   7 9207.35 896.844   4
  -8  -9   7 9761.31 1104.62   1
  -8  -9   7 10175.5 711.536   2
   9   8   7 10270.5 1095.86   3
  -9  17   7 9639.66 680.252   1
  -9  17   7 10741.5 1035.29   3
 -17   9   7 10597.3 726.671   3
  -9  17  10 1696.35 661.507   4
 -17   9  10 2023.65 679.396   1
 -17   9  10 618.189 455.996   4
   8 -17  10 888.512 690.705   1
 -17   9  10 1416.83 661.107   2
  -8  -9  10-876.981 1527.72   3
  -8  -9  10 835.894 766.920   1
  17  -8  10 1404.42 901.529   3
 -17   9  10 1224.79 549.471   3
   9   8  10 847.348 679.199   3
  17  -8  10 1264.43 610.038   1
  -9  17  10 1423.37 653.514   3
 -17  10  -9 4476.24 709.211   4
 -17  10  -6 794.461 394.687   2
 -10  17  -6 590.620 248.472   4
 -17  10  -6 752.330 439.575   4
  10   7  -6 573.241 234.658   4
  10   7  -3 4308.62 500.956   4
  -7 -10  -3 4490.97 683.838   2
 -10  17  -3 5305.12 581.383   4
  -7 -10  -3 5529.73 508.848   1
  10   7  -3 4757.24 525.803   2
 -17  10  -3 4003.96 588.750   4
 -10  17  -3 4288.84 307.472   2
   7 -17  -3 3487.33 482.330   1
 -17  10  -3 4201.24 573.440   2
  10   7   0 4505.93 537.076   3
  -7 -10   0 3324.64 471.450   2
 -17  10   0 4461.53 574.882   2
   7 -17   0 6040.87 738.111   1
 -10  17   0 4998.61 592.856   3
 -10  17   0 4647.25 605.741   4
 -10  17   0 3707.94 443.519   2
  -7 -10   0 4078.54 586.032   1
 -17  10   0 3962.12 570.774   4
  -7 -10   0 3478.52 584.771   4
  17  -7   0 4157.35 294.379   3
  -7 -10   0 4151.37 565.575   3
  10   7   0 3207.35 471.815   2
 -10  17   3 2084.20 470.465   3
  17  -7   3 937.499 386.582   1
  -7 -10   3 1763.73 356.305   4
 -17  10   3 2534.38 520.245   4
   7 -17   3 2535.58 595.459   1
 -17  10   3 2265.15 520.965   2
 -10  17   3 1647.58 435.844   1
  -7 -10   3 1514.96 449.836   1
  -7 -10   3 1828.66 353.102   2
  17  -7   3 2142.42 669.966   3
  10   7   3 2829.17 543.993   3
 -10  17   6 2410.55 546.671   3
 -10  17   6 2550.43 496.995   1
  17  -7   6 1603.37 498.480   1
   7 -17   6 3038.29 764.994   1
  -7 -10   6 2255.06 344.715   2
 -17  10   6 2367.99 653.875   2
 -17  10   6 3145.71 581.103   4
  -7 -10   6 2367.57 662.500   1
  17  -7   6 2900.05 924.727   3
  10   7   6 3642.21 731.254   3
 -17  10   6 2426.66 363.026   3
 -10  17   9 475.756 556.104   3
  17  -7   9 569.672 477.891   1
 -10  17   9 56.0684 490.236   4
 -17  10   9 1070.20 612.390   2
 -17  10   9 508.284 479.027   4
  -7 -10   9 477.399 322.844   2
   7 -17   9 361.263 616.607   1
  -7 -10   9 1731.75 747.562   1
  17  -7   9 168.935 648.670   3
  10   7   9 185.410 627.245   3
 -17  10   9-382.195 440.836   3
 -17  11 -10 785.771 505.149   4
 -17  11  -7 2252.88 546.203   2
  11   6  -7 1926.87 299.402   4
 -11  17  -7 1743.91 340.290   4
 -17  11  -7 1758.82 495.317   4
  -6 -11  -4 4086.18 385.270   1
 -17  11  -4 3520.92 575.685   4
  11   6  -4 3037.05 478.915   2
  11   6  -4 3397.51 455.505   4
 -17  11  -4 4676.52 598.407   2
 -11  17  -4 3448.62 303.303   2
 -11  17  -4 2619.46 419.396   4
   6 -17  -4 3420.25 462.644   1
  -6 -11  -1 43321.7 1560.54   2
 -17  11  -1 44806.5 1598.10   2
  11   6  -1 43938.1 1370.99   3
   6 -17  -1 48152.8 1704.81   1
  -6 -11  -1 46136.0 1541.63   1
 -11  17  -1 42502.2 1219.97   2
  11   6  -1 44536.4 1499.95   2
 -17  11  -1 43414.6 1638.45   4
 -11  17  -1 44719.1 1599.48   4
  11   6   2 1937.37 451.742   3
 -11  17   2 1787.07 390.828   3
 -17  11   2 1856.59 452.024   2
   6 -17   2 1341.08 482.923   1
 -17  11   2 2074.44 448.186   4
 -11  17   2 2104.52 466.248   2
 -11  17   2 1914.81 498.038   1
  -6 -11   2 2127.47 520.742   1
  17  -6   2 1916.34 406.693   3
 -11  17   2 1570.38 454.835   4
  -6 -11   2 1886.46 354.023   2
  17  -6   5 10783.7 940.301   1
 -11  17   5 9497.50 784.657   1
 -17  11   5 9833.85 872.176   4
  17  -6   5 11244.6 1096.76   3
 -17  11   5 10555.8 995.281   2
  -6 -11   5 11093.9 1066.34   1
  -6 -11   5 9730.53 588.576   2
   6 -17   5 9910.59 1050.93   1
  11   6   5 11973.0 1057.45   3
 -17  11   5 10532.1 564.972   3
 -11  17   5 11872.2 938.723   3
 -11  17   8 124.273 475.410   3
 -17  11   8 460.117 404.526   4
   6 -17   8 574.582 549.582   1
  17  -6   8 634.690 462.463   1
  -6 -11   8 118.888 249.937   2
 -11  17   8 600.822 489.518   4
  -6 -11   8-511.594 520.036   1
 -17  11   8 213.549 463.374   2
  17  -6   8-239.490 598.460   3
  11   6   8 253.528 597.887   3
 -17  11   8 711.683 353.625   3
 -11  17  11 918.799 685.964   4
 -11  17  11 2684.63 905.673   2
 -17  11  11 847.857 573.771   1
   6 -17  11 2859.75 910.052   1
 -17  11  11-57.2630 642.346   2
  -6 -11  11 710.328 2095.59   3
  17  -6  11 344.173 875.639   3
  11   6  11-207.752 773.596   3
  -6 -11  11 1257.04 775.769   1
 -11  17  11-406.674 649.670   3
 -17  12  -8 4791.66 735.025   2
 -17  12  -8 5868.19 762.830   4
 -12  17  -8 5253.40 493.398   4
 -12  17  -5 26716.4 827.202   2
   5 -17  -5 26518.2 969.979   1
  12   5  -5 28459.1 1141.28   4
 -12  17  -5 28589.3 1200.97   4
 -17  12  -5 24788.0 1309.32   4
 -17  12  -5 28273.9 1354.19   2
  -5 -12  -2 5504.25 550.615   1
  12   5  -2 4458.77 465.584   3
   5 -17  -2 5615.73 632.939   1
 -17  12  -2 5491.82 637.731   4
 -12  17  -2 5135.82 601.372   4
  12   5  -2 5727.98 611.818   4
 -12  17  -2 5183.39 442.910   2
 -17  12  -2 5865.68 630.264   2
  -5 -12   1 11341.3 718.940   2
 -12  17   1 11963.0 813.646   3
 -12  17   1 12357.2 950.885   4
 -17  12   1 12135.8 946.342   4
  -5 -12   1 13237.5 1001.97   1
  17  -5   1 12854.8 659.887   3
 -12  17   1 11513.7 804.706   2
 -17  12   1 11288.4 866.736   2
   5 -17   1 13059.0 999.205   1
  12   5   1 12518.4 800.014   3
 -12  17   4 6848.88 700.388   3
 -17  12   4 7084.90 432.359   3
 -12  17   4 5879.95 700.965   1
 -12  17   4 5042.84 711.492   2
 -12  17   4 5958.65 760.500   4
 -17  12   4 8490.90 819.926   4
 -17  12   4 6187.58 788.847   2
  17  -5   4 6594.79 740.371   1
  17  -5   4 6760.69 760.418   3
  -5 -12   4 6984.31 488.451   2
   5 -17   4 6068.04 838.410   1
  -5 -12   4 6877.62 872.115   1
  12   5   4 7102.61 797.888   3
  17  -5   7 10770.3 937.455   1
 -12  17   7 9946.26 1126.39   2
 -12  17   7 10239.8 1086.77   4
 -17  12   7 8828.59 1058.09   2
 -17  12   7 9938.92 932.358   4
  -5 -12   7 11953.9 1197.17   1
  -5 -12   7 9119.44 542.884   2
  17  -5   7 11086.7 1212.01   3
   5 -17   7 9645.58 1118.44   1
  12   5   7 12030.5 1224.01   3
 -17  12   7 9525.93 731.256   3
 -12  17   7 9649.50 955.689   3
 -12  17  10 1999.31 718.085   3
 -12  17  10 729.751 583.936   4
   5 -17  10 1312.51 739.999   1
 -17  12  10 607.715 522.888   4
 -17  12  10-492.827 669.334   2
 -12  17  10 361.757 643.377   2
  17  -5  10 962.233 811.417   3
  12   5  10 1264.49 726.970   3
  -5 -12  10 1661.32 767.579   1
 -17  12  10 558.695 467.626   3
 -17  13  -9 864.784 466.472   4
  13   4  -6 756.036 326.988   4
 -17  13  -6 519.369 371.764   2
 -17  13  -6 457.165 360.411   4
 -13  17  -6 611.469 306.293   4
  13   4  -3 5335.00 583.788   4
 -13  17  -3 5110.18 581.169   4
   4 -17  -3 5222.03 573.107   1
  -4 -13  -3 5893.43 513.442   1
 -17  13  -3 3951.59 576.576   4
 -13  17  -3 5166.32 438.684   2
 -17  13  -3 6776.88 653.606   2
  17  -4   0 832.276 179.747   3
  13   4   0 413.988 272.083   3
  -4 -13   0 1021.19 348.503   2
 -13  17   0 256.830 412.929   4
   4 -17   0 469.349 373.849   1
 -17  13   0 707.254 389.949   4
 -13  17   0 721.495 304.340   2
 -17  13   0 536.366 313.739   2
  -4 -13   0 1359.92 434.611   1
  -4 -13   3 896.814 241.957   2
 -13  17   3 786.554 341.393   3
   4 -17   3 850.519 453.037   1
 -17  13   3 694.758 206.795   3
 -17  13   3 1119.17 421.158   4
 -17  13   3 572.544 364.316   2
 -13  17   3 454.611 380.884   4
  -4 -13   3 307.849 435.750   1
  17  -4   3 743.179 366.725   3
 -13  17   3 406.212 325.968   2
  13   4   3 622.982 372.024   3
   4 -17   6 2793.97 640.134   1
 -13  17   6 3857.81 718.635   2
 -13  17   6 4172.52 700.340   4
  17  -4   6 4025.40 592.110   1
 -17  13   6 2485.62 622.222   2
  17  -4   6 5094.60 837.855   3
  -4 -13   6 3347.24 311.743   2
  -4 -13   6 3099.94 708.740   1
  13   4   6 4392.33 770.388   3
 -17  13   6 3675.52 630.056   4
 -17  13   6 4273.82 508.885   3
 -13  17   6 3483.81 593.028   3
 -13  17   9 2112.89 674.172   3
   4 -17   9 1924.22 771.849   1
 -13  17   9 303.039 507.643   4
 -13  17   9 540.292 610.725   2
 -17  13   9 1382.28 532.590   4
 -17  13   9 1338.47 627.075   2
 -17  13   9 1753.04 528.342   3
  17  -4   9 1092.05 701.889   3
  13   4   9 529.526 694.042   3
  -4 -13   9 1685.52 730.411   1
 -17  14  -7 1193.69 466.550   2
 -14  17  -7 1176.20 372.708   4
  14   3  -7 472.354 321.748   4
 -17  14  -7 874.863 407.228   4
 -17  14  -4 2265.34 490.531   4
 -14  17  -4 1756.50 431.154   4
  14   3  -4 1763.12 407.591   4
   3 -17  -4 1962.68 369.145   1
 -14  17  -4 1808.10 337.348   2
  -3 -14  -4 1979.63 316.689   1
 -17  14  -4 1850.44 451.598   2
  14   3  -1 7060.57 517.801   3
  17  -3  -1 6297.74 267.790   3
 -14  17  -1 6824.63 718.569   4
 -17  14  -1 7325.19 769.944   4
 -14  17  -1 7325.09 628.216   2
 -17  14  -1 6954.36 662.557   2
  -3 -14  -1 7006.61 667.886   1
   3 -17  -1 7459.46 723.968   1
 -14  17   2 2007.13 414.152   3
   3 -17   2 1865.54 522.803   1
  -3 -14   2 1430.88 295.576   2
 -17  14   2 2029.78 537.732   4
 -14  17   2 1147.34 402.091   4
 -14  17   2 1822.02 427.624   2
  -3 -14   2 1769.95 450.398   1
 -17  14   2 2139.95 485.440   2
  17  -3   2 1735.40 378.384   3
  14   3   2 2630.29 490.510   3
 -17  14   5 300.037 397.626   2
 -14  17   5 274.043 337.121   3
 -17  14   5 222.928 263.397   3
   3 -17   5 639.963 475.032   1
 -17  14   5 878.879 432.135   4
  -3 -14   5 170.726 115.360   2
 -14  17   5-195.448 369.742   4
  -3 -14   5 339.133 539.846   1
 -14  17   5 39.3728 448.149   2
  17  -3   5 78.5028 438.556   3
  14   3   5 212.418 431.973   3
 -17  14   8 1994.29 504.243   3
 -14  17   8 2406.20 581.329   3
   3 -17   8 2714.25 763.362   1
 -14  17   8 1706.18 584.811   4
 -14  17   8 2076.85 700.552   2
 -17  14   8 2849.97 635.798   4
  17  -3   8 1933.18 763.555   3
  14   3   8 2772.77 779.633   3
 -17  14   8 2499.75 740.153   2
  -3 -14   8 1879.17 756.101   1
 -17  15  -8 8608.60 846.459   4
 -15  17  -8 7624.73 713.055   4
 -17  15  -5 24416.3 1304.26   4
 -15  17  -5 24712.5 1201.21   4
 -17  15  -5 25277.4 1219.50   2
 -15  17  -5 23068.9 1008.10   2
 -17  15  -2 21496.9 1208.09   4
 -15  17  -2 19805.1 938.507   2
  -2 -15  -2 20293.8 1021.04   1
 -17  15  -2 20173.8 1059.50   2
   2 -17  -2 18920.0 1020.44   1
 -15  17  -2 19899.3 1155.91   4
 -15  17   1 14590.0 850.901   3
  -2 -15   1 14347.9 1077.00   1
 -15  17   1 14327.4 1038.19   4
  15   2   1 14834.2 827.019   3
 -17  15   1 13058.1 997.583   4
 -17  15   1 13767.7 977.697   2
 -15  17   1 15315.3 965.526   2
   2 -17   1 15064.8 1072.41   1
  17  -2   1 14624.5 738.553   3
   2 -17   4 1567.39 598.880   1
 -15  17   4 1697.51 383.686   3
 -17  15   4 1487.87 334.345   3
 -15  17   4 1551.74 507.451   4
 -17  15   4 1258.96 472.531   4
 -15  17   4 1161.97 458.266   2
 -17  15   4 1546.30 503.589   2
  -2 -15   4 1013.67 521.316   1
  17  -2   4 1810.47 491.630   3
  15   2   4 1447.56 473.318   3
 -15  17   7 16316.0 1280.91   4
 -17  15   7 17143.1 1275.37   4
 -17  15   7 15166.3 1354.05   2
   2 -17   7 17360.0 1459.92   1
  -2 -15   7 16908.9 1483.75   1
  17  -2   7 18180.2 1442.20   3
  15   2   7 19164.1 1476.31   3
 -15  17   7 16110.4 1399.61   2
 -17  15   7 19048.5 1073.35   3
 -15  17   7 19473.0 1219.41   3
 -15  17  10 2769.28 709.739   3
  -2 -15  10 1825.27 767.024   1
   2 -17  10 3211.96 927.403   1
 -15  17  10 2174.75 698.620   4
 -15  17  10 3165.07 846.376   2
 -17  15  10 2456.45 648.466   4
 -17  15  10 2954.33 840.019   2
  17  -2  10 3187.49 939.904   3
  15   2  10 2653.53 903.447   3
 -17  15  10 3888.84 760.115   3
 -17  16  -9 960.784 449.981   4
 -16  17  -9 946.498 398.225   4
 -17  16  -6 2448.41 491.800   2
 -16  17  -6 1768.39 398.797   2
 -17  16  -6 1948.33 456.997   4
 -16  17  -6 1995.97 474.955   4
   1 -17  -3 7202.60 659.441   1
 -16  17  -3 6671.29 737.756   4
 -17  16  -3 8141.07 800.570   4
 -16  17  -3 6901.45 609.255   2
 -17  16  -3 7337.41 659.063   2
  -1 -16  -3 7057.11 624.597   1
  16   1   0 3715.61 408.833   3
  -1 -16   0 3187.94 554.165   1
 -16  17   0 4601.26 654.799   4
 -17  16   0 3408.41 574.970   4
 -16  17   0 4700.08 566.789   2
 -17  16   0 4042.44 573.704   2
   1 -17   0 3865.69 595.283   1
  17  -1   0 3663.55 360.429   3
 -16  17   3 8608.17 666.718   3
 -17  16   3 6953.06 558.196   3
 -16  17   3 8519.63 861.780   4
 -17  16   3 7994.81 877.131   4
 -16  17   3 7092.13 801.941   2
 -17  16   3 8769.20 893.835   2
  -1 -16   3 8297.42 932.684   1
   1 -17   3 6981.07 843.527   1
  17  -1   3 7735.41 722.807   3
  16   1   3 7643.57 752.977   3
   1 -17   6 722.920 581.518   1
 -17  16   6 827.583 382.786   3
 -16  17   6 791.434 416.329   3
 -17  16   6-758.623 530.087   2
 -17  16   6 583.848 449.877   4
 -16  17   6-442.261 435.188   4
 -16  17   6 318.809 462.099   2
  17  -1   6 1275.04 557.363   3
  16   1   6 742.529 538.028   3
  -1 -16   6 411.480 496.829   1
 -17  16   9 275.610 447.709   3
  -1 -16   9 915.541 682.400   1
   1 -17   9 738.510 678.873   1
 -16  17   9 1326.16 575.344   3
 -17  16   9 217.100 479.171   4
 -16  17   9 760.917 514.914   4
 -16  17   9 783.332 610.789   2
 -17  16   9-249.432 621.805   2
  17  -1   9 1874.11 880.377   3
  16   1   9 1117.61 793.566   3
 -17  17  -7 468.170 394.483   2
 -17  17  -7 30.9376 342.349   4
 -17  17  -4 422.979 361.809   4
   0 -17  -4 465.840 258.022   1
 -17  17  -4 607.581 298.759   2
   0 -17  -1 135.620 325.667   1
  17   0  -1 259.511 198.275   3
 -17  17  -1-392.245 360.144   4
 -17  17  -1-97.4145 274.937   2
 -17  17   2 4121.45 489.375   3
 -17  17   2 4701.44 671.431   4
 -17  17   2 4061.81 616.617   2
  17   0   2 4456.22 530.878   3
   0 -17   2 2764.12 576.466   1
 -17  17   5-184.658 289.310   3
 -17  17   5-224.736 553.568   4
  17   0   5-29.8150 435.246   3
 -17  17   5 889.791 548.215   2
   0 -17   5 434.728 510.382   1
 -17  17   8 2615.01 598.584   3
   0 -17   8 2225.58 783.100   1
 -17  17   8 2267.36 598.071   4
 -17  17   8 3316.55 809.472   2
  17   0   8 1539.46 703.502   3
 -18   0  -9 22.8794 614.929   4
 -18   0  -6 4315.54 833.856   4
 -18   0  -6 4733.60 807.566   2
   0  18  -6 2624.37 358.049   4
 -18   0  -3 515.760 503.615   2
  18 -18  -3-208.541 411.776   1
   0  18  -3-11.3934 107.920   2
 -18   0  -3 114.185 403.711   4
  18 -18  -3 142.568 321.859   3
  18 -18   0 6327.58 639.351   3
   0  18   0 7842.47 863.630   3
  18 -18   0 6655.27 866.258   1
 -18   0   0 5538.85 715.961   4
 -18   0   0 8808.38 734.997   3
 -18   0   0 6434.50 776.457   2
   0  18   0 6147.95 611.696   2
   0  18   3 342.653 470.654   3
  18 -18   3-187.617 480.552   1
   0  18   3 70.6485 326.587   1
 -18   0   3 28.5251 413.821   2
 -18   0   3 111.854 362.969   4
 -18   0   3 79.3866 167.959   3
 -18   0   6 8967.45 919.178   2
 -18   0   6 10397.5 876.638   4
  18 -18   6 10915.8 1224.39   1
   0  18   6 10874.0 1196.66   3
   0  18   9 2.17066 612.633   3
  18 -18   9-506.666 608.189   1
 -18   0   9 1252.01 717.298   1
 -18   0   9 79.7135 456.566   2
  18 -18   9-727.979 1944.88   3
 -18   1 -10 2373.04 797.686   4
 -18   1  -7 17873.4 1484.63   2
 -17  -1  -7 16766.6 1478.81   2
 -18   1  -7 17936.3 1440.59   4
 -17  -1  -7 19003.3 1534.77   4
 -18   1  -4 6217.89 841.862   4
  17 -18  -4 5866.39 799.867   1
 -17  -1  -4 6173.87 866.112   4
   1  17  -4 5252.79 605.968   4
  -1  18  -4 4567.01 600.217   4
  18 -17  -4 5226.05 573.771   3
  17 -18  -4 5337.36 640.763   3
 -18   1  -4 7046.27 875.906   2
 -17  -1  -4 7186.89 925.679   2
   1  17  -1 12733.2 1032.27   3
  -1  18  -1 14080.3 1101.42   3
 -18   1  -1 13595.3 1098.02   4
 -17  -1  -1 15230.8 1161.01   4
  18 -17  -1 14358.1 1190.21   1
 -17  -1  -1 17174.2 1116.85   3
  17 -18  -1 15727.8 1224.79   1
   1  17  -1 12382.7 727.807   2
 -18   1  -1 15575.6 1140.21   2
 -17  -1  -1 13601.8 1087.05   2
  -1  18  -1 12782.1 718.612   2
  18 -17  -1 11508.3 735.926   3
  17 -18  -1 11118.7 787.607   3
   1  17   2 4630.78 718.028   3
  -1  18   2 5268.45 754.550   3
 -17  -1   2 5842.75 695.374   2
   1  17   2 5140.71 631.650   1
  17 -18   2 5334.41 632.666   2
  -1  18   2 4589.29 625.328   1
 -18   1   2 6143.64 732.713   4
 -17  -1   2 5706.98 694.777   4
 -18   1   2 5900.48 741.877   2
 -18   1   2 5329.57 317.748   3
  17 -18   2 6018.11 889.650   1
 -17  -1   2 5910.56 435.698   3
  18 -17   2 6644.71 940.465   1
 -18   1   5 14244.4 607.958   3
 -17  -1   5 14852.2 739.206   3
 -18   1   5 15975.3 1077.51   4
 -17  -1   5 14494.4 1010.29   4
  17 -18   5 13124.4 853.748   2
 -18   1   5 14481.8 1119.82   2
 -17  -1   5 16027.9 1139.89   2
  17 -18   5 15353.3 1344.39   1
  18 -17   5 15489.1 1380.41   1
   1  17   5 16047.1 1313.01   3
  -1  18   5 16824.8 1331.01   3
   1  17   8 3360.04 856.835   3
  -1  18   8 3127.73 803.881   3
 -17  -1   8 4488.66 594.461   4
  17 -18   8 3008.83 866.673   1
 -17  -1   8 4882.47 940.001   1
 -18   1   8 4400.83 606.517   4
  18 -17   8 4612.75 915.847   1
 -18   1   8 4949.05 819.985   2
 -17  -1   8 4408.76 744.453   2
 -18   1   8 4592.71 887.868   1
 -18   1   8 4484.68 749.057   3
 -18   2  -8 1166.94 669.278   2
 -18   2  -8 975.490 588.375   4
 -16  -2  -8 886.075 575.117   4
 -16  -2  -5 2862.91 679.137   2
  -2  18  -5 1511.37 393.620   4
 -16  -2  -5 2224.38 501.037   1
 -16  -2  -5 3885.99 754.775   4
   2  16  -5 1636.36 356.291   4
 -18   2  -5 3046.24 617.053   4
  18 -16  -5 2555.80 599.541   3
 -18   2  -5 3452.41 725.957   2
 -16  -2  -2 4739.18 704.854   4
  16 -18  -2 5970.83 785.716   1
   2  16  -2 5338.41 734.657   3
  18 -16  -2 6149.21 810.438   1
  -2  18  -2 6329.66 781.793   3
   2  16  -2 5141.05 438.543   2
 -16  -2  -2 7836.94 888.003   3
  -2  18  -2 4438.32 344.957   2
 -18   2  -2 5414.32 771.239   2
 -16  -2  -2 5974.17 788.398   2
  18 -16  -2 6105.50 523.383   3
  16 -18  -2 5037.65 583.830   3
 -18   2  -2 6922.45 829.664   4
   2  16   1 2033.00 559.660   3
  -2  18   1 2131.75 454.633   2
  -2  18   1 1937.07 528.815   3
  18 -16   1 1227.05 368.600   3
  16 -18   1 1600.58 421.997   2
 -18   2   1 1881.43 533.090   4
 -16  -2   1 1775.76 474.036   4
  18 -16   1 1892.09 555.695   1
  16 -18   1 2127.26 583.308   1
 -18   2   1 1655.74 491.335   2
 -16  -2   1 1315.77 420.546   2
 -16  -2   1 1431.54 317.448   3
   2  16   4 1613.41 598.579   3
 -16  -2   4 588.502 272.508   3
  -2  18   4 689.107 449.502   3
  16 -18   4 448.255 481.766   1
  16 -18   4 598.324 306.046   2
  -2  18   4 228.610 281.443   1
 -16  -2   4 923.490 416.946   4
 -18   2   4 513.054 416.759   2
 -16  -2   4 497.470 324.163   2
 -18   2   4-5.62043 272.210   3
  18 -16   4 411.729 489.709   1
 -18   2   4 1038.97 443.798   4
 -18   2   4 438.555 112.477   3
   2  16   7 104.048 533.879   3
  -2  18   7 257.721 537.249   3
  16 -18   7 229.187 596.518   1
 -16  -2   7-353.741 530.634   1
 -18   2   7 346.170 377.959   4
  18 -16   7-333.236 573.569   1
 -16  -2   7 163.376 314.940   4
 -18   2   7-365.715 419.988   2
 -16  -2   7-288.366 1154.62   3
 -18   2   7 848.199 410.691   3
 -16  -2   7 439.400 428.608   2
  -2  18  10-492.412 716.900   3
  16 -18  10 862.998 656.944   1
 -18   2  10 786.697 573.466   2
 -16  -2  10 568.333 674.196   1
 -16  -2  10 863.013 542.467   2
 -18   2  10-669.013 683.710   1
  18 -16  10 200.675 713.750   1
  16 -18  10 974.496 2054.22   3
 -16  -2  10 339.402 1105.38   3
   2  16  10 803.632 681.906   3
 -18   3  -9 869.626 626.246   4
 -18   3  -6 929.319 522.558   2
 -15  -3  -6 840.024 540.545   2
  -3  18  -6 556.286 229.914   4
 -18   3  -6 1047.23 485.293   4
  -3  18  -6 794.755 287.781   4
   3  15  -6 521.556 224.057   4
 -15  -3  -6 896.594 487.379   4
  18 -15  -6 1016.87 1256.72   3
 -15  -3  -6 1739.99 423.278   1
 -18   3  -3 2772.96 539.836   2
 -15  -3  -3 2537.40 609.597   2
   3  15  -3 2536.29 483.461   4
 -18   3  -3 2782.13 619.218   4
 -15  -3  -3 3206.91 655.577   4
  -3  18  -3 2060.14 485.350   4
   3  15  -3 2897.78 317.899   2
 -15  -3  -3 3252.79 555.385   1
  18 -15  -3 2693.43 367.519   3
  15 -18  -3 2957.16 495.161   3
  15 -18  -3 2252.03 544.580   1
  -3  18   0 4498.33 488.420   2
  15 -18   0 5343.67 613.601   3
  18 -15   0 4795.70 498.689   3
   3  15   0 5557.86 705.919   3
  -3  18   0 5137.89 699.445   3
 -15  -3   0 5590.71 716.427   4
 -18   3   0 5742.63 749.797   4
  18 -15   0 6061.03 828.293   1
 -18   3   0 5154.52 676.033   2
 -15  -3   0 5505.82 677.073   2
   3  15   0 4406.25 548.613   2
 -15  -3   0 4622.64 516.235   3
  15 -18   0 5599.87 770.469   1
 -18   3   3 2778.65 583.570   2
   3  15   3 3005.88 633.540   3
  -3  18   3 2465.74 565.044   3
 -15  -3   3 2831.90 516.660   2
  18 -15   3 1953.03 590.467   1
  15 -18   3 2016.85 575.295   1
  15 -18   3 2384.32 407.810   2
  -3  18   3 2293.39 456.510   1
 -18   3   3 1731.85 440.766   4
 -15  -3   3 2008.70 442.321   4
 -15  -3   3 2262.86 364.476   3
 -18   3   6 5463.00 652.240   4
 -15  -3   6 5260.26 615.978   3
 -18   3   6 5122.47 421.427   3
 -15  -3   6 5155.61 714.878   2
 -15  -3   6 7338.17 979.764   1
  15 -18   6 4569.80 489.834   2
  15 -18   6 5355.15 933.985   1
 -18   3   6 4691.11 737.872   2
 -15  -3   6 5354.92 633.059   4
 -18   3   6 5414.54 464.879   3
  18 -15   6 5340.59 897.953   1
   3  15   6 6141.46 884.506   3
  -3  18   6 5487.20 860.311   3
  18 -15   9 797.927 2312.65   3
  -3  18   9 1673.25 672.407   3
  15 -18   9 2930.47 796.521   1
 -18   3   9 1404.66 669.421   1
 -18   3   9 1591.19 453.735   4
 -15  -3   9 3091.97 861.087   1
 -15  -3   9 1743.78 564.458   2
  18 -15   9 2776.08 765.257   1
 -18   3   9 2438.23 722.420   2
 -15  -3   9 3185.17 1819.54   3
 -18   3   9 2173.71 571.381   3
   3  15   9 1913.08 796.204   3
 -18   4 -10 2902.79 825.546   4
 -18   4  -7 9618.32 1083.08   2
 -18   4  -7 11108.2 1117.38   4
 -14  -4  -7 9981.45 1130.61   4
 -14  -4  -4 23064.2 1454.76   2
  14 -18  -4 24192.1 1328.12   1
   4  14  -4 22385.6 757.135   2
 -14  -4  -4 22078.2 1139.38   1
   4  14  -4 20172.9 986.227   4
 -18   4  -4 21134.0 1364.23   4
 -14  -4  -4 23822.9 1496.92   4
 -18   4  -4 22812.0 1421.31   2
  18 -14  -1 11155.6 1037.51   1
   4  14  -1 6480.86 746.036   3
  -4  18  -1 9055.06 861.776   3
 -18   4  -1 9813.98 910.417   4
 -14  -4  -1 10419.0 952.080   4
 -18   4  -1 8621.30 859.424   2
 -14  -4  -1 9474.88 743.707   3
 -14  -4  -1 10110.5 884.802   2
  14 -18  -1 8939.80 918.074   1
   4  14  -1 8521.09 627.422   2
  -4  18  -1 8336.63 552.517   2
  18 -14  -1 8835.11 535.245   3
  14 -18  -1 7309.82 698.846   3
   4  14   2 7264.99 800.544   3
  -4  18   2 7375.52 798.417   3
 -14  -4   2 7510.85 765.623   4
  18 -14   2 6636.63 845.598   1
  14 -18   2 6992.88 588.772   2
  -4  18   2 7170.44 701.483   1
 -18   4   2 6727.18 723.293   4
  14 -18   2 6308.88 871.482   1
 -18   4   2 7706.35 799.045   2
 -14  -4   2 7287.54 748.825   2
 -14  -4   2 7498.14 587.022   3
 -18   4   5 13045.5 961.257   4
 -18   4   5 12042.0 430.223   3
 -14  -4   5 13605.4 858.245   3
 -14  -4   5 14822.0 1257.07   1
  14 -18   5 11352.1 636.953   2
  14 -18   5 12735.2 1241.85   1
 -18   4   5 15225.4 1156.26   2
 -14  -4   5 15037.6 941.732   4
 -14  -4   5 12845.8 973.304   2
  -4  18   5 10463.2 645.277   1
 -18   4   5 12063.7 438.336   3
  18 -14   5 11819.8 1156.20   1
   4  14   5 13827.9 1198.89   3
  -4  18   5 12812.4 1122.69   3
 -14  -4   8 4428.86 878.379   1
 -14  -4   8 4743.57 698.048   2
 -18   4   8 3728.70 586.168   4
 -14  -4   8 4205.15 467.815   4
 -18   4   8 4794.07 865.289   2
 -18   4   8 3281.27 516.820   3
  18 -14   8 3545.41 782.785   1
   4  14   8 5213.86 944.009   3
  -4  18   8 5985.67 974.598   3
  14 -18   8 3571.16 813.134   1
 -18   5  -8 7875.77 1083.31   2
 -18   5  -8 7105.84 930.861   4
 -18   5  -5 923.302 480.948   2
  18 -13  -5-48.1109 713.827   3
   5  13  -5 343.297 254.898   4
 -13  -5  -5 647.984 438.409   2
 -18   5  -5-159.756 401.087   4
  -5  18  -5 363.358 247.676   4
 -13  -5  -5 1003.95 586.899   4
 -13  -5  -5 350.379 342.551   1
  13 -18  -2 4523.15 640.360   1
   5  13  -2 4512.11 642.395   3
  -5  18  -2 3362.42 267.425   2
 -13  -5  -2 4878.74 680.253   2
 -18   5  -2 4657.51 701.372   4
   5  13  -2 3604.77 552.948   4
   5  13  -2 4845.73 470.683   2
 -13  -5  -2 5495.87 757.094   4
 -18   5  -2 5099.62 704.001   2
  18 -13  -2 4631.02 344.042   3
  -5  18  -2 4008.23 308.312   2
   5  13   1 23313.4 1282.50   3
  -5  18   1 27188.3 1397.46   3
  18 -13   1 23151.7 958.531   3
  13 -18   1 22009.1 1359.16   1
 -13  -5   1 23113.5 1264.70   4
 -18   5   1 23445.7 1281.77   2
  18 -13   1 23681.9 1443.24   1
 -18   5   1 24054.6 1293.04   4
 -13  -5   1 23124.7 1210.50   2
 -13  -5   1 23054.4 1003.02   3
 -13  -5   4 5073.37 561.012   3
 -13  -5   4 6086.15 853.593   1
  13 -18   4 5017.34 418.602   2
  13 -18   4 5317.42 867.453   1
 -18   5   4 6035.85 701.202   4
 -13  -5   4 4765.28 545.030   4
 -18   5   4 4980.38 705.117   2
  -5  18   4 4335.11 503.646   1
 -13  -5   4 5558.29 623.355   2
  18 -13   4 5377.45 804.911   1
   5  13   4 5747.72 801.115   3
  -5  18   4 4535.89 727.036   3
 -18   5   7 7663.35 959.222   2
 -13  -5   7 6742.11 1026.38   1
 -18   5   7 5705.81 708.649   4
 -13  -5   7 5110.61 668.989   2
 -13  -5   7 5777.02 549.465   4
 -18   5   7 5800.01 542.760   3
  13 -18   7 4282.78 862.912   1
   5  13   7 5775.85 925.183   3
  18 -13   7 6663.96 927.677   1
  -5  18   7 5667.60 895.993   3
  -5  18  10 514.088 756.513   3
  18 -13  10 886.366 641.196   1
 -18   5  10-1015.50 666.469   1
 -18   5  10 863.780 590.387   2
 -13  -5  10-128.907 635.064   1
 -13  -5  10 1297.23 2110.09   3
  18 -13  10-1271.84 2209.12   3
 -13  -5  10-196.589 428.983   2
  13 -18  10 145.014 680.896   1
   5  13  10 789.341 772.419   3
 -18   6  -9 2587.29 695.397   4
 -18   6  -6 567.827 426.891   2
 -12  -6  -6 1278.97 683.779   2
   6  12  -6 651.121 226.747   4
 -18   6  -6 478.286 454.344   4
 -12  -6  -6 70.5940 462.617   4
  -6  18  -6 216.435 233.509   4
 -12  -6  -6 347.340 254.902   1
  12 -18  -3 9610.51 870.445   1
  -6  18  -3 9375.99 738.329   4
   6  12  -3 10007.7 618.416   2
 -18   6  -3 9737.39 910.551   4
   6  12  -3 9688.33 737.697   4
 -12  -6  -3 9938.03 986.018   4
 -12  -6  -3 9109.28 724.850   1
 -18   6  -3 11365.7 946.855   2
 -12  -6  -3 10866.4 985.389   2
 -12  -6   0 2384.58 492.775   2
  18 -12   0 2192.22 300.346   3
  18 -12   0 1951.46 597.479   1
   6  12   0 2397.84 489.191   3
  -6  18   0 1577.18 439.452   3
  12 -18   0 1781.09 520.515   1
 -18   6   0 2337.26 510.163   4
 -12  -6   0 1892.06 495.185   4
 -18   6   0 2297.69 490.674   2
 -12  -6   0 2954.46 481.919   3
   6  12   0 1292.57 361.108   2
 -12  -6   3 10402.6 719.419   3
 -18   6   3 10283.8 864.806   4
  -6  18   3 9229.01 898.521   3
 -12  -6   3 11806.6 1060.27   1
  12 -18   3 9958.09 1022.18   1
  18 -12   3 11575.4 1055.47   1
 -18   6   3 9893.33 908.214   2
 -12  -6   3 10177.5 817.423   4
  -6  18   3 9747.93 766.678   1
 -12  -6   3 9909.38 768.189   2
   6  12   3 10037.3 929.470   3
  -6  18   6-698.636 554.856   3
  12 -18   6 31.9747 126.722   2
  18 -12   6-431.579 521.942   1
 -18   6   6 116.510 334.021   4
 -12  -6   6 377.382 465.288   1
 -18   6   6 494.934 416.272   2
 -12  -6   6 344.649 282.481   4
 -12  -6   6 433.409 330.250   2
  12 -18   6 770.117 559.717   1
  18 -12   6 1267.76 1526.75   3
  -6  18   6 278.876 249.918   1
   6  12   6 552.982 569.664   3
 -18   6   6 88.4108 198.016   3
  -6  18   9 2502.51 767.764   3
  18 -12   9 2153.34 684.912   1
 -18   6   9 3196.06 714.638   2
 -18   6   9 3074.58 584.231   4
 -12  -6   9 2286.71 791.462   1
 -12  -6   9 1993.32 514.681   2
  12 -18   9 2480.60 891.812   1
 -18   6   9 1472.32 470.048   3
   6  12   9 3489.06 886.358   3
 -18   7 -10 1641.85 632.139   4
 -18   7  -7 5726.10 841.786   2
  -7  18  -7 3396.76 308.809   4
 -18   7  -7 6383.59 800.337   4
 -11  -7  -4 11394.8 1043.85   2
   7  11  -4 13802.2 745.506   2
  -7  18  -4 11113.7 745.234   4
   7  11  -4 12024.0 761.658   4
 -18   7  -4 14707.6 1120.14   4
 -11  -7  -4 13929.8 1162.43   4
  11 -18  -4 13774.3 968.924   1
 -18   7  -4 13395.2 1084.39   2
 -11  -7  -4 12419.5 774.953   1
   7  11  -1 17801.6 1056.74   3
 -18   7  -1 16569.6 1077.82   2
  -7  18  -1 16048.9 1092.61   3
  -7  18  -1 16639.4 711.564   2
 -18   7  -1 18951.6 1181.04   4
 -11  -7  -1 16562.4 1133.96   4
  11 -18  -1 18880.6 1188.02   1
   7  11  -1 16865.6 892.384   2
 -11  -7  -1 16820.5 1005.51   3
 -11  -7  -1 17957.9 1111.39   2
  18 -11  -1 17679.1 513.780   3
  -7  18   2 16452.8 1098.14   3
 -18   7   2 15858.8 1061.61   4
 -11  -7   2 15230.9 876.745   3
  -7  18   2 15251.4 953.752   1
 -11  -7   2 17693.7 1186.72   1
  11 -18   2 16635.3 1241.51   1
 -11  -7   2 16030.5 1037.76   4
 -18   7   2 15974.0 1083.64   2
  18 -11   2 15157.8 1142.70   1
 -11  -7   2 15768.8 942.902   2
   7  11   2 18444.3 1159.99   3
 -18   7   5 21899.9 522.372   3
  11 -18   5 22741.5 1540.19   1
  18 -11   5 22926.7 1476.11   1
 -11  -7   5 24409.1 1542.84   1
 -18   7   5 21418.6 1204.33   4
 -18   7   5 21710.1 1375.72   2
 -11  -7   5 25208.8 1111.44   4
 -11  -7   5 23680.4 1125.99   2
  -7  18   5 19232.9 957.803   1
   7  11   5 22612.0 1450.81   3
 -18   7   5 21321.8 510.306   3
  -7  18   5 22805.3 1415.72   3
  18 -11   8 4374.35 823.825   1
 -18   7   8 3793.83 592.644   4
 -18   7   8 3098.56 710.009   2
 -11  -7   8 2889.11 530.692   2
 -11  -7   8 3262.42 736.415   1
  11 -18   8 3697.55 845.219   1
  18 -11   8 1016.47 1741.24   3
 -18   7   8 4483.84 578.907   3
  -7  18   8 3940.33 816.404   3
   7  11   8 3257.88 814.287   3
 -18   8  -8 5579.38 862.062   2
 -18   8  -8 6445.92 867.478   4
 -10  -8  -5 11678.8 1148.18   2
  10 -18  -5 11424.6 825.141   1
 -10  -8  -5 12345.7 617.198   1
  -8  18  -5 12648.3 745.435   4
   8  10  -5 11517.6 683.578   4
 -18   8  -5 12529.5 1021.93   4
 -10  -8  -5 12892.1 1214.84   4
 -18   8  -5 12642.3 1069.51   2
   8  10  -5 10922.5 727.401   2
 -10  -8  -5 11812.6 640.135   1
 -18   8  -2 6939.91 741.548   4
   8  10  -2 6140.12 644.856   3
 -10  -8  -2 8171.33 716.834   1
  -8  18  -2 7621.48 708.157   4
  -8  18  -2 6145.86 376.220   2
   8  10  -2 5497.93 601.365   4
   8  10  -2 6826.11 579.135   2
 -10  -8  -2 7120.02 821.367   4
  10 -18  -2 7729.36 743.266   1
 -18   8  -2 7099.68 753.244   2
 -10  -8  -2 6444.92 748.012   2
   8  10   1 25443.5 1251.30   3
  -8  18   1 25526.1 1292.02   3
  18 -10   1 24969.0 1437.01   1
 -10  -8   1 23687.5 1330.04   1
  10 -18   1 23883.0 1393.06   1
 -18   8   1 22678.4 1242.60   2
 -18   8   1 23397.9 1259.69   4
 -10  -8   1 24594.8 1273.52   4
 -10  -8   1 23582.2 1140.47   2
 -10  -8   1 24815.5 1130.33   3
  -8  18   4 12551.8 990.178   3
  10 -18   4 12695.6 1180.95   1
 -10  -8   4 12184.7 1109.47   1
 -18   8   4 11368.0 936.927   4
 -18   8   4 14039.8 1079.67   2
  18 -10   4 10986.7 981.073   1
 -10  -8   4 12404.8 835.318   4
 -10  -8   4 9980.56 744.633   2
  -8  18   4 11370.0 807.154   1
   8  10   4 11398.6 1004.01   3
  10 -18   7 7614.23 1070.80   1
  18 -10   7 9660.99 1019.17   1
 -18   8   7 9828.98 1059.93   2
 -18   8   7 7682.27 784.427   4
 -10  -8   7 7626.18 686.195   2
 -10  -8   7 10476.8 1130.62   1
 -18   8   7 8881.11 632.260   3
   8  10   7 8028.75 1028.26   3
  -8  18   7 9058.71 992.361   3
  -8  18  10 1496.87 694.645   3
 -18   8  10 2193.14 831.186   2
  10 -18  10 783.128 711.734   1
 -18   8  10 2926.65 783.907   1
 -10  -8  10 612.963 1651.70   3
 -10  -8  10 2239.60 870.331   1
  18 -10  10 976.613 596.031   1
  18 -10  10 2380.26 1151.50   3
   8  10  10 2863.01 985.950   3
 -18   9  -9 2361.66 596.616   4
   9   9  -6 2374.23 356.452   4
  -9  18  -6 2478.25 382.906   4
 -18   9  -6 3287.29 659.309   4
 -18   9  -6 3325.00 655.355   2
  -9  -9  -3 10780.6 920.498   2
   9   9  -3 9726.05 722.703   4
  -9  18  -3 11231.2 788.985   4
  -9  -9  -3 11814.4 745.507   1
 -18   9  -3 11271.9 904.366   2
  -9  -9  -3 11224.9 1039.77   4
  -9  18  -3 7146.42 327.819   2
 -18   9  -3 10488.7 924.416   4
   9 -18  -3 11348.2 880.844   1
   9   9  -3 11118.0 746.249   2
  -9  -9   0 7486.50 723.471   2
   9   9   0 7506.10 681.118   3
  -9  -9   0 7350.63 704.665   3
  -9  18   0 8172.37 760.660   3
  18  -9   0 8000.55 400.472   3
  -9  18   0 6954.97 580.175   2
   9 -18   0 8209.56 851.391   1
  -9  -9   0 6765.81 708.157   1
 -18   9   0 6927.10 730.352   4
 -18   9   0 7847.85 765.061   2
  -9  -9   0 6664.22 733.350   4
   9   9   0 6805.72 659.848   2
  18  -9   0 6575.13 513.574   3
  -9  18   3 11954.1 942.138   3
   9 -18   3 9258.25 956.846   1
 -18   9   3 11311.9 902.510   4
  -9  -9   3 11645.8 1014.15   1
 -18   9   3 10910.7 960.923   2
  -9  -9   3 10701.7 803.684   4
  -9  -9   3 11501.1 758.557   2
  -9  18   3 10201.1 833.964   1
  18  -9   3 10947.6 981.553   1
   9   9   3 11032.5 933.982   3
  -9  18   6 2134.60 593.587   3
  -9  18   6 2240.63 416.453   1
 -18   9   6 1814.42 480.328   4
  18  -9   6 3874.69 687.833   1
  -9  -9   6 2393.13 419.990   2
  -9  -9   6 1880.04 679.632   1
 -18   9   6 2791.01 674.763   2
   9 -18   6 1304.55 661.219   1
   9   9   6 3174.56 773.942   3
 -18   9   6 2785.99 334.665   3
  -9  18   9 2001.32 633.026   3
  -9  -9   9 2345.75 500.483   2
 -18   9   9 1883.82 498.652   4
 -18   9   9 2029.03 714.504   2
   9 -18   9 2508.81 779.261   1
  -9  -9   9 2215.73 774.774   1
  18  -9   9 2320.54 1047.02   3
  18  -9   9 1769.36 588.626   1
 -18   9   9 1673.47 504.066   3
   9   9   9 2245.85 793.662   3
 -18  10 -10 2419.29 674.200   4
 -18  10  -7 7452.79 872.470   2
  10   8  -7 5576.51 423.482   4
 -18  10  -7 7876.83 879.354   4
 -10  18  -7 7307.34 538.286   4
   8 -18  -4 12293.4 854.555   1
 -10  18  -4 11909.0 806.651   4
  10   8  -4 11573.0 773.224   2
  -8 -10  -4 13448.4 691.035   1
  10   8  -4 12614.7 782.867   4
 -18  10  -4 12663.9 995.797   4
 -18  10  -4 14582.8 1028.33   2
  -8 -10  -1 24826.5 1248.03   2
 -18  10  -1 24440.8 1252.71   2
  10   8  -1 24754.7 1114.81   3
 -10  18  -1 23797.1 1231.82   4
  -8 -10  -1 25026.9 1199.54   1
   8 -18  -1 23898.0 1293.35   1
 -10  18  -1 23160.4 885.654   2
 -18  10  -1 24030.9 1285.10   4
  10   8  -1 23376.3 1095.55   2
  -8 -10  -1 22967.9 1359.16   4
   8 -18   2 6952.65 806.121   1
 -10  18   2 8920.97 800.340   3
 -10  18   2 6258.56 693.354   2
  -8 -10   2 8877.47 869.631   1
 -18  10   2 7459.88 766.425   4
 -18  10   2 9919.92 876.159   2
  18  -8   2 9598.72 908.077   1
  -8 -10   2 8178.57 738.799   4
  -8 -10   2 6562.35 601.051   2
  10   8   2 9403.89 824.966   3
 -18  10   5 12860.3 1034.60   4
  -8 -10   5 14712.7 1231.15   1
 -18  10   5 13741.0 1142.04   2
  -8 -10   5 13132.5 762.027   2
  18  -8   5 12392.2 1034.79   1
  10   8   5 16456.9 1259.04   3
 -10  18   5 11251.3 833.769   1
   8 -18   5 13597.0 1203.21   1
 -18  10   5 13644.6 534.196   3
 -10  18   5 13362.3 1036.87   3
 -18  10   8 5857.00 888.095   2
   8 -18   8 4852.86 929.796   1
  18  -8   8 5440.41 785.142   1
 -18  10   8 5231.71 724.416   4
  -8 -10   8 5233.23 562.844   2
  18  -8   8 7529.29 1235.69   3
  -8 -10   8 3851.58 850.953   1
  10   8   8 5105.17 930.111   3
 -18  10   8 5936.42 638.398   3
 -10  18   8 7980.75 972.824   3
 -18  11  -8 4874.42 776.569   2
 -11  18  -8 3970.27 405.717   4
 -18  11  -8 4395.80 720.358   4
  -7 -11  -5 22173.9 695.445   1
 -11  18  -5 22456.1 1066.69   4
  11   7  -5 22101.6 982.981   4
 -18  11  -5 24047.6 1331.21   4
  -7 -11  -5 19723.5 674.421   1
   7 -18  -5 21521.6 989.649   1
 -18  11  -5 22754.7 1297.31   2
  -7 -11  -2 14718.6 1042.91   2
  11   7  -2 13639.7 819.584   3
  -7 -11  -2 15712.8 900.026   1
 -11  18  -2 15795.1 971.021   4
 -18  11  -2 16231.6 1064.38   4
   7 -18  -2 16851.1 1040.40   1
 -11  18  -2 15068.2 660.863   2
  11   7  -2 14976.0 908.953   2
 -18  11  -2 14785.9 985.489   2
   7 -18   1 15973.5 1160.22   1
 -11  18   1 16802.9 1012.24   3
 -11  18   1 15617.5 1099.16   4
 -11  18   1 17162.0 974.679   2
  -7 -11   1 17355.3 1136.48   1
 -18  11   1 18856.0 1143.82   4
 -18  11   1 17082.0 1073.97   2
  -7 -11   1 16825.9 1068.34   4
  18  -7   1 18754.6 794.441   3
  -7 -11   1 17510.6 965.828   2
  11   7   1 19096.1 1043.60   3
 -11  18   4 15275.4 1044.81   3
 -11  18   4 11525.3 887.431   1
 -18  11   4 13578.6 446.085   3
  18  -7   4 13058.4 1045.96   1
 -18  11   4 16026.9 1103.01   4
  -7 -11   4 12079.6 1100.28   1
  18  -7   4 15705.5 1211.71   3
 -18  11   4 12897.0 1039.57   2
  -7 -11   4 13951.7 743.844   2
   7 -18   4 14346.9 1188.71   1
  11   7   4 14642.1 1094.39   3
  -7 -11   7 5429.33 870.334   1
 -18  11   7 4609.05 806.312   2
  18  -7   7 6430.65 796.555   1
  -7 -11   7 5068.49 494.778   2
  18  -7   7 8281.78 1171.81   3
 -18  11   7 4542.92 703.108   4
  11   7   7 6760.56 971.800   3
 -18  11   7 6856.10 598.612   3
   7 -18   7 9010.57 1326.31   1
 -11  18   7 4725.04 783.746   3
 -11  18  10 2272.01 750.992   3
 -18  11  10 1324.86 702.028   2
 -18  11  10 1341.26 567.002   4
   7 -18  10 1822.66 807.970   1
 -11  18  10 1228.42 645.083   4
  18  -7  10 2477.45 902.326   3
  -7 -11  10 2345.64 954.646   1
  11   7  10 2073.02 873.219   3
 -18  11  10 2155.05 554.175   3
 -18  12  -9 2412.58 620.590   4
 -18  12  -6-78.2695 371.415   2
  12   6  -6-133.510 260.902   4
 -12  18  -6 223.315 258.146   4
 -18  12  -6-30.6461 337.012   4
 -12  18  -3 13272.7 886.507   4
 -18  12  -3 11385.3 917.866   4
  12   6  -3 10552.4 789.090   4
  -6 -12  -3 11958.5 737.050   1
 -12  18  -3 11404.3 567.838   2
 -18  12  -3 10488.8 843.146   2
   6 -18  -3 10894.7 801.844   1
  12   6   0 2713.02 432.829   3
 -18  12   0 2690.27 519.331   4
 -12  18   0 2684.44 491.186   3
  -6 -12   0 1826.41 390.647   2
 -12  18   0 2453.10 502.673   4
 -12  18   0 2802.79 417.134   2
 -18  12   0 2798.28 509.713   2
   6 -18   0 2153.01 542.400   1
  -6 -12   0 1711.98 435.378   1
  18  -6   0 2917.49 248.487   3
 -12  18   3 10260.0 833.085   3
  -6 -12   3 13033.2 1078.26   1
 -12  18   3 9640.17 951.639   4
 -12  18   3 10050.0 889.223   2
 -18  12   3 11257.2 962.944   4
 -18  12   3 10308.8 928.032   2
  18  -6   3 9637.94 790.858   3
  -6 -12   3 9158.27 605.609   2
   6 -18   3 9595.01 1001.53   1
  12   6   3 12235.8 957.200   3
 -18  12   6 155.324 264.049   3
 -12  18   6 541.400 425.348   3
 -18  12   6 1331.01 464.450   4
 -12  18   6 334.192 470.458   2
   6 -18   6-1.67431 532.449   1
 -12  18   6 1502.81 578.400   4
  18  -6   6 86.7048 386.229   1
 -18  12   6 877.289 495.481   2
 -12  18   6 460.441 418.662   1
  -6 -12   6 396.654 533.404   1
  18  -6   6 463.972 512.026   3
  -6 -12   6 512.832 233.809   2
  12   6   6 542.811 502.422   3
 -12  18   9 2639.54 715.651   3
 -18  12   9 3293.36 775.665   2
  18  -6   9 3424.85 680.428   1
   6 -18   9 3741.13 886.438   1
 -18  12   9 2999.85 669.919   4
 -12  18   9 3486.81 910.139   2
 -12  18   9 3109.64 703.258   4
  18  -6   9 3277.61 937.987   3
  -6 -12   9 3161.96 860.447   1
 -18  12   9 3265.41 590.867   3
  12   6   9 3723.26 931.429   3
 -18  13  -7 5753.40 768.509   2
 -13  18  -7 4792.84 547.089   4
 -18  13  -7 5499.19 743.773   4
  13   5  -4 4723.94 546.426   4
 -18  13  -4 4254.30 611.064   4
  -5 -13  -4 5681.63 471.660   1
   5 -18  -4 5720.08 575.059   1
 -18  13  -4 5233.67 636.688   2
 -13  18  -4 5302.22 431.108   2
 -13  18  -4 5319.72 602.243   4
   5 -18  -1 21887.3 1195.91   1
  13   5  -1 22177.5 979.106   3
  -5 -13  -1 22678.3 1232.06   2
 -13  18  -1 23246.6 1252.04   4
 -18  13  -1 22208.9 1239.06   4
 -13  18  -1 22654.0 988.628   2
  -5 -13  -1 23584.9 1166.17   1
 -18  13  -1 22473.1 1179.68   2
 -13  18   2 4848.70 576.783   3
 -13  18   2 3751.16 616.514   4
 -13  18   2 6021.90 679.733   2
 -18  13   2 5220.77 685.838   4
 -18  13   2 4976.37 657.625   2
  -5 -13   2 4564.98 718.889   1
  18  -5   2 5040.68 524.630   3
   5 -18   2 4936.72 736.748   1
  13   5   2 5091.19 612.959   3
  -5 -13   2 4203.13 438.834   2
 -13  18   5 892.784 404.423   3
 -18  13   5 506.955 256.133   3
  18  -5   5 285.450 359.646   1
   5 -18   5 3.90882 518.527   1
 -13  18   5 498.987 497.571   4
 -13  18   5 504.785 476.662   2
 -18  13   5-195.084 402.172   4
 -18  13   5 658.878 388.912   2
  -5 -13   5 37.9784 531.020   1
  18  -5   5 606.332 500.550   3
  13   5   5 650.861 449.996   3
  -5 -13   5 313.607 198.693   2
  -5 -13   8 8669.45 1170.48   1
 -13  18   8 7807.27 1077.10   2
 -13  18   8 9116.98 1056.80   4
 -18  13   8 8011.43 1068.05   2
 -18  13   8 7981.98 915.167   4
  18  -5   8 8152.22 828.952   1
  18  -5   8 8948.76 1156.65   3
  13   5   8 6392.91 1065.35   3
   5 -18   8 8242.47 1138.18   1
 -18  13   8 8110.31 755.459   3
 -13  18   8 8273.01 942.613   3
 -18  14  -8 4430.22 712.972   2
 -14  18  -8 4805.68 559.927   4
 -18  14  -8 4951.42 717.450   4
   4 -18  -5 12149.3 683.601   1
 -14  18  -5 14402.3 923.742   4
 -18  14  -5 14423.8 1051.38   4
  14   4  -5 13150.6 867.345   4
 -18  14  -5 14292.3 995.292   2
 -14  18  -5 13740.6 702.230   2
   4 -18  -2 7852.08 733.588   1
  14   4  -2 7412.04 561.399   3
 -14  18  -2 7193.01 733.024   4
 -18  14  -2 6713.44 725.899   4
 -14  18  -2 6549.48 542.109   2
  -4 -14  -2 7027.17 641.371   1
 -18  14  -2 7428.85 706.203   2
  -4 -14   1 10210.1 696.705   2
 -14  18   1 10429.4 777.572   3
 -18  14   1 9433.26 821.797   2
 -14  18   1 9658.83 873.955   4
 -18  14   1 11228.8 945.904   4
  -4 -14   1 10456.0 936.316   1
 -14  18   1 11090.4 829.322   2
   4 -18   1 11254.7 990.027   1
  18  -4   1 10074.3 602.533   3
  14   4   1 11194.7 763.768   3
 -14  18   4 27259.8 1274.01   3
 -18  14   4 26591.9 889.587   3
 -14  18   4 23679.7 1403.58   2
 -18  14   4 24638.8 1401.83   4
 -18  14   4 24530.1 1451.16   2
  -4 -14   4 26251.4 1583.44   1
 -14  18   4 23886.9 1446.75   4
  18  -4   4 26576.1 1378.44   3
   4 -18   4 21498.5 1450.98   1
  14   4   4 24579.2 1369.26   3
  -4 -14   4 24172.8 800.105   2
 -18  14   7 7823.98 876.147   4
 -14  18   7 6695.12 1017.08   2
 -14  18   7 6851.87 889.456   4
 -18  14   7 8077.62 1058.67   2
  -4 -14   7 6293.02 960.505   1
 -18  14   7 8538.44 714.185   3
  18  -4   7 7856.36 1047.22   3
  -4 -14   7 4619.42 347.719   2
   4 -18   7 8013.69 1127.73   1
  14   4   7 9925.11 1143.53   3
 -14  18   7 6588.33 803.146   3
 -14  18  10 3308.69 837.836   3
 -18  14  10 3601.78 734.563   4
   4 -18  10 1391.15 867.326   1
 -14  18  10 3954.31 829.846   4
 -14  18  10 3855.11 993.554   2
 -18  14  10 2968.64 919.368   2
  18  -4  10 4839.46 1163.59   3
 -18  14  10 3613.61 721.496   3
  14   4  10 4831.90 1047.32   3
  -4 -14  10 2718.05 904.903   1
 -18  15  -9 1763.62 511.266   4
 -15  18  -6 4115.54 463.624   2
  15   3  -6 3912.21 539.475   4
 -15  18  -6 4181.42 567.200   4
 -18  15  -6 4758.12 678.044   4
 -18  15  -6 4917.57 658.134   2
 -18  15  -3 1663.17 462.672   4
  -3 -15  -3 2126.92 389.858   1
 -15  18  -3 2352.20 364.412   2
 -15  18  -3 2476.54 509.955   4
   3 -18  -3 1776.80 423.423   1
 -18  15  -3 2011.47 432.797   2
  15   3   0 5726.56 524.867   3
 -15  18   0 5811.11 594.853   2
 -15  18   0 5009.91 676.209   4
 -18  15   0 5077.09 684.493   4
 -18  15   0 5460.20 651.513   2
  -3 -15   0 4571.60 636.370   1
   3 -18   0 6815.42 782.906   1
  18  -3   0 6316.70 412.242   3
 -15  18   3 3905.28 553.614   3
  -3 -15   3 2591.94 311.031   2
   3 -18   3 3803.17 686.056   1
 -18  15   3 3826.64 390.118   3
 -15  18   3 3135.75 629.309   2
 -18  15   3 3703.87 634.249   4
 -15  18   3 3038.94 588.306   4
 -18  15   3 3860.65 636.473   2
  -3 -15   3 3980.16 729.680   1
  18  -3   3 3583.26 531.864   3
  15   3   3 3220.17 552.298   3
 -15  18   6 1571.03 471.593   3
 -18  15   6 755.613 361.184   3
   3 -18   6 249.743 567.891   1
 -18  15   6 507.604 454.105   4
 -15  18   6-344.651 546.993   2
 -18  15   6 1122.62 545.821   2
 -15  18   6 294.057 492.884   4
  -3 -15   6 821.732 566.695   1
  18  -3   6 349.115 509.902   3
  15   3   6 131.530 503.366   3
 -18  15   9 502.673 590.456   2
 -18  15   9 855.701 497.232   3
 -15  18   9 1309.32 556.391   3
 -15  18   9-267.265 601.406   2
   3 -18   9 774.863 716.224   1
 -15  18   9 1059.86 554.605   4
 -18  15   9 944.632 531.756   4
  18  -3   9 1178.86 677.349   3
  15   3   9 1603.83 748.525   3
  -3 -15   9-142.900 692.410   1
 -18  16  -7 575.665 405.037   2
 -18  16  -7 605.797 417.520   4
 -16  18  -7 72.6389 313.239   4
   2 -18  -4 552.412 332.569   1
 -16  18  -4 598.181 326.355   4
  -2 -16  -4 289.025 280.917   1
 -18  16  -4 253.552 329.231   4
 -16  18  -4 617.099 297.259   2
 -18  16  -4 640.860 357.174   2
  16   2  -1 2019.12 313.169   3
  18  -2  -1 2016.61 211.663   3
 -16  18  -1 2260.74 413.695   2
 -18  16  -1 1946.93 502.060   4
 -18  16  -1 1659.50 395.587   2
 -16  18  -1 2227.57 518.243   4
   2 -18  -1 3108.58 587.521   1
  -2 -16  -1 1650.17 429.351   1
 -16  18   2 6010.81 575.046   3
 -16  18   2 5125.34 695.961   4
 -18  16   2 6351.96 791.486   4
 -16  18   2 6580.81 736.267   2
 -18  16   2 6217.27 744.107   2
  -2 -16   2 7119.04 821.699   1
   2 -18   2 6318.72 811.379   1
  18  -2   2 6986.83 634.042   3
  16   2   2 6551.60 650.162   3
 -16  18   5 1135.89 551.371   2
   2 -18   5 2441.47 696.392   1
 -16  18   5 2359.79 494.381   3
 -18  16   5 2113.33 399.037   3
 -16  18   5 1694.46 541.607   4
 -18  16   5 1681.42 556.264   4
 -18  16   5 3072.08 683.385   2
  18  -2   5 2354.24 626.071   3
  -2 -16   5 1821.50 606.806   1
  16   2   5 2265.51 579.305   3
 -18  16   8 1175.81 456.227   3
 -16  18   8 1345.27 559.942   3
   2 -18   8 1593.41 711.433   1
 -16  18   8 2329.42 668.547   4
 -16  18   8 2016.69 734.244   2
 -18  16   8 2403.72 790.102   2
  18  -2   8 1628.22 702.080   3
  16   2   8 2374.64 809.441   3
 -18  16   8 1479.96 552.375   4
  -2 -16   8 989.594 664.659   1
 -17  18  -8 4955.90 669.337   4
 -18  17  -8 4468.65 669.174   4
 -17  18  -5 14370.2 1056.22   4
 -18  17  -5 15225.1 1069.64   4
  -1 -17  -5 13033.5 627.207   1
   1 -18  -5 11844.4 647.303   1
 -18  17  -5 15595.3 993.186   2
 -17  18  -5 14826.4 902.266   2
 -17  18  -2 6427.45 731.557   4
 -18  17  -2 5562.04 723.847   4
 -17  18  -2 6836.55 627.498   2
 -18  17  -2 5161.22 606.505   2
  -1 -17  -2 6243.39 648.936   1
   1 -18  -2 5199.13 627.105   1
 -17  18   1 16597.1 1071.84   2
 -17  18   1 13883.2 1088.94   4
 -18  17   1 14418.3 1118.61   4
 -18  17   1 15315.2 1065.20   2
  -1 -17   1 16322.1 1158.41   1
   1 -18   1 14262.8 1085.70   1
  18  -1   1 16218.2 824.613   3
  17   1   1 14768.4 828.011   3
 -17  18   4 6505.29 626.337   3
 -18  17   4 7385.28 612.978   3
 -17  18   4 6293.23 842.288   4
 -18  17   4 7357.08 872.980   4
 -17  18   4 7192.38 859.746   2
 -18  17   4 7262.28 895.385   2
  -1 -17   4 7508.54 1007.64   1
   1 -18   4 8549.68 990.163   1
  18  -1   4 6347.07 771.231   3
  17   1   4 6352.80 754.698   3
  -1 -17   7 16840.9 1504.02   1
 -17  18   7 16687.9 1315.11   4
 -17  18   7 15674.3 1396.35   2
 -18  17   7 17777.6 1361.27   4
   1 -18   7 15267.6 1412.06   1
  18  -1   7 21756.2 1639.78   3
  17   1   7 17703.2 1470.23   3
 -18  17   7 16929.5 1493.49   2
 -18  17   7 18265.8 1121.52   3
 -17  18   7 19219.7 1191.89   3
 -18  17  10 2321.06 683.999   3
 -17  18  10 2785.91 771.285   3
  -1 -17  10 2726.42 904.345   1
   1 -18  10 1834.49 936.074   1
 -17  18  10 1801.70 710.882   4
 -17  18  10 3484.13 959.359   2
 -18  17  10 1774.89 851.172   2
  18  -1  10 2697.59 892.747   3
  17   1  10 2571.35 923.045   3
 -18  17  10 1327.54 638.156   4
 -18  18  -9 143.438 415.909   4
 -18  18  -6 7744.24 798.704   4
 -18  18  -6 9520.76 776.761   2
   0 -18  -3 259.291 314.772   1
 -18  18  -3-79.9264 331.260   4
 -18  18  -3-79.3397 340.976   2
  18   0   0 7384.65 531.036   3
 -18  18   0 6663.57 708.889   2
   0 -18   0 7716.46 823.652   1
 -18  18   0 8646.96 893.418   4
 -18  18   3-195.821 292.128   3
 -18  18   3-149.269 400.752   4
 -18  18   3-279.461 439.173   2
  18   0   3 191.850 345.116   3
   0 -18   3 477.353 541.833   1
   0 -18   6 4093.66 817.364   1
 -18  18   6 2625.06 481.789   3
 -18  18   6 4733.58 823.932   2
 -18  18   6 3026.41 655.873   4
  18   0   6 2600.87 675.941   3
 -18  18   9 181.974 532.067   3
   0 -18   9 414.885 661.628   1
 -18  18   9 125.006 597.741   2
 -18  18   9 468.331 557.188   4
  18   0   9 946.415 746.088   3
 -19   0  -7-157.512 574.496   2
 -19   0  -7-388.898 584.058   4
 -19   0  -4 4381.84 807.538   4
  19 -19  -4 3844.99 575.176   3
 -19   0  -4 5554.60 860.853   2
  19 -19  -1 687.955 558.348   1
  19 -19  -1 17.0776 309.929   3
   0  19  -1-374.695 453.432   3
 -19   0  -1 440.035 1004.85   3
   0  19  -1-105.025 253.625   2
 -19   0  -1 138.939 429.403   2
 -19   0  -1 315.622 413.424   4
   0  19   2 16748.1 1271.35   3
 -19   0   2 15612.1 1159.43   4
 -19   0   2 14721.2 1118.11   2
 -19   0   2 15921.4 645.827   3
  19 -19   2 16960.3 1429.49   1
 -19   0   5-136.204 210.259   3
   0  19   5 354.902 544.033   3
 -19   0   5 100.713 581.346   3
  19 -19   5 401.962 559.179   1
 -19   0   5-421.176 502.353   2
 -19   0   5-98.6302 381.976   4
 -19   0   8 17593.8 1124.56   4
 -19   0   8 20459.3 1712.95   1
 -19   0   8 17788.3 1401.24   2
  19 -19   8 17034.6 1582.79   1
   0  19   8 19155.2 1651.62   3
 -19   1  -8 848.651 630.170   2
 -18  -1  -8 132.677 582.264   2
 -19   1  -8 1565.90 701.835   4
 -18  -1  -8-148.512 546.220   4
 -19   1  -5 1394.61 603.195   2
 -18  -1  -5 1595.32 632.197   2
   1  18  -5 648.269 357.634   4
 -19   1  -5 1966.14 639.904   4
  -1  19  -5 312.167 351.951   4
 -18  -1  -5 1480.48 572.816   4
  19 -18  -5 1711.34 536.649   3
  18 -19  -2 291.076 326.252   3
 -18  -1  -2 452.639 446.451   2
   1  18  -2 567.855 406.378   3
  -1  19  -2 56.3203 421.907   3
  18 -19  -2 1263.78 558.870   1
 -19   1  -2-83.4493 395.809   4
 -18  -1  -2 357.487 437.146   4
 -19   1  -2-351.647 1080.56   3
   1  18  -2 462.938 237.272   2
 -18  -1  -2 998.794 1157.31   3
  -1  19  -2 463.231 218.220   2
  19 -18  -2 32.8809 467.171   1
 -19   1  -2-202.948 473.672   2
  19 -18  -2 5.89184 300.395   3
   1  18   1 7032.59 849.688   3
  -1  19   1 7358.09 882.349   3
  19 -18   1 7093.14 968.526   1
 -18  -1   1 8016.57 860.654   4
 -19   1   1 5853.16 896.090   3
 -18  -1   1 6471.47 771.020   2
 -18  -1   1 6317.01 522.065   3
 -19   1   1 8191.16 858.819   4
 -19   1   1 5954.05 758.418   2
  18 -19   1 7483.50 962.041   1
 -18  -1   4-51.3499 212.537   3
 -19   1   4 104.563 351.826   3
   1  18   4 107.999 452.682   3
  -1  19   4-268.443 425.716   3
  18 -19   4 734.997 546.611   1
  -1  19   4 608.828 332.105   1
  18 -19   4 266.744 345.798   2
 -19   1   4-227.968 386.704   4
 -18  -1   4 212.754 349.109   4
 -19   1   4-241.011 419.919   2
 -18  -1   4-608.917 401.951   2
  19 -18   4 11.1437 521.845   1
 -19   1   4-102.877 119.535   3
   1  18   7 44.9260 536.629   3
  -1  19   7 738.200 643.743   3
  19 -18   7 1469.03 730.418   1
  18 -19   7 965.715 665.805   1
 -18  -1   7 923.111 709.411   1
 -19   1   7 739.209 396.578   4
 -18  -1   7 382.278 377.920   4
 -19   1   7 328.240 397.814   2
 -18  -1   7 181.945 384.787   2
 -19   1   7 448.607 451.326   3
   1  18  10 2411.05 923.271   3
  -1  19  10 1515.08 793.113   3
  18 -19  10 840.177 752.278   1
 -19   1  10 2561.89 960.441   1
 -18  -1  10 1509.79 756.910   1
 -19   1  10 1154.98 638.564   2
 -18  -1  10 548.990 583.472   2
  19 -18  10 1280.47 773.029   1
  18 -19  10 1242.64 2513.63   3
  19 -18  10 705.426 2811.00   3
 -19   2  -9 752.619 646.350   4
 -17  -2  -9 198.390 646.627   4
 -19   2  -6 2104.47 696.023   2
 -17  -2  -6 2316.84 769.947   2
  -2  19  -6 1737.35 326.607   4
 -19   2  -6 1687.30 579.967   4
 -17  -2  -6 2812.37 752.047   4
   2  17  -3 4639.08 363.372   2
 -17  -2  -3 6949.85 910.482   4
  19 -17  -3 8320.43 920.949   1
  19 -17  -3 5695.43 544.708   3
 -19   2  -3 5899.25 848.438   2
  17 -19  -3 4672.21 603.504   3
 -17  -2  -3 6993.78 860.403   2
 -19   2  -3 6550.37 881.317   4
  17 -19  -3 5901.21 808.532   1
  -2  19   0 97.0263 285.560   2
  19 -17   0-72.1327 285.345   3
  17 -19   0 619.698 484.550   1
   2  17   0 81.9903 385.778   3
  -2  19   0 431.874 436.848   3
 -19   2   0-144.716 365.515   4
 -17  -2   0 422.011 417.514   4
 -19   2   0-137.880 626.051   3
 -17  -2   0 207.735 289.778   3
 -19   2   0-261.509 382.919   2
 -17  -2   0 770.208 414.971   2
   2  17   0 134.844 288.423   2
  19 -17   0 413.345 546.770   1
   2  17   3 4733.32 747.443   3
  -2  19   3 4219.60 712.109   3
  17 -19   3 5181.21 887.226   1
  17 -19   3 4567.55 552.161   2
  -2  19   3 4299.34 574.253   1
 -19   2   3 5176.22 730.745   4
 -17  -2   3 4906.63 668.467   4
 -19   2   3 4594.22 661.960   2
 -17  -2   3 4996.94 666.597   2
 -17  -2   3 4122.63 416.747   3
  19 -17   3 6166.51 941.269   1
   2  17   6-72.3310 495.737   3
  -2  19   6 1144.43 546.028   3
  17 -19   6 1969.73 738.331   1
 -19   2   6 896.794 469.147   4
 -17  -2   6 1146.66 452.588   4
 -19   2   6 1837.36 551.015   2
 -17  -2   6 1347.91 500.495   2
  19 -17   6 813.040 581.819   1
 -19   2   6 1084.05 304.326   3
   2  17   9 2470.68 821.765   3
  -2  19   9 2410.49 816.893   3
  17 -19   9 4564.08 983.099   1
 -19   2   9 3181.54 862.481   1
 -17  -2   9 1371.62 1715.96   3
 -17  -2   9 3665.37 722.330   2
 -17  -2   9 3337.00 894.842   1
 -19   2   9 2811.15 759.202   2
  19 -17   9 1364.44 692.669   1
 -19   3 -10 9917.22 1266.59   4
 -19   3  -7 155.996 555.465   2
  -3  19  -7 491.264 157.623   4
 -19   3  -7 946.178 532.364   4
 -16  -3  -7 326.163 528.512   4
   3  16  -4 12984.0 526.857   2
   3  16  -4 13072.1 888.143   4
 -16  -3  -4 16277.4 1325.85   4
  -3  19  -4 13115.3 924.829   4
  19 -16  -4 14868.9 814.392   3
  16 -19  -4 18442.2 1266.91   1
 -19   3  -4 17925.6 1337.40   2
 -19   3  -4 16003.6 1268.38   4
 -16  -3  -4 16427.9 1276.56   2
  19 -16  -1 758.374 270.721   3
  -3  19  -1 362.131 238.931   2
   3  16  -1 554.760 431.020   3
  -3  19  -1 694.658 473.950   3
  16 -19  -1 1243.33 585.768   1
 -19   3  -1 460.403 386.261   4
 -16  -3  -1 1842.64 581.922   4
  19 -16  -1 659.232 433.472   1
 -16  -3  -1 912.719 377.085   3
   3  16  -1 260.247 267.430   2
 -19   3  -1 2164.71 581.221   2
 -16  -3  -1 309.251 395.203   2
   3  16   2 26438.4 1474.23   3
  19 -16   2 25850.9 1631.98   1
  16 -19   2 26072.1 1160.47   2
 -16  -3   2 28627.2 1427.66   2
 -16  -3   2 29171.2 1472.33   4
  -3  19   2 28039.1 1533.92   3
 -19   3   2 29337.1 1514.41   2
  16 -19   2 25940.3 1599.52   1
 -19   3   2 30476.2 1505.21   4
 -16  -3   2 27654.5 1012.81   3
   3  16   5 992.852 557.443   3
  -3  19   5 1341.28 576.382   3
 -16  -3   5 1027.95 351.127   3
  16 -19   5 1434.33 681.540   1
  -3  19   5 811.037 310.814   1
  16 -19   5 697.789 299.342   2
 -19   3   5 1650.99 559.214   2
 -19   3   5 712.601 392.310   4
 -16  -3   5 1318.93 415.994   4
 -16  -3   5 1258.07 450.347   2
 -19   3   5 566.690 128.979   3
  19 -16   5 1790.37 665.495   1
 -19   3   5 943.546 144.891   3
 -16  -3   8 20313.8 1674.72   1
 -19   3   8 21459.0 1547.48   2
 -19   3   8 21640.7 1236.64   4
  16 -19   8 18274.7 1627.59   1
 -16  -3   8 19768.6 1334.88   2
 -16  -3   8 21053.5 1047.76   4
 -19   3   8 20563.7 1064.85   3
 -16  -3   8 1714.88 1395.61   3
  19 -16   8-3168.66 2037.80   3
  19 -16   8 22304.8 1695.32   1
   3  16   8 20058.2 1656.38   3
  -3  19   8 22310.7 1695.60   3
 -19   4  -8 535.010 619.188   2
 -19   4  -8-82.1742 488.459   4
 -15  -4  -8 783.540 656.503   4
 -19   4  -5 2968.26 677.459   2
 -15  -4  -5 2703.52 660.902   2
  -4  19  -5 1410.05 330.128   4
   4  15  -5 1861.72 386.392   4
 -19   4  -5 3033.89 639.416   4
 -15  -4  -5 2912.13 695.304   4
  -4  19  -5 1854.52 417.127   4
  19 -15  -5 826.561 1089.90   3
 -15  -4  -5 2244.81 484.368   1
 -15  -4  -2 444.226 492.513   2
   4  15  -2 1535.09 491.304   3
  -4  19  -2 1770.70 510.861   3
 -19   4  -2 1235.77 461.776   4
  19 -15  -2 1431.93 509.488   1
  15 -19  -2 1720.79 632.847   1
 -15  -4  -2 1843.44 546.189   4
   4  15  -2 1022.53 300.771   2
 -19   4  -2 982.870 476.123   2
  19 -15  -2 1136.35 270.097   3
  -4  19  -2 908.034 199.000   2
   4  15   1 1334.26 452.409   3
  -4  19   1 1453.39 499.221   3
  -4  19   1 1282.53 415.184   2
  19 -15   1 1363.81 361.722   3
  15 -19   1 1510.41 583.879   1
 -19   4   1 1295.13 438.387   4
 -15  -4   1 2389.51 514.196   4
 -19   4   1 434.990 368.128   2
 -15  -4   1 1534.06 437.855   2
 -15  -4   1 1668.63 353.376   3
  19 -15   1 1337.99 531.968   1
   4  15   4-192.681 457.634   3
 -15  -4   4 644.843 308.470   3
  -4  19   4 1052.92 500.095   3
  15 -19   4 198.613 512.393   1
  19 -15   4 893.305 574.522   1
 -19   4   4 1107.68 464.969   4
 -15  -4   4 1114.99 401.497   4
  -4  19   4 473.391 323.062   1
  15 -19   4 533.636 274.971   2
 -19   4   4 1349.38 493.797   2
 -15  -4   4 715.565 403.737   2
   4  15   7 1224.26 594.858   3
  -4  19   7 1948.04 653.213   3
 -19   4   7 555.366 439.388   2
 -15  -4   7 1564.64 680.607   1
 -19   4   7 1439.11 490.091   4
 -15  -4   7 1521.93 414.645   4
 -15  -4   7 991.732 420.372   2
  19 -15   7 2086.02 1683.87   3
 -19   4   7 923.602 309.674   3
  19 -15   7 702.454 608.347   1
  15 -19   7 1667.33 700.610   1
  -4  19  10 24.6211 639.137   3
  15 -19  10 212.232 679.013   1
 -19   4  10-433.148 666.921   1
 -19   4  10 968.600 647.460   2
 -15  -4  10 357.961 699.576   1
 -15  -4  10 57.9082 446.978   2
 -15  -4  10-424.790 1773.03   3
  19 -15  10 1870.96 2784.70   3
  19 -15  10-1175.86 704.219   1
   4  15  10 926.853 809.721   3
 -19   5  -9 1130.28 614.306   4
 -14  -5  -6 1707.72 403.948   1
 -19   5  -6 1944.67 596.177   4
 -19   5  -6 2074.90 612.434   2
 -14  -5  -6 2322.70 619.698   2
  -5  19  -6 1391.29 297.259   4
 -14  -5  -6 1471.86 659.181   4
   5  14  -6 1728.61 307.110   4
  -5  19  -6 1444.81 366.307   4
 -14  -5  -3 10505.4 867.298   1
   5  14  -3 9702.69 595.574   2
  14 -19  -3 10573.3 942.192   1
 -19   5  -3 10693.3 988.955   4
   5  14  -3 9346.31 774.532   4
 -14  -5  -3 9697.38 1020.44   4
  19 -14  -3 9860.27 509.732   3
 -19   5  -3 9999.94 960.200   2
 -14  -5  -3 9625.44 956.815   2
  19 -14   0 925.760 283.524   3
   5  14   0 1253.15 463.060   3
  -5  19   0 1291.05 451.562   3
  -5  19   0 594.899 303.881   2
  14 -19   0 172.367 452.181   1
  19 -14   0 688.466 456.615   1
 -14  -5   0 1123.02 475.022   4
 -19   5   0 478.053 346.882   2
 -19   5   0 712.510 433.772   4
   5  14   0 913.303 328.409   2
 -14  -5   0 812.858 338.297   3
 -14  -5   0 727.812 410.952   2
  -5  19   3 6751.53 823.130   3
  19 -14   3 6559.84 895.996   1
  14 -19   3 5946.73 882.441   1
  -5  19   3 5481.25 649.883   1
 -19   5   3 5858.02 738.850   2
 -14  -5   3 7181.18 739.155   4
 -14  -5   3 6696.51 687.959   2
 -19   5   3 5764.62 694.731   4
 -14  -5   3 7181.26 610.527   3
   5  14   3 4541.17 716.275   3
   5  14   6 1353.06 627.478   3
  -5  19   6 72.1431 458.682   3
  19 -14   6 143.628 1311.87   3
  19 -14   6 578.965 522.371   1
 -19   5   6 864.478 207.407   3
 -14  -5   6 707.651 361.283   4
 -19   5   6 718.931 430.475   4
  14 -19   6 361.083 216.202   2
 -14  -5   6 928.907 611.836   1
  -5  19   6 477.243 242.631   1
 -19   5   6 929.763 524.233   2
 -14  -5   6 725.369 399.091   2
  14 -19   6 1788.89 721.673   1
 -19   5   6 723.243 206.577   3
  -5  19   9 3114.21 840.295   3
  19 -14   9 2138.58 727.503   1
 -19   5   9 3379.84 790.608   2
 -19   5   9 2839.49 560.560   4
 -14  -5   9 2921.76 864.471   1
 -14  -5   9 3195.66 622.635   2
 -14  -5   9-483.589 1412.48   3
  19 -14   9 1829.99 2336.67   3
  14 -19   9 2771.93 866.137   1
   5  14   9 1963.97 798.383   3
 -19   6 -10 6557.60 1050.54   4
 -19   6  -7 2277.40 637.526   2
 -13  -6  -7 1714.15 242.349   1
  -6  19  -7 1201.59 210.791   4
 -19   6  -7 2380.87 662.139   4
 -13  -6  -7 1394.17 652.802   4
 -13  -6  -4 29328.8 1638.71   2
  -6  19  -4 23801.5 1106.37   4
   6  13  -4 25700.4 1133.38   4
 -13  -6  -4 29821.7 1718.52   4
 -19   6  -4 29019.1 1577.31   4
   6  13  -4 27169.8 969.775   2
 -13  -6  -4 26359.7 1196.69   1
  13 -19  -4 28564.8 1437.64   1
 -19   6  -4 26980.9 1538.52   2
  -6  19  -1 4223.42 430.991   2
   6  13  -1 5233.39 630.502   3
  -6  19  -1 4596.38 659.330   3
 -19   6  -1 4915.21 692.076   4
 -13  -6  -1 5648.25 747.971   4
  19 -13  -1 5276.20 745.487   1
   6  13  -1 4428.89 522.606   2
 -19   6  -1 4638.44 643.151   2
  13 -19  -1 4852.75 713.325   1
 -13  -6  -1 4793.95 628.934   3
 -13  -6  -1 4818.47 634.436   2
  19 -13  -1 4644.21 350.843   3
   6  13   2 30606.1 1526.26   3
  -6  19   2 30225.7 1516.41   3
  13 -19   2 26753.0 1612.34   1
 -19   6   2 29166.0 1469.84   2
  -6  19   2 26794.3 1318.87   1
  19 -13   2 30952.0 1676.13   1
 -13  -6   2 32014.0 1486.28   4
 -13  -6   2 30496.5 1374.58   2
 -19   6   2 27293.6 1412.71   4
 -13  -6   2 28698.3 1154.18   3
   6  13   5 1419.48 587.462   3
 -13  -6   5 1586.93 432.528   4
  -6  19   5 1017.97 499.788   3
  19 -13   5 870.726 487.193   1
  13 -19   5 1424.79 229.859   2
 -19   6   5 1188.31 447.697   4
 -19   6   5 1291.61 533.055   2
 -13  -6   5 882.215 527.180   1
 -13  -6   5 2223.20 463.636   2
  -6  19   5 1085.46 348.914   1
  13 -19   5 764.828 544.812   1
  19 -13   8 8733.31 1059.07   1
 -19   6   8 8539.35 1026.99   2
  13 -19   8 7983.66 1128.59   1
 -13  -6   8 6813.32 1039.31   1
 -19   6   8 8933.07 868.132   4
 -13  -6   8 7220.84 782.512   2
 -19   6   8 8446.15 698.139   3
   6  13   8 8281.02 1134.15   3
  -6  19   8 8814.64 1110.62   3
 -19   7  -8 3517.14 829.812   2
 -19   7  -8 3802.25 785.829   4
 -19   7  -5 586.805 437.669   2
 -12  -7  -5 2192.80 651.403   2
 -12  -7  -5 1962.08 391.384   1
  -7  19  -5 1259.13 330.474   4
   7  12  -5 2047.35 371.061   4
 -19   7  -5 1584.43 557.782   4
 -12  -7  -5 2379.12 674.363   4
   7  12  -5 2263.65 364.775   2
  12 -19  -5 1089.60 440.808   1
  -7  19  -2 6929.30 412.295   2
   7  12  -2 6477.24 700.886   3
 -19   7  -2 8143.17 841.806   4
   7  12  -2 6765.90 566.274   2
  -7  19  -2 5918.75 357.384   2
 -12  -7  -2 7943.52 886.341   4
  19 -12  -2 5816.47 245.325   3
 -19   7  -2 8872.02 838.383   2
  12 -19  -2 8897.68 916.897   1
 -12  -7  -2 8115.08 841.942   2
  12 -19   1-131.749 430.546   1
   7  12   1 516.072 400.770   3
  -7  19   1-43.5098 338.909   3
  19 -12   1 395.499 246.746   3
 -19   7   1-114.790 328.315   4
 -12  -7   1 520.015 373.875   4
 -19   7   1 72.0150 357.081   2
  19 -12   1 757.246 536.838   1
 -12  -7   1-13.7291 306.357   2
 -12  -7   1 238.090 283.909   3
   7  12   4 2008.64 588.862   3
  -7  19   4 1313.54 503.730   3
 -12  -7   4 1955.77 464.390   3
 -12  -7   4 2677.09 647.674   1
 -19   7   4 1619.76 437.062   4
 -19   7   4 1519.83 484.291   2
 -12  -7   4 1576.32 460.674   4
  19 -12   4 740.122 1082.28   3
  12 -19   4 1731.16 650.606   1
 -12  -7   4 1265.34 385.257   2
  19 -12   4 1909.78 576.920   1
  -7  19   4 1647.67 420.724   1
  -7  19   7 1826.43 640.384   3
  19 -12   7 2237.82 665.693   1
 -19   7   7 1434.04 499.288   4
 -19   7   7 1872.98 613.386   2
 -12  -7   7 2527.64 406.391   4
 -12  -7   7 1998.09 485.359   2
  12 -19   7 1974.28 751.619   1
 -19   7   7 2114.67 359.654   3
 -12  -7   7 2764.56 767.983   1
   7  12   7 1577.47 650.865   3
  -7  19  10 2455.30 820.167   3
 -19   7  10 2023.65 788.529   1
 -19   7  10 2628.56 792.607   2
  12 -19  10 2852.58 868.341   1
  19 -12  10 1371.21 709.469   1
 -12  -7  10 2475.11 604.388   2
 -12  -7  10 2802.59 850.828   1
 -12  -7  10-279.391 1556.25   3
  19 -12  10-1219.59 1425.93   3
   7  12  10 4088.78 997.453   3
 -19   8  -9 5971.02 923.237   4
 -19   8  -6 237.354 434.311   2
   8  11  -6 509.965 250.426   4
  -8  19  -6 830.414 281.307   4
 -11  -8  -6 543.858 188.076   1
 -11  -8  -6 371.562 475.893   4
 -19   8  -6 1177.55 503.221   4
 -11  -8  -6 893.567 231.032   1
  11 -19  -3 2716.36 556.072   1
 -11  -8  -3 2717.55 600.067   2
 -11  -8  -3 2874.29 461.577   1
  -8  19  -3 2269.64 466.979   4
   8  11  -3 2379.58 443.260   4
   8  11  -3 2825.71 426.409   2
 -19   8  -3 1965.55 522.571   4
 -11  -8  -3 2128.75 626.435   4
 -19   8  -3 3307.31 608.338   2
   8  11   0 9572.02 811.054   3
  19 -11   0 8608.29 454.760   3
  -8  19   0 9288.97 855.780   3
 -11  -8   0 8146.11 798.885   1
  -8  19   0 7185.01 596.586   2
  19 -11   0 9731.98 990.741   1
 -19   8   0 9315.57 869.232   4
 -19   8   0 6613.48 743.854   2
 -11  -8   0 8712.63 885.554   4
 -11  -8   0 8311.54 771.848   2
 -11  -8   0 7431.10 720.095   3
  11 -19   0 9417.40 951.850   1
 -11  -8   3 7626.08 701.758   3
  -8  19   3 8477.49 849.318   3
  11 -19   3 6795.39 901.549   1
 -11  -8   3 8420.10 913.158   1
 -19   8   3 8569.75 815.232   4
 -19   8   3 7647.60 831.483   2
 -11  -8   3 9584.47 820.460   4
  19 -11   3 10422.8 994.218   1
  -8  19   3 8537.49 746.089   1
 -11  -8   3 8970.32 731.246   2
   8  11   3 6616.32 798.090   3
 -11  -8   6 5855.00 549.202   4
  11 -19   6 4836.84 888.586   1
 -19   8   6 6262.62 868.172   2
  19 -11   6 6707.63 900.318   1
 -11  -8   6 6826.88 957.031   1
 -19   8   6 6470.52 741.531   4
 -11  -8   6 5759.84 618.345   2
  -8  19   6 4555.56 524.702   1
   8  11   6 5155.85 865.420   3
 -19   8   6 5603.67 375.617   3
  -8  19   6 6717.15 891.062   3
 -11  -8   9 7860.89 1173.86   1
  19 -11   9 5569.04 916.850   1
 -19   8   9 4304.99 649.985   4
 -19   8   9 4927.52 932.664   2
 -11  -8   9 4634.68 641.954   2
  11 -19   9 4414.69 1002.87   1
  -8  19   9 5756.78 978.280   3
   8  11   9 3601.77 906.157   3
 -19   9 -10 3457.02 767.679   4
 -19   9  -7 2360.84 617.558   2
  -9  19  -7 2043.09 317.089   4
 -10  -9  -4 13281.4 1219.76   2
   9  10  -4 13403.9 810.055   2
  -9  19  -4 13083.2 850.579   4
 -10  -9  -4 15395.2 821.705   1
   9  10  -4 12286.2 794.627   4
 -19   9  -4 17113.5 1200.76   4
 -10  -9  -4 14571.5 813.356   1
 -10  -9  -4 12097.0 1118.91   4
 -19   9  -4 14498.7 1104.66   2
  10 -19  -4 13583.0 959.562   1
  -9  19  -1 52.3732 366.246   4
 -10  -9  -1 574.140 380.878   2
  10 -19  -1 215.145 388.186   1
   9  10  -1 930.482 426.568   3
  -9  19  -1 819.868 401.738   3
  -9  19  -1 670.294 254.174   2
 -19   9  -1 807.009 381.126   4
 -10  -9  -1 425.707 392.104   4
   9  10  -1 664.427 315.437   2
 -19   9  -1 899.509 379.043   2
 -10  -9  -1 282.296 294.962   1
  -9  19   2 23487.9 1284.12   3
  19 -10   2 23945.2 1453.68   1
  10 -19   2 21757.3 1399.84   1
 -10  -9   2 22383.1 1336.50   1
 -19   9   2 21805.8 1246.82   4
 -19   9   2 21606.8 1271.93   2
 -10  -9   2 21441.4 1193.54   4
 -10  -9   2 20787.7 1062.98   2
 -10  -9   2 19327.5 1087.91   3
   9  10   2 23024.6 1269.67   3
 -19   9   5 3643.46 663.290   2
  19 -10   5 3155.07 668.595   1
  -9  19   5 2492.14 470.683   1
 -19   9   5 3039.60 565.426   4
 -10  -9   5 3369.54 487.092   4
  10 -19   5 3168.37 740.678   1
 -10  -9   5 3689.65 743.330   1
 -10  -9   5 3007.25 468.584   2
  19 -10   5 762.093 1310.91   3
  -9  19   5 2956.70 622.351   3
   9  10   5 2560.15 680.441   3
  10 -19   8 5546.94 960.834   1
 -10  -9   8 6573.12 1038.00   1
 -19   9   8 5603.15 1003.62   2
 -19   9   8 5793.06 744.675   4
  19 -10   8 6793.86 913.121   1
 -10  -9   8 6342.61 663.675   2
 -19   9   8 6252.81 613.627   3
  -9  19   8 5609.64 889.676   3
   9  10   8 4348.62 933.927   3
 -19  10  -8 6836.72 932.725   2
 -19  10  -8 6396.96 890.038   4
  10   9  -5 2222.15 452.281   2
 -10  19  -5 2999.73 456.382   4
  10   9  -5 2648.04 412.349   4
  -9 -10  -5 2362.96 329.698   1
  -9 -10  -5 3154.70 352.791   1
 -19  10  -5 3008.23 646.066   4
   9 -19  -5 3274.38 495.352   1
 -19  10  -5 3336.12 612.511   2
  -9 -10  -2 20167.7 1236.39   2
  10   9  -2 19517.8 1049.21   3
  10   9  -2 21010.5 1051.09   2
 -10  19  -2 20161.0 1120.21   4
  -9 -10  -2 21208.6 1087.59   1
 -19  10  -2 22144.0 1279.66   4
 -10  19  -2 20069.5 729.673   2
   9 -19  -2 21271.8 1208.54   1
  -9 -10  -2 20371.7 1332.00   4
 -19  10  -2 21846.9 1212.34   2
  -9 -10   1 218.425 287.102   2
  10   9   1-45.8497 305.511   3
 -10  19   1 242.956 324.946   3
 -10  19   1 654.661 343.841   2
 -19  10   1 854.710 388.295   4
  -9 -10   1 522.157 354.658   1
 -19  10   1 554.929 328.881   2
  -9 -10   1 364.553 354.612   4
   9 -19   1 96.1717 441.868   1
  19  -9   1 412.373 316.009   3
  19  -9   1 440.704 412.431   1
 -10  19   4 15376.6 1101.31   3
   9 -19   4 14826.8 1280.10   1
  -9 -10   4 13198.7 1184.30   1
 -19  10   4 13650.6 1065.43   4
 -19  10   4 15330.9 1181.35   2
  -9 -10   4 11311.1 815.662   4
  -9 -10   4 15084.6 866.711   2
 -10  19   4 12135.2 908.703   1
  19  -9   4 14583.3 1166.27   1
  10   9   4 14690.7 1162.23   3
 -19  10   7 3126.90 601.307   4
   9 -19   7 3522.97 799.200   1
  -9 -10   7 2521.04 429.404   2
  19  -9   7 3731.21 762.944   1
  -9 -10   7 1715.33 627.634   1
  19  -9   7 2934.15 1050.96   3
 -19  10   7 3214.93 714.859   2
  10   9   7 4445.06 864.397   3
 -19  10   7 2604.40 392.866   3
 -10  19   7 3521.48 723.649   3
 -10  19  10 4853.26 947.534   3
 -10  19  10 3710.91 859.716   4
  19  -9  10 2685.81 698.861   1
 -19  10  10 3018.34 612.411   4
 -19  10  10 2255.57 752.357   2
   9 -19  10 3492.09 977.475   1
  -9 -10  10 4028.83 973.500   1
  19  -9  10 4044.20 1086.48   3
  10   9  10 3895.36 997.618   3
 -19  11  -9 4663.97 784.225   4
  11   8  -6 4939.90 509.199   4
 -11  19  -6 4392.92 495.514   4
 -19  11  -6 5807.35 748.056   4
 -19  11  -6 4262.42 688.010   2
  -8 -11  -3 9320.43 984.419   2
 -11  19  -3 8512.14 438.564   2
 -11  19  -3 9851.05 796.860   4
  11   8  -3 7929.96 714.373   2
 -19  11  -3 10192.7 901.603   4
   8 -19  -3 9024.87 778.574   1
 -19  11  -3 9688.27 853.899   2
  -8 -11  -3 10570.8 716.732   1
  11   8   0 8794.32 752.848   3
 -11  19   0 8128.57 785.240   3
   8 -19   0 10836.2 954.441   1
 -19  11   0 9019.30 843.540   4
 -11  19   0 8203.88 797.515   4
 -11  19   0 8780.93 672.808   2
 -19  11   0 8432.36 795.276   2
  -8 -11   0 8848.66 868.008   4
  19  -8   0 8189.79 403.109   3
  -8 -11   0 9314.62 835.629   1
  -8 -11   0 7943.76 722.158   2
  11   8   3 2191.44 526.178   3
 -11  19   3 3051.23 556.299   3
 -19  11   3 2565.31 532.868   4
   8 -19   3 2747.39 644.408   1
 -19  11   3 2716.13 567.305   2
  -8 -11   3 2786.39 626.902   1
  -8 -11   3 2684.05 487.040   4
  19  -8   3 3547.95 628.821   3
  19  -8   3 2812.79 603.334   1
 -11  19   3 2254.54 491.812   2
  -8 -11   3 1957.74 367.870   2
 -11  19   6 899.227 498.009   3
 -11  19   6 886.900 427.144   1
   8 -19   6 1424.91 646.500   1
 -19  11   6 1105.78 477.381   4
 -19  11   6 971.668 548.328   2
  19  -8   6 882.988 480.634   1
  -8 -11   6 1562.22 568.237   1
  19  -8   6 1775.68 716.934   3
  -8 -11   6 795.780 316.290   2
 -19  11   6 1486.57 297.952   3
  11   8   6 978.816 522.704   3
 -11  19   9 4877.06 911.916   4
 -19  11   9 5714.35 982.985   2
 -19  11   9 4317.34 705.205   4
   8 -19   9 4792.77 1004.06   1
  -8 -11   9 7380.62 1111.71   1
  19  -8   9 3911.21 713.640   1
  19  -8   9 6816.27 1188.73   3
  11   8   9 6846.66 1123.97   3
 -19  11   9 5276.64 650.940   3
 -11  19   9 6461.07 969.371   3
 -19  12 -10 3415.00 708.887   4
 -19  12  -7 1680.97 531.960   2
 -12  19  -7 1641.64 365.545   4
 -19  12  -7 2606.15 586.319   4
 -12  19  -4 1994.41 433.529   4
  12   7  -4 1113.73 349.650   4
 -19  12  -4 2019.25 481.246   4
  -7 -12  -4 2691.29 401.428   1
 -19  12  -4 2452.62 524.301   2
 -12  19  -4 1924.64 259.680   2
   7 -19  -4 2813.29 479.095   1
  12   7  -1-67.5613 301.564   3
  -7 -12  -1 207.563 331.625   2
 -12  19  -1 141.219 340.851   4
 -12  19  -1 183.228 236.849   2
  -7 -12  -1-243.002 305.634   1
 -19  12  -1 564.667 348.284   2
   7 -19  -1 325.979 419.464   1
 -19  12  -1 1.61517 328.353   4
 -12  19   2 8463.79 777.260   3
 -12  19   2 8357.39 870.155   4
 -12  19   2 9380.45 818.945   2
  -7 -12   2 10427.8 943.666   1
 -19  12   2 9335.26 881.841   2
  19  -7   2 8430.93 697.547   3
 -19  12   2 9938.57 906.899   4
  -7 -12   2 9209.14 672.030   2
  12   7   2 9856.54 837.842   3
   7 -19   2 8144.73 891.927   1
 -19  12   5 2237.91 275.673   3
 -12  19   5 2077.18 515.963   3
 -12  19   5 2145.14 576.560   4
 -12  19   5 892.764 508.894   2
   7 -19   5 1927.17 612.707   1
 -19  12   5 2460.34 603.990   4
  19  -7   5 2237.73 586.383   1
 -19  12   5 1590.82 545.824   2
  -7 -12   5 1381.22 529.188   1
  -7 -12   5 2188.34 357.449   2
  19  -7   5 2752.91 675.923   3
  12   7   5 2413.69 626.152   3
  19  -7   8 4201.49 709.779   1
 -19  12   8 3267.13 652.358   4
   7 -19   8 3936.83 872.761   1
 -19  12   8 3343.92 767.179   2
  -7 -12   8 3744.48 456.126   2
 -12  19   8 2419.18 672.784   4
  19  -7   8 5816.94 1037.54   3
  -7 -12   8 3635.28 870.600   1
 -19  12   8 3891.10 536.744   3
  12   7   8 5039.29 923.605   3
 -12  19   8 4063.94 760.265   3
 -19  13  -8 8198.34 949.411   2
 -13  19  -8 8562.75 660.336   4
 -19  13  -8 9338.08 970.224   4
 -13  19  -5 1809.78 253.010   2
 -13  19  -5 1150.20 361.022   4
 -19  13  -5 2495.62 550.988   2
 -19  13  -5 1243.56 492.464   4
  13   6  -5 1110.88 371.744   4
  -6 -13  -5 1797.60 261.540   1
   6 -19  -5 1539.98 377.074   1
  13   6  -2 27783.4 1143.52   3
  -6 -13  -2 28234.7 1443.12   2
   6 -19  -2 28214.9 1383.05   1
 -13  19  -2 28410.4 1373.21   4
 -19  13  -2 27120.8 1421.38   4
  -6 -13  -2 25098.8 1165.38   1
 -13  19  -2 27213.4 978.978   2
 -19  13  -2 25676.1 1294.04   2
  -6 -13   1 4458.64 545.233   2
 -13  19   1 5525.06 635.036   3
 -13  19   1 4378.72 649.736   4
 -13  19   1 4941.95 602.897   2
 -19  13   1 6087.55 762.547   4
 -19  13   1 5169.64 680.956   2
  19  -6   1 5632.67 472.711   3
  -6 -13   1 5276.36 691.656   1
   6 -19   1 4745.23 727.379   1
  13   6   1 5817.50 625.018   3
 -13  19   4 27667.3 1363.48   3
 -19  13   4 29369.6 755.430   3
 -13  19   4 28870.0 1573.97   2
 -13  19   4 27388.3 1573.28   4
 -19  13   4 26795.9 1554.66   2
  -6 -13   4 31013.9 1738.76   1
  19  -6   4 28827.3 1452.65   3
  -6 -13   4 28290.9 997.986   2
   6 -19   4 27064.2 1679.21   1
  13   6   4 29358.2 1536.65   3
 -19  13   4 30228.7 1569.70   4
 -13  19   7 2442.87 595.468   3
   6 -19   7 1046.48 673.346   1
 -13  19   7 1243.85 642.982   2
 -19  13   7 554.488 446.914   4
 -19  13   7 2811.29 733.509   2
  19  -6   7 3697.77 663.005   1
  -6 -13   7 2373.78 335.934   2
  -6 -13   7 2726.95 810.331   1
  19  -6   7 3291.65 787.622   3
 -13  19   7 2196.87 635.839   4
  13   6   7 1361.98 612.474   3
 -19  13   7 2922.64 443.505   3
 -19  13  10 2845.12 850.771   2
 -13  19  10 5586.81 1113.21   2
 -13  19  10 4405.53 902.231   4
 -19  13  10 5234.28 845.583   4
   6 -19  10 3581.02 976.025   1
  -6 -13  10 6112.97 1160.33   1
  19  -6  10 4311.46 1059.39   3
  13   6  10 7604.90 1251.26   3
 -13  19  10 5526.08 986.357   3
 -19  14  -9 3206.81 661.028   4
  14   5  -6 884.137 368.330   4
 -19  14  -6 1729.08 512.221   2
 -14  19  -6 437.729 324.291   4
 -19  14  -6 852.183 455.974   4
 -14  19  -3 6098.59 680.766   4
 -19  14  -3 5929.72 728.291   4
   5 -19  -3 6033.83 643.506   1
  -5 -14  -3 6931.56 706.532   1
 -14  19  -3 5747.77 481.231   2
 -19  14  -3 6231.44 698.168   2
  19  -5   0 1041.71 189.424   3
  14   5   0 897.016 330.623   3
 -19  14   0 1276.57 467.599   4
  -5 -14   0 1127.79 413.391   2
 -14  19   0 713.918 406.423   4
 -19  14   0 533.440 316.025   2
   5 -19   0 271.143 371.720   1
  -5 -14   0 1273.32 463.356   1
 -14  19   0 1336.16 333.866   2
 -14  19   3 9848.51 817.210   3
  -5 -14   3 11541.6 1072.07   1
 -14  19   3 10597.0 998.198   4
 -14  19   3 9883.07 911.008   2
 -19  14   3 12600.7 1043.78   4
 -19  14   3 10519.6 964.471   2
  19  -5   3 10410.0 816.171   3
   5 -19   3 11071.0 1066.96   1
  14   5   3 10406.0 892.885   3
  -5 -14   3 10899.1 645.890   2
  -5 -14   6 1122.67 235.784   2
 -14  19   6 1256.58 440.502   3
 -19  14   6 1776.72 354.210   3
   5 -19   6 1746.58 631.308   1
 -14  19   6 1218.69 596.535   2
 -19  14   6 1643.14 536.254   4
  -5 -14   6 2511.44 781.987   1
 -19  14   6 2182.19 640.342   2
 -14  19   6 1003.63 507.319   4
  19  -5   6 2210.91 651.193   3
  14   5   6 1630.48 574.666   3
 -19  14   9 1631.05 533.687   3
 -14  19   9 1662.61 629.724   3
   5 -19   9 3030.27 873.592   1
 -14  19   9 86.5985 604.770   2
 -19  14   9 1536.94 639.828   2
 -19  14   9 1781.88 610.037   4
  19  -5   9 1205.58 754.804   3
  -5 -14   9 1204.54 765.638   1
  14   5   9 1901.85 795.340   3
 -14  19   9 1128.60 660.974   4
 -19  15  -7 935.741 462.714   2
 -15  19  -7 1110.43 396.609   4
 -19  15  -7 873.047 440.028   4
  -4 -15  -4 742.630 305.704   1
 -15  19  -4 495.574 338.230   4
 -19  15  -4-44.3800 373.587   4
   4 -19  -4 533.437 324.298   1
 -15  19  -4 360.401 254.531   2
 -19  15  -4 755.096 404.075   2
 -15  19  -1 2078.05 514.136   4
  15   4  -1 1845.05 357.634   3
 -19  15  -1 2137.97 510.535   4
   4 -19  -1 2431.57 525.854   1
 -15  19  -1 1732.03 387.010   2
 -19  15  -1 1358.50 423.260   2
  -4 -15  -1 2167.99 476.011   1
  15   4   2 1840.63 465.831   3
 -15  19   2 1289.79 399.964   3
   4 -19   2 1995.46 610.813   1
  -4 -15   2 1317.39 324.868   2
 -15  19   2 1294.33 467.085   4
 -19  15   2 2046.50 522.042   4
 -15  19   2 1167.78 395.630   2
 -19  15   2 2018.92 501.525   2
  -4 -15   2 1303.46 477.314   1
  19  -4   2 1356.54 363.227   3
 -15  19   5 2969.62 553.647   3
 -19  15   5 2782.03 406.075   3
   4 -19   5 2720.06 674.729   1
 -19  15   5 3086.03 647.378   4
 -15  19   5 2428.76 645.411   2
 -19  15   5 2774.76 664.686   2
  -4 -15   5 1538.58 635.862   1
 -15  19   5 2512.36 599.243   4
  19  -4   5 1921.53 591.605   3
  15   4   5 2327.77 632.257   3
  -4 -15   5 2117.64 249.055   2
 -19  15   8 822.819 429.941   3
 -15  19   8 722.624 561.789   3
   4 -19   8 1441.33 719.837   1
 -15  19   8 1371.81 562.757   4
 -15  19   8 161.354 544.268   2
 -19  15   8 680.530 489.889   4
  19  -4   8 1831.38 771.892   3
  -4 -15   8 598.532 616.850   1
  15   4   8 412.800 600.608   3
 -19  15   8 690.177 582.143   2
 -19  16  -8 17701.5 1226.32   2
 -16  19  -8 16781.5 1039.30   4
 -19  16  -8 19409.1 1276.18   4
 -19  16  -5 1220.61 460.970   2
 -16  19  -5 509.686 300.025   2
 -19  16  -5 1171.50 439.869   4
 -16  19  -5 1435.10 409.285   4
  -3 -16  -5 678.762 217.149   1
   3 -19  -5 673.679 292.360   1
   3 -19  -2 30282.2 1371.51   1
 -16  19  -2 27179.7 1414.13   4
 -19  16  -2 27992.4 1479.51   4
 -16  19  -2 25102.2 1085.81   2
 -19  16  -2 28266.8 1336.29   2
  -3 -16  -2 27460.9 1269.36   1
  16   3   1 906.509 371.976   3
   3 -19   1 924.340 503.144   1
 -19  16   1 524.274 375.148   2
 -16  19   1 233.806 298.036   3
 -19  16   1 1683.63 509.404   4
 -16  19   1 623.971 319.676   2
 -16  19   1 316.983 380.819   4
  -3 -16   1 702.393 461.855   1
  19  -3   1 738.300 272.070   3
 -16  19   4 20072.5 1098.19   3
 -19  16   4 18871.3 829.320   3
 -19  16   4 17105.9 1279.36   2
 -16  19   4 15404.8 1210.65   4
 -16  19   4 16963.2 1257.62   2
  -3 -16   4 19937.3 1446.17   1
 -19  16   4 16730.5 1227.47   4
   3 -19   4 19200.6 1427.53   1
  19  -3   4 19016.4 1201.97   3
  16   3   4 19313.5 1258.45   3
 -16  19   7 1798.13 569.010   3
   3 -19   7 288.030 568.327   1
 -16  19   7 1357.16 594.686   4
 -16  19   7 1296.78 616.077   2
 -19  16   7 569.594 493.985   4
 -19  16   7 1266.48 610.145   2
  19  -3   7 1625.32 622.955   3
  -3 -16   7 1768.30 699.020   1
  16   3   7 1190.00 630.537   3
 -19  16   7 2568.17 540.246   3
 -16  19  10 9675.43 1370.06   2
 -16  19  10 10364.1 1212.35   4
 -19  16  10 10821.4 1375.60   2
 -19  16  10 8923.92 1090.82   4
  -3 -16  10 9088.36 1336.07   1
  19  -3  10 12757.4 1570.13   3
  16   3  10 13425.6 1637.47   3
   3 -19  10 10998.5 1474.52   1
 -16  19  10 11626.5 1225.74   3
 -19  17  -9 3445.95 655.896   4
 -19  17  -6 864.323 419.886   2
 -17  19  -6 886.104 364.439   2
 -19  17  -6 999.285 443.875   4
 -17  19  -6 646.074 378.466   4
   2 -19  -3 4730.91 591.648   1
 -17  19  -3 4327.67 637.550   4
 -19  17  -3 4451.33 650.956   4
 -17  19  -3 4321.22 528.117   2
 -19  17  -3 5123.84 610.637   2
  -2 -17  -3 4254.56 557.429   1
  19  -2   0 404.427 217.044   3
  17   2   0 144.201 268.498   3
   2 -19   0 233.133 375.833   1
 -17  19   0 1198.86 457.680   4
 -19  17   0 237.897 366.063   4
 -17  19   0 603.966 347.524   2
 -19  17   0 760.352 376.638   2
  -2 -17   0 9.70247 405.567   1
 -17  19   3 7602.59 682.093   3
 -19  17   3 7205.12 577.140   3
 -17  19   3 7008.84 879.095   4
 -19  17   3 7412.76 837.401   4
 -17  19   3 7533.30 859.673   2
 -19  17   3 7132.60 833.534   2
  -2 -17   3 7705.50 980.665   1
   2 -19   3 6848.00 900.406   1
  19  -2   3 7527.50 755.638   3
  17   2   3 7519.74 774.339   3
 -17  19   6 2085.62 496.260   3
   2 -19   6 2243.99 734.035   1
 -19  17   6 2346.19 442.874   3
 -17  19   6 1567.13 589.412   4
 -17  19   6 1729.14 634.661   2
 -19  17   6 1510.89 596.475   2
  19  -2   6 922.346 556.088   3
  17   2   6 1078.81 587.891   3
  -2 -17   6-45.1990 565.654   1
 -19  17   6 1585.07 545.597   4
  -2 -17   9 575.623 657.572   1
 -19  17   9 1269.33 548.488   3
 -17  19   9 457.643 511.152   3
   2 -19   9-500.957 654.418   1
 -17  19   9-19.6456 522.089   4
 -17  19   9 652.282 663.086   2
 -19  17   9 1881.05 721.614   4
 -19  17   9 943.892 762.607   2
  19  -2   9 13.2783 693.156   3
  17   2   9 162.775 737.827   3
 -19  18  -7-53.7205 370.540   2
 -18  19  -7 78.3192 336.031   2
 -18  19  -7 1.08007 358.964   4
 -19  18  -7 366.294 410.585   4
 -18  19  -4 0.55358 373.198   4
 -19  18  -4-94.6896 341.212   4
  -1 -18  -4 363.093 289.309   1
   1 -19  -4-107.304 304.098   1
 -18  19  -4 269.077 316.145   2
 -19  18  -4 302.154 344.280   2
  18   1  -1 7455.12 509.072   3
  19  -1  -1 6612.62 405.095   3
 -18  19  -1 6540.99 670.205   2
 -18  19  -1 5992.62 730.977   4
 -19  18  -1 5735.34 756.110   4
 -19  18  -1 6207.54 660.552   2
  -1 -18  -1 6190.02 693.992   1
   1 -19  -1 6445.11 789.280   1
  18   1   2 557.341 353.211   3
   1 -19   2 715.348 505.637   1
 -18  19   2 257.868 279.043   3
 -18  19   2 206.286 411.396   4
 -19  18   2 155.488 411.240   4
 -18  19   2 680.291 394.612   2
 -19  18   2 307.070 384.279   2
  -1 -18   2 1098.82 539.938   1
  19  -1   2 359.211 324.593   3
 -18  19   5 1934.58 648.793   2
   1 -19   5 2710.79 756.969   1
 -18  19   5 1745.55 435.387   3
 -19  18   5 1790.89 403.847   3
 -18  19   5 1896.40 546.840   4
 -19  18   5 1984.53 636.150   2
 -19  18   5 1227.72 547.039   4
  19  -1   5 1730.35 570.206   3
  18   1   5 1296.49 543.988   3
  -1 -18   5 925.878 627.928   1
  -1 -18   8 938.356 772.493   1
 -19  18   8 751.630 449.404   3
   1 -19   8-714.577 631.445   1
 -18  19   8 787.632 521.493   4
 -19  18   8 4.16256 486.394   4
 -18  19   8 622.633 621.556   2
 -19  18   8-295.218 576.429   2
  19  -1   8-694.458 650.849   3
  18   1   8 714.916 691.245   3
 -19  19  -8 15991.6 1162.91   4
 -19  19  -5-38.1978 323.811   2
   0 -19  -5 299.226 263.198   1
 -19  19  -5-87.8192 374.723   4
 -19  19  -2 16245.1 1166.90   4
 -19  19  -2 15906.2 1000.67   2
   0 -19  -2 17283.0 1102.20   1
 -19  19   1-410.333 432.296   4
  19   0   1 52.1242 285.884   3
   0 -19   1 330.978 496.021   1
 -19  19   1 128.114 379.979   2
 -19  19   4 6299.19 623.255   3
 -19  19   4 5874.16 830.834   4
 -19  19   4 6927.65 912.391   2
   0 -19   4 5346.93 890.864   1
  19   0   4 5922.68 772.901   3
   0 -19   7-389.771 620.358   1
 -19  19   7 642.534 431.407   3
 -19  19   7-944.326 582.694   4
 -19  19   7-560.909 582.265   2
  19   0   7-196.426 634.589   3
 -20   0  -8 5102.19 1021.70   2
 -20   0  -8 3403.51 933.212   4
 -20   0  -5-1000.48 600.610   2
 -20   0  -5 801.911 662.102   4
   0  20  -2 10075.9 1039.30   3
 -20   0  -2 12319.7 1191.31   4
   0  20  -2 7154.94 511.928   2
 -20   0  -2 11353.1 1089.86   2
  20 -20  -2 10311.8 1087.07   1
  20 -20  -2 8698.83 741.787   3
   0  20   1 465.915 504.493   3
  20 -20   1 282.626 539.660   1
 -20   0   1-380.549 397.505   4
 -20   0   1 324.920 379.357   3
 -20   0   1 988.243 473.242   2
   0  20   4 971.512 571.349   3
 -20   0   4 1118.58 463.347   4
 -20   0   4 1160.64 504.427   2
  20 -20   4 179.803 563.881   1
 -20   0   4 1606.57 236.188   3
   0  20   7-423.615 545.347   3
  20 -20   7-249.768 599.816   1
 -20   0   7 462.405 436.593   2
 -20   0   7-380.209 385.639   4
 -20   1  -9 532.148 597.899   4
 -19  -1  -9-275.734 673.958   4
 -20   1  -6 2379.22 714.777   2
 -19  -1  -6 3281.82 800.309   2
  -1  20  -6 1454.23 347.844   4
 -20   1  -6 3748.27 828.777   4
 -19  -1  -6 2985.00 757.564   4
 -20   1  -3 33.4734 483.069   2
 -19  -1  -3 506.842 512.662   2
  20 -19  -3-126.461 449.935   1
  19 -20  -3 528.272 495.228   1
  -1  20  -3 133.986 94.4866   2
 -20   1  -3 1041.02 593.126   4
   1  19  -3-92.5007 147.733   2
 -19  -1  -3 916.563 541.142   4
  20 -19  -3-48.8271 315.962   3
  19 -20  -3-66.7741 348.537   3
  -1  20   0 1557.16 426.359   2
  20 -19   0 1496.69 431.286   3
   1  19   0 1819.69 522.110   3
  -1  20   0 1714.49 557.218   3
  19 -20   0 1789.47 649.463   1
 -20   1   0 2203.68 601.142   4
 -19  -1   0 1142.43 484.742   4
 -20   1   0 4222.38 1153.38   3
 -19  -1   0 1462.23 434.155   3
 -20   1   0 1392.23 518.868   2
 -19  -1   0 2688.39 596.977   2
   1  19   0 1466.88 432.804   2
  20 -19   0 3484.45 811.074   1
  20 -19   3 1849.66 773.515   1
   1  19   3 231.341 449.580   3
  -1  20   3-67.9838 508.939   3
 -20   1   3 929.654 470.886   4
 -19  -1   3 657.899 398.404   4
  19 -20   3 1081.50 673.097   1
 -20   1   3 444.630 407.491   2
 -19  -1   3 437.222 411.199   2
 -20   1   3 459.033 108.414   3
 -19  -1   3 959.258 263.722   3
   1  19   6 3338.26 798.780   3
  19 -20   6 3615.13 857.476   1
 -20   1   6 3762.13 629.359   4
 -19  -1   6 4065.54 653.600   4
 -20   1   6 3704.72 719.028   2
 -19  -1   6 3377.89 651.735   2
 -20   1   6 4116.29 523.739   3
  20 -19   6 2475.72 786.553   1
 -19  -1   6 952.349 800.734   3
  -1  20   6 4222.02 896.402   3
   1  19   9 951.741 719.714   3
  -1  20   9 412.170 672.915   3
 -20   1   9 1611.80 737.965   1
  19 -20   9 429.857 619.772   1
 -19  -1   9 402.078 514.756   2
  20 -19   9 1558.42 787.720   1
 -20   1   9 1088.14 622.168   2
  20 -19   9 87.8831 1997.13   3
 -19  -1   9 544.595 629.290   1
 -20   2  -7 12070.4 1306.61   2
 -18  -2  -7 12663.2 1329.93   2
 -20   2  -7 14912.8 1399.64   4
 -18  -2  -7 13011.2 1360.44   4
 -20   2  -4 1381.84 578.165   2
 -18  -2  -4 788.254 568.863   2
  18 -20  -4 1157.54 564.088   1
   2  18  -4 221.354 102.413   2
 -20   2  -4 1214.03 609.591   4
 -18  -2  -4 319.683 489.861   4
  20 -18  -4 378.606 337.090   3
   2  18  -1 29060.9 1572.83   3
  -2  20  -1 28811.4 1588.17   3
  18 -20  -1 32699.1 1829.01   1
 -20   2  -1 26934.0 1553.31   4
 -18  -2  -1 29089.9 1382.81   3
   2  18  -1 24161.2 1065.06   2
 -20   2  -1 29330.9 1588.91   2
  20 -18  -1 28260.9 1730.20   1
 -18  -2  -1 26959.3 1536.96   2
  -2  20  -1 23407.7 1003.63   2
 -18  -2  -1 26976.4 1571.35   4
  20 -18  -1 26530.9 1113.02   3
   2  18   2 9341.35 994.887   3
  -2  20   2 8008.95 932.723   3
  20 -18   2 7323.85 1022.59   1
 -20   2   2 6822.05 835.490   4
 -18  -2   2 7725.43 880.854   4
 -20   2   2 7503.78 837.694   2
 -18  -2   2 5560.62 725.101   2
  18 -20   2 5388.41 887.184   1
 -18  -2   2 6496.26 515.265   3
 -20   2   5 12251.1 1011.60   4
 -18  -2   5 12432.1 1001.63   4
 -20   2   5 11740.7 1063.06   2
 -18  -2   5 11855.3 1043.69   2
  18 -20   5 12627.5 1275.92   1
 -20   2   5 8280.12 342.992   3
  20 -18   5 11626.5 1254.21   1
 -20   2   5 8332.41 331.428   3
   2  18   5 10792.4 1173.75   3
 -18  -2   5 11401.0 693.712   3
  -2  20   5 11677.0 1183.38   3
   2  18   8 3163.40 836.395   3
  -2  20   8 3801.13 876.112   3
  18 -20   8 2516.27 816.348   1
 -20   2   8 3444.88 617.442   4
 -18  -2   8 3159.41 557.906   4
 -18  -2   8 3714.21 897.260   1
 -20   2   8 2858.04 706.686   2
 -18  -2   8 3065.58 670.206   2
  20 -18   8 393.481 1943.81   3
  20 -18   8 2953.65 882.024   1
 -18  -2   8-46.3349 1438.30   3
 -20   3  -8 326.521 573.506   2
 -20   3  -8 805.253 629.757   4
 -17  -3  -8 878.669 609.149   4
 -20   3  -5 960.297 586.732   2
 -17  -3  -5 856.416 546.324   2
  -3  20  -5 705.640 350.857   4
   3  17  -5 369.572 304.331   4
 -20   3  -5-76.8274 483.642   4
 -17  -3  -5 1393.81 653.871   4
  -3  20  -5 460.803 378.685   4
  20 -17  -5 576.401 730.768   3
 -17  -3  -2 2058.94 592.347   2
   3  17  -2 1876.97 553.798   3
  -3  20  -2 2413.96 605.411   3
 -20   3  -2 1617.03 582.441   4
 -17  -3  -2 2392.63 609.813   4
  20 -17  -2 2634.23 737.051   1
   3  17  -2 1519.30 318.647   2
  -3  20  -2 1606.56 259.762   2
  17 -20  -2 1943.71 631.325   1
 -20   3  -2 1024.15 487.091   2
  20 -17  -2 1279.52 322.198   3
   3  17   1 3735.32 675.395   3
  20 -17   1 3204.14 487.880   3
  -3  20   1 2797.69 629.310   3
 -20   3   1 3496.14 665.029   4
 -17  -3   1 3237.69 704.025   4
 -20   3   1 3502.94 638.894   2
 -17  -3   1 4075.01 648.847   2
  17 -20   1 2611.19 672.996   1
 -17  -3   1 3091.84 447.807   3
  20 -17   1 3627.95 758.286   1
  -3  20   4 4478.28 775.847   3
   3  17   4 3506.90 752.176   3
  17 -20   4 3323.93 489.110   2
 -20   3   4 3467.20 613.286   4
 -17  -3   4 3329.05 580.674   4
 -20   3   4 4268.66 710.609   2
 -17  -3   4 3454.26 617.377   2
  17 -20   4 3262.12 783.757   1
  -3  20   4 2603.95 467.397   1
 -17  -3   4 3376.13 441.908   3
  20 -17   4 5440.40 940.139   1
   3  17   7-162.234 574.342   3
  -3  20   7 239.462 533.470   3
  17 -20   7-771.313 620.355   1
 -17  -3   7 253.931 553.301   1
 -20   3   7 720.507 432.336   4
 -17  -3   7 275.835 382.381   4
 -20   3   7 395.902 530.969   2
 -17  -3   7-3.28815 396.658   2
  20 -17   7 467.619 602.509   1
  17 -20  10 567.538 722.099   1
 -20   3  10 62.0968 557.802   2
  20 -17  10-772.482 2656.82   3
 -17  -3  10 901.954 559.278   2
  20 -17  10-369.466 670.726   1
 -20   4  -9 914.433 673.598   4
 -16  -4  -6 12291.1 1277.74   2
  -4  20  -6 8351.80 602.154   4
 -20   4  -6 13631.5 1246.60   4
 -16  -4  -6 12415.9 1286.18   4
 -20   4  -6 11586.3 1183.36   2
 -20   4  -3 293.167 475.446   2
 -16  -4  -3 696.439 505.118   2
   4  16  -3 629.121 243.811   2
  16 -20  -3 804.008 492.907   1
 -20   4  -3 745.953 420.693   4
 -16  -4  -3 1353.40 574.551   4
  20 -16  -3 453.321 280.841   3
  -4  20   0 3093.38 464.102   2
  20 -16   0 3744.74 462.435   3
   4  16   0 3752.60 655.343   3
  -4  20   0 3826.73 671.857   3
 -20   4   0 4348.32 694.296   4
 -16  -4   0 5258.98 722.391   4
  20 -16   0 4024.61 786.119   1
   4  16   0 3333.04 513.893   2
 -16  -4   0 4272.99 631.779   2
 -16  -4   0 4635.22 577.004   3
  16 -20   0 5348.92 839.401   1
 -20   4   0 3885.45 643.688   2
 -16  -4   3 555.261 308.977   3
   4  16   3 588.893 488.363   3
  -4  20   3 774.211 454.629   3
 -20   4   3 709.975 419.541   4
  16 -20   3 1521.09 604.206   1
  20 -16   3 1237.67 637.148   1
 -16  -4   3 1211.36 513.610   4
  -4  20   3 182.557 369.047   1
 -20   4   3 1551.24 517.007   2
  16 -20   3 799.699 314.312   2
 -16  -4   3 616.278 362.849   2
  16 -20   6 3498.33 820.845   1
 -16  -4   6 5028.70 877.766   1
 -20   4   6 4640.15 694.144   4
 -20   4   6 4951.15 797.376   2
 -16  -4   6 3519.03 598.618   4
 -16  -4   6 4792.05 717.331   2
  20 -16   6 2949.06 1636.80   3
 -20   4   6 3846.78 277.842   3
  20 -16   6 6812.20 1019.58   1
   4  16   6 5283.96 914.077   3
  -4  20   6 5282.54 846.793   3
   4  16   9 1182.79 756.205   3
  -4  20   9-200.267 621.888   3
  16 -20   9 245.151 657.510   1
 -20   4   9 66.4747 599.175   1
 -16  -4   9 748.864 672.437   1
 -20   4   9-144.773 565.335   2
 -16  -4   9-366.215 451.674   2
 -16  -4   9 193.333 1699.16   3
  20 -16   9 474.814 695.950   1
 -20   5 -10 2439.02 795.317   4
 -20   5  -7 11721.6 1198.93   2
 -20   5  -7 14667.5 1334.27   4
 -15  -5  -7 11243.1 1300.94   4
  15 -20  -4 3246.93 646.337   1
 -20   5  -4 1939.97 573.428   2
 -15  -5  -4 2912.30 647.908   2
 -15  -5  -4 2689.36 551.829   1
   5  15  -4 1513.94 415.552   4
 -20   5  -4 2753.31 596.597   4
 -15  -5  -4 3734.42 740.870   4
  -5  20  -4 1854.01 425.664   4
  20 -15  -4 579.045 587.650   3
   5  15  -4 1683.55 288.841   2
   5  15  -1 21516.0 1285.54   3
  -5  20  -1 21448.3 1331.51   3
  20 -15  -1 23957.8 1538.29   1
 -20   5  -1 21669.6 1382.20   4
 -15  -5  -1 21376.0 1403.75   4
   5  15  -1 18520.9 948.974   2
 -20   5  -1 22029.0 1340.44   2
 -15  -5  -1 19803.6 1107.92   3
 -15  -5  -1 21052.6 1307.55   2
  15 -20  -1 20954.5 1446.46   1
  20 -15  -1 20720.5 797.406   3
  -5  20  -1 16729.1 832.250   2
   5  15   2 5026.74 738.781   3
  -5  20   2 5020.87 750.260   3
  20 -15   2 4880.71 573.528   3
  20 -15   2 5823.25 831.650   1
 -20   5   2 5315.89 705.064   4
  15 -20   2 3849.22 760.966   1
 -20   5   2 5038.32 721.871   2
 -15  -5   2 4849.65 673.839   4
 -15  -5   2 4426.60 625.241   2
 -15  -5   2 4548.38 534.021   3
 -15  -5   5 13258.0 897.379   3
  20 -15   5 15115.0 1352.48   1
 -15  -5   5 14599.5 1341.69   1
  15 -20   5 11567.0 643.651   2
  -5  20   5 11517.7 761.000   1
  15 -20   5 12927.3 1314.72   1
 -20   5   5 14397.0 1075.24   4
 -15  -5   5 14167.3 989.658   4
 -15  -5   5 12815.0 998.810   2
 -20   5   5 16089.2 1241.15   2
   5  15   5 13249.6 1207.99   3
  -5  20   5 14927.8 1235.90   3
   5  15   8 4121.38 902.642   3
  -5  20   8 3269.39 786.431   3
 -15  -5   8 3857.62 647.963   2
 -15  -5   8 5274.25 982.676   1
 -20   5   8 5028.52 699.162   4
 -20   5   8 4604.94 843.188   2
  15 -20   8 4055.94 921.134   1
  20 -15   8 4235.83 883.673   1
 -20   6  -8-186.390 522.315   2
 -20   6  -8 768.808 604.399   4
 -20   6  -5 1883.61 571.822   2
 -14  -6  -5 2298.14 476.527   1
 -14  -6  -5 1907.94 607.744   2
   6  14  -5 1551.29 307.542   2
   6  14  -5 1260.69 353.583   4
 -20   6  -5 2539.26 658.702   4
  14 -20  -5 2222.35 570.859   1
  -6  20  -5 886.316 339.920   4
 -14  -6  -5 2084.83 667.673   4
  14 -20  -2 5974.48 783.172   1
   6  14  -2 6014.08 725.694   3
  -6  20  -2 4831.03 334.811   2
 -20   6  -2 6455.42 798.779   4
   6  14  -2 5793.61 548.200   2
 -14  -6  -2 7276.84 937.225   4
 -20   6  -2 6881.58 794.786   2
  20 -14  -2 5898.45 359.694   3
  -6  20  -2 4072.25 349.912   2
 -14  -6  -2 7996.30 884.816   2
   6  14   1 3247.64 607.593   3
  20 -14   1 3454.90 439.814   3
  -6  20   1 2714.44 583.683   3
  14 -20   1 3285.19 665.942   1
 -20   6   1 3335.15 574.487   4
 -20   6   1 3667.58 636.785   2
 -14  -6   1 2864.92 565.482   4
  20 -14   1 3383.84 714.426   1
 -14  -6   1 3360.85 499.912   3
 -14  -6   1 2478.44 509.786   2
   6  14   4 1068.86 552.646   3
 -14  -6   4 1114.33 388.261   3
  -6  20   4 2053.99 576.333   3
 -14  -6   4 1919.73 571.034   1
 -20   6   4 2226.50 533.929   4
 -20   6   4 1361.74 433.693   2
 -14  -6   4 1763.73 463.939   4
  20 -14   4 1639.81 560.924   1
  -6  20   4 1324.50 436.010   1
 -14  -6   4 1988.89 470.156   2
  14 -20   4 2362.44 652.082   1
   6  14   7 3369.12 781.615   3
  20 -14   7 4762.51 857.377   1
  -6  20   7 3126.06 733.198   3
 -14  -6   7 3100.42 608.456   2
 -14  -6   7 4419.90 927.108   1
 -20   6   7 4735.71 680.944   4
 -20   6   7 3472.71 760.619   2
 -14  -6   7 3548.73 482.062   4
 -20   6   7 3024.63 358.660   3
  14 -20   7 2852.95 813.578   1
  -6  20  10 51.9313 648.976   3
 -20   6  10-220.666 591.614   1
  20 -14  10-438.265 599.756   1
 -20   6  10 1108.75 653.002   2
 -14  -6  10 958.040 508.047   2
 -14  -6  10-111.023 731.288   1
 -14  -6  10-1652.81 2107.70   3
  20 -14  10 2569.19 2165.30   3
  14 -20  10 636.859 716.412   1
   6  14  10-356.420 787.947   3
 -20   7  -9 232.441 555.504   4
 -13  -7  -6 3852.53 816.318   2
 -13  -7  -6 4046.32 424.030   1
  -7  20  -6 2469.58 378.026   4
   7  13  -6 2477.89 370.316   4
 -13  -7  -6 3575.27 438.658   1
 -20   7  -6 4616.84 794.935   4
 -13  -7  -6 5036.98 872.544   4
 -20   7  -6 4174.24 756.523   2
  13 -20  -3 1651.62 550.861   1
 -13  -7  -3 2526.67 603.971   2
  -7  20  -3 1538.40 451.157   4
   7  13  -3 1580.68 324.660   2
 -13  -7  -3 1608.96 588.905   4
 -20   7  -3 2245.89 582.426   4
 -20   7  -3 2447.02 656.485   2
 -20   7   0 16825.5 1165.74   2
   7  13   0 16599.9 1119.36   3
  20 -13   0 16713.5 704.135   3
  -7  20   0 16763.6 1159.80   3
  20 -13   0 17392.5 1317.42   1
 -20   7   0 17474.1 1182.73   4
  13 -20   0 13990.2 1144.33   1
 -13  -7   0 16455.2 1173.32   4
 -13  -7   0 14201.5 1046.85   2
 -13  -7   0 14864.6 971.736   3
  20 -13   3-301.996 522.034   1
   7  13   3 77.3045 386.046   3
 -13  -7   3 570.875 359.218   3
  -7  20   3 426.558 465.441   3
 -13  -7   3 419.807 477.699   1
 -20   7   3 495.211 392.083   2
 -20   7   3 62.7067 331.099   4
 -13  -7   3 7.91865 307.794   4
 -13  -7   3 312.683 322.761   2
  -7  20   3 517.451 386.388   1
  13 -20   3 84.2283 468.572   1
  -7  20   6 3109.26 694.394   3
 -20   7   6 2145.35 193.851   3
 -20   7   6 2383.04 553.150   4
 -13  -7   6 2807.92 714.316   1
 -13  -7   6 3199.23 543.920   2
 -13  -7   6 2731.56 495.666   4
  20 -13   6 2669.26 677.837   1
  13 -20   6 3354.36 834.274   1
 -20   7   6 4018.60 743.134   2
   7  13   6 4413.99 839.868   3
 -20   7   6 2177.79 181.690   3
  -7  20   9 504.981 616.029   3
 -20   7   9 8.73816 402.399   4
  20 -13   9 76.9868 580.194   1
 -13  -7   9 911.042 678.045   1
 -13  -7   9 45.9119 379.875   2
  20 -13   9-547.057 1874.07   3
 -20   7   9 197.970 556.973   2
  13 -20   9 567.977 667.350   1
   7  13   9 238.116 689.657   3
 -20   8 -10 2142.09 696.472   4
 -20   8  -7 9295.58 1066.22   2
 -20   8  -7 10761.2 1095.95   4
 -20   8  -4 3533.62 619.443   2
  12 -20  -4 1262.30 458.704   1
 -12  -8  -4 1939.60 438.471   1
 -12  -8  -4 1451.99 541.467   2
 -12  -8  -4 2029.71 428.603   1
  -8  20  -4 1897.57 414.851   4
   8  12  -4 2270.43 395.876   2
 -20   8  -4 2855.85 638.495   4
   8  12  -4 1677.13 406.493   4
 -12  -8  -4 3163.27 744.890   4
   8  12  -1 19428.7 1151.58   3
  -8  20  -1 19162.9 1247.20   3
  -8  20  -1 18579.2 807.202   2
 -20   8  -1 20381.3 1298.36   4
   8  12  -1 19201.6 1012.32   2
 -12  -8  -1 20783.6 1354.11   4
  12 -20  -1 20407.1 1308.13   1
 -20   8  -1 23366.1 1315.48   2
 -12  -8  -1 20393.8 1245.61   2
  20 -12  -1 19799.3 528.862   3
   8  12   2 6401.88 786.702   3
  -8  20   2 6209.52 755.183   3
 -12  -8   2 6274.98 816.530   1
  12 -20   2 6903.22 917.761   1
 -20   8   2 5034.40 667.509   4
 -20   8   2 6227.44 756.744   2
 -12  -8   2 5684.27 699.215   4
 -12  -8   2 4822.91 594.486   2
  20 -12   2 6038.92 862.529   1
 -12  -8   2 4535.04 578.061   3
 -12  -8   5 8546.72 1022.22   1
  12 -20   5 9157.95 1126.49   1
  20 -12   5 7767.92 968.854   1
 -20   8   5 7527.57 813.999   4
 -12  -8   5 8528.33 748.719   4
  -8  20   5 5276.94 625.682   1
 -12  -8   5 7874.56 714.631   2
 -20   8   5 8709.55 956.523   2
   8  12   5 7450.88 944.759   3
  -8  20   5 8796.54 950.645   3
  -8  20   8 384.639 523.570   3
 -20   8   8 692.698 587.014   2
 -12  -8   8-721.628 676.717   1
 -12  -8   8 665.252 365.904   2
  12 -20   8 715.795 625.789   1
  20 -12   8-149.108 518.977   1
   8  12   8 574.167 626.163   3
 -20   8   8 377.188 453.840   4
 -20   9  -8 1136.85 577.852   2
 -20   9  -8 1978.21 621.562   4
  11 -20  -5 8599.84 795.912   1
 -11  -9  -5 6253.06 960.523   2
   9  11  -5 7279.34 651.884   2
 -11  -9  -5 8731.00 629.787   1
  -9  20  -5 8500.88 688.612   4
 -11  -9  -5 9928.48 623.452   1
   9  11  -5 7110.62 617.524   4
 -20   9  -5 10172.6 993.810   4
 -11  -9  -5 7293.90 1038.39   4
 -20   9  -5 8518.01 970.670   2
 -11  -9  -2 1556.43 496.371   2
   9  11  -2 1441.94 448.066   3
  -9  20  -2 1715.62 430.769   4
  -9  20  -2 1241.69 232.101   2
 -11  -9  -2 1531.42 419.811   1
  11 -20  -2 2426.28 517.983   1
   9  11  -2 1035.09 353.362   2
 -11  -9  -2 1359.09 524.786   4
 -20   9  -2 2052.77 520.368   4
 -20   9  -2 1587.17 483.206   2
   9  11   1 10116.1 867.139   3
  -9  20   1 10411.8 917.774   3
  11 -20   1 10792.5 1031.69   1
 -11  -9   1 8987.11 896.628   1
 -20   9   1 8899.33 879.030   4
  20 -11   1 10453.4 1030.17   1
 -20   9   1 11109.8 957.297   2
 -11  -9   1 10825.8 956.945   4
 -11  -9   1 10784.3 858.003   2
   9  11   4 1755.40 574.181   3
  -9  20   4 1837.25 491.938   1
  -9  20   4 2262.51 592.427   3
  20 -11   4 2292.84 643.219   1
 -20   9   4 2085.52 504.495   4
 -11  -9   4 2057.57 639.694   1
 -20   9   4 3021.00 626.296   2
  11 -20   4 3209.35 778.826   1
 -11  -9   4 2372.07 454.425   4
  20 -11   4-264.891 1220.36   3
 -11  -9   4 1975.15 431.604   2
  -9  20   7 1791.27 611.551   3
 -20   9   7 1814.59 510.964   4
 -20   9   7 2553.73 742.017   2
 -11  -9   7 1617.25 638.163   1
  11 -20   7 1216.88 651.955   1
 -11  -9   7 1679.21 423.806   2
 -20   9   7 1826.51 310.011   3
  20 -11   7 1923.25 654.021   1
   9  11   7 1958.51 749.451   3
  20 -11  10 363.464 639.232   1
  -9  20  10-330.882 614.366   3
 -20   9  10 262.807 599.914   2
  11 -20  10 425.269 695.731   1
 -11  -9  10 820.253 1790.29   3
 -11  -9  10-423.492 685.978   1
  20 -11  10 296.720 887.675   3
   9  11  10 1802.48 884.607   3
 -20  10  -9-308.026 536.909   4
 -20  10  -6 3249.84 639.866   2
 -10 -10  -6 2466.63 236.605   1
 -10  20  -6 2541.60 409.673   4
  10  10  -6 1988.96 377.395   4
 -10 -10  -6 1626.77 220.998   1
 -20  10  -6 4040.69 703.070   4
 -10 -10  -3 1167.55 512.692   2
 -10  20  -3 650.873 342.839   4
 -10 -10  -3 878.589 347.132   1
 -20  10  -3 404.201 395.579   4
  10  10  -3 926.198 354.429   2
 -10 -10  -3 804.852 498.871   4
 -10  20  -3 534.611 136.078   2
  10 -20  -3 1600.43 464.143   1
 -20  10  -3 1034.59 429.307   2
 -10 -10   0 743.376 387.967   2
  10  10   0 512.423 386.205   3
  20 -10   0 845.492 175.700   3
 -10  20   0 814.713 436.684   3
 -10  20   0 329.390 287.922   2
 -10 -10   0 640.375 390.063   1
 -20  10   0 577.967 373.299   4
 -10 -10   0 990.696 466.746   4
 -20  10   0 514.796 356.712   2
  20 -10   0 737.453 190.819   3
  10 -20   0 820.593 560.395   1
  10  10   3 963.007 474.765   3
  20 -10   3 870.729 514.908   1
 -10  20   3 1433.38 529.658   3
 -20  10   3 1334.76 453.748   4
 -10 -10   3 965.559 465.585   1
 -20  10   3 564.570 442.019   2
  10 -20   3 808.582 476.655   1
 -10 -10   3 1394.02 398.797   4
  20 -10   3-269.520 1044.58   3
 -10 -10   3 1066.23 372.447   2
 -10  20   6 3017.64 680.337   3
 -10  20   6 2611.02 506.983   1
  20 -10   6 3325.81 678.323   1
 -20  10   6 3675.84 672.550   4
 -20  10   6 2236.00 603.389   2
  10 -20   6 1959.09 672.061   1
 -10 -10   6 4285.42 838.101   1
 -10 -10   6 4046.59 515.459   2
 -20  10   6 3486.45 295.424   3
  10  10   6 3136.78 731.149   3
 -10  20   9 486.818 597.425   3
  20 -10   9 1441.47 632.930   1
 -20  10   9 789.143 465.157   4
 -20  10   9 2133.27 749.328   2
  10 -20   9-620.447 687.491   1
 -10 -10   9 738.064 690.161   1
  20 -10   9 1816.99 975.598   3
  10  10   9 516.499 796.931   3
 -20  11 -10 870.820 584.408   4
 -20  11  -7 890.694 460.137   2
 -11  20  -7 1620.12 341.956   4
 -20  11  -7 1509.47 503.961   4
 -11  20  -4 2332.14 485.244   4
  -9 -11  -4 3132.66 687.840   2
   9 -20  -4 1264.08 396.932   1
  11   9  -4 1615.04 422.206   4
 -20  11  -4 2139.71 570.371   4
  -9 -11  -4 2299.45 379.608   1
 -20  11  -4 2226.35 538.252   2
  -9 -11  -1 9641.29 865.020   2
  11   9  -1 9376.71 762.713   3
 -11  20  -1 8397.01 842.769   4
  -9 -11  -1 10360.0 866.108   1
   9 -20  -1 9999.61 946.034   1
 -20  11  -1 10774.8 940.818   4
 -20  11  -1 10560.5 894.526   2
  -9 -11  -1 10213.4 989.242   4
 -11  20  -1 8131.06 596.138   2
  -9 -11   2 851.758 316.601   2
  11   9   2 1632.85 477.541   3
  20  -9   2 2496.82 634.003   1
 -11  20   2 2409.61 538.045   3
 -11  20   2 1863.03 434.124   2
  -9 -11   2 658.105 401.900   1
 -20  11   2 1616.95 486.772   2
  -9 -11   2 1304.98 436.912   4
  20  -9   2 1226.53 424.305   3
   9 -20   2 1139.61 537.349   1
 -20  11   2 589.571 368.460   4
 -11  20   5 8634.57 906.170   3
   9 -20   5 8772.21 1062.77   1
  -9 -11   5 7310.24 960.801   1
 -20  11   5 9008.87 894.727   4
 -20  11   5 8785.02 978.188   2
  20  -9   5 10526.1 1357.43   3
  -9 -11   5 8110.98 664.940   2
 -11  20   5 6922.39 759.566   1
  11   9   5 11187.2 1106.73   3
  20  -9   5 10315.0 1053.25   1
 -11  20   8 1289.35 605.744   3
 -20  11   8 1523.92 546.985   4
 -20  11   8 749.791 522.567   2
  20  -9   8 524.306 523.377   1
   9 -20   8 826.667 665.469   1
  -9 -11   8 2094.94 733.743   1
  -9 -11   8 1137.05 372.196   2
  20  -9   8 1874.24 853.714   3
  11   9   8 278.646 599.627   3
 -20  11   8 1509.54 389.020   3
 -20  12  -8 336.414 474.477   2
 -12  20  -8 372.045 258.041   4
 -20  12  -8 302.910 529.853   4
  -8 -12  -5 6137.04 469.006   1
  12   8  -5 7640.11 668.534   4
 -20  12  -5 6638.90 814.727   4
   8 -20  -5 7728.85 693.506   1
  -8 -12  -5 7910.56 505.461   1
 -12  20  -5 7331.69 712.185   4
 -20  12  -5 9107.50 908.892   2
  -8 -12  -2 4537.52 674.151   2
  12   8  -2 4733.07 570.045   3
 -12  20  -2 5888.55 701.181   4
  -8 -12  -2 5803.48 624.737   1
 -20  12  -2 3935.66 663.275   4
   8 -20  -2 5988.34 734.076   1
 -12  20  -2 5148.79 438.275   2
 -20  12  -2 5303.96 653.632   2
  12   8   1 21182.4 1165.32   3
   8 -20   1 19160.3 1305.77   1
 -12  20   1 18694.1 1136.99   3
 -12  20   1 19805.0 1285.49   4
 -12  20   1 20424.5 1125.86   2
  -8 -12   1 23412.4 1356.46   1
 -20  12   1 19369.4 1228.73   4
 -20  12   1 22468.7 1301.97   2
  -8 -12   1 17856.9 1195.23   4
  20  -8   1 20335.5 829.830   3
  -8 -12   1 21946.3 1106.03   2
  12   8   4 1779.93 530.505   3
 -12  20   4 2276.07 518.908   3
 -12  20   4 4087.45 674.686   2
 -20  12   4 1258.90 467.100   4
   8 -20   4 2593.91 702.350   1
  20  -8   4 3384.49 685.618   1
 -20  12   4 2389.49 624.388   2
  -8 -12   4 2125.73 703.342   1
  -8 -12   4 2713.06 425.262   2
  20  -8   4 1679.98 519.429   3
  20  -8   7 8777.37 990.964   1
 -12  20   7 7514.47 980.529   4
 -20  12   7 7845.66 917.724   4
 -20  12   7 7653.47 1045.84   2
  -8 -12   7 7867.94 619.014   2
  20  -8   7 8236.67 1104.12   3
  -8 -12   7 8156.32 1086.93   1
  12   8   7 9819.85 1164.41   3
 -20  12   7 8764.18 610.389   3
 -12  20   7 7864.48 984.655   3
   8 -20   7 7261.48 1066.36   1
 -12  20  10 1514.20 715.781   3
 -12  20  10 2191.30 838.494   2
 -12  20  10 743.273 631.804   4
 -20  12  10 781.992 493.926   4
 -20  12  10 1730.70 741.903   2
   8 -20  10 1066.21 763.922   1
  20  -8  10 1352.13 914.525   3
  -8 -12  10 611.372 705.399   1
  12   8  10 2785.90 997.844   3
 -20  13  -9 1320.64 608.685   4
 -20  13  -6 2402.26 605.664   2
  13   7  -6 1571.90 395.412   4
 -13  20  -6 2032.19 425.872   4
   7 -20  -3 629.050 408.760   1
 -13  20  -3 1024.84 406.922   4
 -20  13  -3 433.208 415.591   4
  -7 -13  -3 588.037 311.970   1
 -13  20  -3 410.939 199.581   2
 -20  13  -3 24.0226 368.775   2
  -7 -13   0 15825.8 982.560   2
  13   7   0 18001.7 1021.82   3
   7 -20   0 17072.3 1196.58   1
 -13  20   0 17066.4 1098.13   3
 -13  20   0 15311.9 1111.34   4
 -13  20   0 15270.4 913.064   2
  -7 -13   0 16187.1 1086.36   1
 -20  13   0 14962.1 1101.00   4
 -20  13   0 17474.1 1154.35   2
  20  -7   0 16825.2 536.606   3
  13   7   3 1518.40 526.655   3
  -7 -13   3 1012.40 328.714   2
 -13  20   3 1464.82 424.055   3
 -13  20   3 1305.72 472.410   4
 -13  20   3 1267.75 439.756   2
   7 -20   3 761.237 509.316   1
 -20  13   3 1670.85 482.746   4
 -20  13   3 1175.36 469.816   2
  -7 -13   3 1649.49 562.580   1
  20  -7   3 1559.66 451.474   3
 -20  13   6 3673.52 671.725   4
 -20  13   6 4188.23 416.168   3
 -13  20   6 4533.94 826.230   2
 -13  20   6 3667.81 780.324   4
   7 -20   6 3644.48 818.587   1
 -20  13   6 5633.68 875.871   2
  -7 -13   6 4926.18 876.236   1
  20  -7   6 5466.99 748.559   1
  -7 -13   6 3932.63 434.724   2
  20  -7   6 4522.62 776.030   3
  13   7   6 4462.67 809.775   3
 -13  20   6 4701.35 704.578   3
 -13  20   9 292.853 560.737   3
 -13  20   9 471.915 546.595   4
   7 -20   9-127.811 703.612   1
 -20  13   9 446.333 498.118   4
 -20  13   9-650.805 636.513   2
 -13  20   9 1041.03 685.066   2
  -7 -13   9 763.516 774.934   1
  20  -7   9 73.7591 703.737   3
  20  -7   9 818.511 560.315   1
  13   7   9-67.7284 612.051   3
 -20  14  -7 2523.82 644.593   2
 -20  14  -7 1613.24 578.479   4
 -14  20  -7 2754.64 467.816   4
 -14  20  -4 1666.14 435.065   4
 -20  14  -4 1755.19 492.517   4
   6 -20  -4 1824.34 440.920   1
  -6 -14  -4 2917.42 411.093   1
 -14  20  -4 2189.80 308.369   2
 -20  14  -4 1212.61 429.453   2
  14   6  -1 2109.41 407.830   3
 -14  20  -1 2052.11 391.523   2
 -14  20  -1 1279.70 446.638   4
  -6 -14  -1 1690.84 446.672   2
 -20  14  -1 1834.88 509.131   4
  -6 -14  -1 2752.58 536.275   1
   6 -20  -1 2204.95 502.224   1
 -20  14  -1 1894.36 505.633   2
 -14  20   2 7047.39 714.089   3
 -14  20   2 6167.98 796.102   4
 -14  20   2 7212.82 778.473   2
 -20  14   2 5892.32 802.214   4
  -6 -14   2 6544.48 805.951   1
 -20  14   2 6448.65 796.740   2
  20  -6   2 6521.82 603.552   3
   6 -20   2 6868.44 912.484   1
  14   6   2 6767.88 704.020   3
  -6 -14   2 7326.24 618.617   2
 -20  14   5 2439.87 322.238   3
 -14  20   5 1954.72 522.126   3
   6 -20   5 1276.38 633.361   1
 -14  20   5 2321.61 650.871   2
 -20  14   5 2190.27 570.325   4
 -20  14   5 906.569 501.039   2
 -14  20   5 2450.95 676.067   4
  -6 -14   5 1916.99 672.096   1
  20  -6   5 2603.02 631.070   3
  -6 -14   5 2036.95 320.242   2
  14   6   5 1996.60 602.198   3
 -20  14   8 656.017 384.577   3
 -14  20   8 195.166 470.052   3
   6 -20   8-923.896 746.582   1
 -14  20   8 418.443 585.570   2
 -20  14   8 1345.18 587.726   4
 -14  20   8 790.214 566.059   4
 -20  14   8 523.128 546.162   2
  -6 -14   8-300.812 586.936   1
  20  -6   8 1002.63 680.607   3
  14   6   8 206.225 611.622   3
 -20  15  -8 3780.82 723.025   2
 -15  20  -8 3174.45 523.083   4
 -20  15  -8 2710.01 636.722   4
   5 -20  -5 11408.9 762.329   1
 -15  20  -5 13411.7 958.260   4
 -20  15  -5 12012.4 1054.81   4
 -20  15  -5 12631.2 1004.85   2
 -15  20  -5 13626.5 699.345   2
  -5 -15  -5 11363.8 575.036   1
  15   5  -2 4612.34 511.896   3
   5 -20  -2 5275.69 696.895   1
 -15  20  -2 5180.37 677.527   4
 -20  15  -2 5409.45 739.184   4
 -15  20  -2 5475.21 540.970   2
  -5 -15  -2 4743.21 605.424   1
 -20  15  -2 5487.27 677.702   2
 -20  15   1 22883.7 1397.03   4
  -5 -15   1 19342.3 1014.94   2
 -15  20   1 20835.5 1148.04   3
 -15  20   1 19409.5 1272.27   4
 -15  20   1 22611.3 1193.94   2
 -20  15   1 17470.2 1170.89   2
  -5 -15   1 21330.0 1316.82   1
  20  -5   1 23162.8 892.793   3
   5 -20   1 22078.1 1391.36   1
  15   5   1 21721.4 1112.51   3
 -20  15   4 2574.36 317.747   3
 -15  20   4 2767.83 535.064   3
   5 -20   4 2859.76 733.963   1
 -15  20   4 1510.87 512.334   4
 -15  20   4 2108.40 627.747   2
 -20  15   4 2727.64 633.380   2
 -20  15   4 2116.93 533.759   4
  -5 -15   4 2153.77 632.740   1
  20  -5   4 3419.51 610.676   3
  -5 -15   4 2330.05 346.999   2
  15   5   4 3073.78 612.985   3
 -15  20   7 11671.7 1239.55   2
 -15  20   7 10926.1 1152.83   4
 -20  15   7 10758.3 1085.64   4
 -20  15   7 12779.4 1291.32   2
  -5 -15   7 13574.8 1439.23   1
  20  -5   7 11920.5 1280.20   3
   5 -20   7 10158.5 1243.40   1
  15   5   7 13634.6 1324.00   3
 -20  15   7 11424.4 777.528   3
 -15  20   7 12954.3 1120.42   3
 -15  20  10 1646.84 771.033   3
 -15  20  10 1683.52 671.202   4
 -15  20  10 601.572 787.009   2
 -20  15  10 1746.95 663.911   4
   5 -20  10 1065.90 781.587   1
 -20  15  10 2380.57 853.647   2
  20  -5  10 2611.58 975.799   3
  15   5  10 2614.04 983.089   3
  -5 -15  10 803.091 781.661   1
 -20  16  -9 1003.35 536.224   4
 -16  20  -6 4648.43 467.577   2
 -16  20  -6 4565.16 645.038   4
 -20  16  -6 4770.29 682.844   4
 -20  16  -6 4625.58 673.796   2
  -4 -16  -3 935.607 320.195   1
 -16  20  -3 727.855 410.275   4
 -20  16  -3 664.709 459.159   4
 -16  20  -3 700.847 280.573   2
 -20  16  -3 929.657 382.669   2
   4 -20  -3 808.346 382.091   1
 -16  20   0 3857.07 553.948   2
  16   4   0 4852.69 527.821   3
 -16  20   0 3920.80 642.241   4
 -20  16   0 4524.95 704.807   4
 -20  16   0 3300.27 566.657   2
  -4 -16   0 4533.12 653.989   1
   4 -20   0 4028.96 672.955   1
  20  -4   0 4300.85 342.597   3
 -16  20   3 1340.90 449.802   3
   4 -20   3 412.112 526.906   1
  -4 -16   3 790.897 282.134   2
 -16  20   3 1036.31 490.766   4
 -16  20   3 906.890 496.523   2
 -20  16   3 1141.88 497.595   4
 -20  16   3 763.717 507.547   2
  -4 -16   3 1024.05 517.923   1
  20  -4   3 1159.98 407.310   3
  16   4   3 1055.52 410.835   3
 -16  20   6 11197.8 957.660   3
 -20  16   6 10469.9 711.800   3
 -16  20   6 10122.7 1103.33   4
 -16  20   6 7759.65 1028.79   2
 -20  16   6 9849.62 1061.96   4
 -20  16   6 10511.7 1148.15   2
  -4 -16   6 10932.5 1239.13   1
  20  -4   6 9861.53 1087.07   3
   4 -20   6 10909.1 1276.28   1
  16   4   6 11413.0 1146.91   3
 -16  20   9 553.967 535.668   3
   4 -20   9-830.342 688.282   1
 -16  20   9 80.8321 553.836   4
 -16  20   9 2181.85 800.035   2
 -20  16   9-172.672 507.069   4
 -20  16   9 199.539 585.854   2
  20  -4   9 818.303 802.597   3
  16   4   9-655.160 771.422   3
  -4 -16   9 1109.09 674.718   1
 -20  17  -7-280.400 377.523   2
 -17  20  -7 456.808 365.230   4
 -20  17  -7-195.125 421.900   4
 -17  20  -4 3385.05 600.758   4
 -20  17  -4 4977.81 739.989   4
   3 -20  -4 3808.13 541.276   1
 -17  20  -4 3016.74 464.722   2
 -20  17  -4 4500.51 622.428   2
  -3 -17  -4 4307.52 512.657   1
  17   3  -1 2879.06 392.474   3
  20  -3  -1 2725.48 211.753   3
 -17  20  -1 3154.93 513.124   2
 -17  20  -1 2991.61 604.817   4
 -20  17  -1 3465.35 635.067   4
 -20  17  -1 2878.54 527.369   2
  -3 -17  -1 3279.06 573.428   1
   3 -20  -1 3740.76 647.361   1
 -17  20   2 2586.57 496.968   3
   3 -20   2 3326.02 674.011   1
 -17  20   2 3517.61 666.696   4
 -17  20   2 2113.96 503.219   2
 -20  17   2 2048.44 552.069   4
 -20  17   2 3201.89 642.924   2
  -3 -17   2 2222.76 594.730   1
  20  -3   2 2131.56 440.132   3
  17   3   2 3152.61 538.872   3
 -17  20   5 698.196 414.639   3
   3 -20   5 1203.79 599.377   1
 -20  17   5 679.442 322.724   3
 -17  20   5 1845.90 600.152   4
 -17  20   5 526.977 494.428   2
 -20  17   5 1013.20 511.688   4
 -20  17   5 401.313 527.896   2
  -3 -17   5 291.922 546.637   1
  20  -3   5 739.874 459.077   3
  17   3   5 508.296 479.703   3
 -20  17   8 1328.64 484.602   3
 -17  20   8 1101.59 522.760   3
   3 -20   8 1681.02 802.470   1
 -20  17   8 210.741 576.948   2
 -17  20   8 1107.44 529.587   4
 -17  20   8 1727.76 718.737   2
 -20  17   8 2062.35 627.602   4
  20  -3   8 274.364 645.679   3
  17   3   8 1570.18 751.477   3
  -3 -17   8 1099.61 746.301   1
 -20  18  -8 2415.26 597.200   2
 -18  20  -8 1024.71 455.232   4
 -20  18  -8 2958.47 629.649   4
 -20  18  -5 12050.6 1004.79   4
 -18  20  -5 10779.5 911.365   4
   2 -20  -5 10497.5 692.906   1
 -20  18  -5 13010.6 974.343   2
 -18  20  -5 11282.5 793.974   2
 -18  20  -2 5444.57 765.370   4
 -20  18  -2 5646.31 769.576   4
 -20  18  -2 6790.98 716.733   2
 -18  20  -2 6134.27 630.077   2
  -2 -18  -2 6340.78 706.814   1
   2 -20  -2 5736.86 694.853   1
 -18  20   1 26733.4 1523.47   4
 -20  18   1 28610.4 1610.03   4
 -18  20   1 26221.2 1377.49   2
 -20  18   1 28600.4 1475.42   2
  -2 -18   1 29016.4 1594.89   1
   2 -20   1 29333.6 1603.13   1
  20  -2   1 30061.5 1110.58   3
  18   2   1 31529.1 1258.06   3
   2 -20   4 1759.90 662.187   1
 -18  20   4 1317.00 422.289   3
 -20  18   4 1199.94 333.611   3
 -20  18   4 685.225 533.705   4
 -18  20   4 793.781 485.070   2
 -20  18   4 1607.15 538.945   2
 -18  20   4 1330.46 535.450   4
  20  -2   4 948.007 486.315   3
  -2 -18   4 2350.66 674.664   1
  18   2   4 734.402 440.543   3
 -18  20   7 13715.5 1057.38   3
 -20  18   7 14713.3 1002.75   3
 -18  20   7 11097.5 1174.59   4
 -18  20   7 12359.0 1346.57   2
 -20  18   7 12582.3 1223.29   4
 -20  18   7 15390.9 1432.56   2
  -2 -18   7 12726.6 1396.84   1
   2 -20   7 11664.5 1343.14   1
  20  -2   7 15569.2 1425.66   3
  18   2   7 14078.7 1368.28   3
 -20  19  -6 3535.70 669.603   4
 -19  20  -6 4101.24 670.251   4
 -20  19  -6 2938.66 548.742   2
 -19  20  -6 3677.57 570.092   2
 -19  20  -3-10.5680 398.023   4
  -1 -19  -3 342.571 333.944   1
 -20  19  -3 27.2743 367.734   4
   1 -20  -3 73.2739 349.877   1
 -19  20  -3 399.461 341.407   2
 -20  19  -3 311.302 341.283   2
  20  -1   0 1962.23 344.934   3
  -1 -19   0 2389.64 577.849   1
  19   1   0 1749.68 352.238   3
   1 -20   0 2205.69 575.960   1
 -19  20   0 1725.59 514.442   4
 -20  19   0 2208.14 580.719   4
 -19  20   0 2043.49 484.211   2
 -20  19   0 1950.04 500.486   2
   1 -20   3-343.456 508.370   1
 -19  20   3-182.954 307.719   3
 -20  19   3 441.609 298.538   3
 -19  20   3 556.677 504.735   4
 -20  19   3-85.5570 440.995   4
 -20  19   3 773.730 514.631   2
 -19  20   3 203.868 379.763   2
  20  -1   3-226.958 386.690   3
  -1 -19   3 176.138 495.350   1
  19   1   3 34.9169 380.050   3
  -1 -19   6 2072.11 697.163   1
 -19  20   6 3592.66 589.095   3
 -20  19   6 4316.89 605.678   3
   1 -20   6 2678.30 806.401   1
 -19  20   6 2959.66 766.900   4
 -20  19   6 2501.32 684.494   4
 -19  20   6 1649.15 653.352   2
 -20  19   6 3206.17 804.686   2
  20  -1   6 3273.35 756.914   3
  19   1   6 2721.80 677.927   3
 -20  19   9 267.228 484.315   3
 -19  20   9 737.933 568.459   3
  -1 -19   9 921.478 780.837   1
   1 -20   9-160.569 706.287   1
 -19  20   9 128.925 587.935   4
 -19  20   9-660.310 715.275   2
 -20  19   9 271.612 653.631   2
  20  -1   9 839.623 715.706   3
  19   1   9 659.882 737.816   3
 -20  19   9 1887.88 694.718   4
 -20  20  -7 112.681 360.425   2
 -20  20  -7-114.039 387.519   4
 -20  20  -4 1570.39 490.850   4
   0 -20  -4 1985.63 465.682   1
 -20  20  -4 2299.47 498.388   2
   0 -20  -1 373.171 426.298   1
  20   0  -1 71.0479 195.944   3
 -20  20  -1 110.619 397.303   4
 -20  20  -1-46.7443 305.022   2
 -20  20   2 9027.19 966.320   4
 -20  20   2 8216.71 909.770   2
   0 -20   2 8960.49 992.522   1
  20   0   2 7542.38 707.552   3
   0 -20   5 752.113 570.812   1
 -20  20   5-152.950 312.423   3
 -20  20   5 138.127 430.413   4
 -20  20   5 57.8728 456.353   2
  20   0   5 122.621 492.031   3
 -20  20   8 7091.69 810.397   3
   0 -20   8 5396.13 1068.15   1
 -20  20   8 6362.74 980.418   4
 -20  20   8 4694.57 976.799   2
  20   0   8 6912.84 1111.25   3
 -21   0  -9 1164.13 799.935   4
 -21   0  -6 679.117 582.951   2
   0  21  -6 878.920 375.952   4
 -21   0  -6 931.328 596.897   4
 -21   0  -3 3.29467 449.667   2
   0  21  -3-17.5155 138.036   2
 -21   0  -3 476.551 521.226   4
  21 -21  -3-6.64545 537.291   1
   0  21   0 8732.73 981.665   3
  21 -21   0 9496.38 1130.36   1
 -21   0   0 7006.30 887.754   2
 -21   0   0 7248.74 909.384   4
  21 -21   3 589.023 743.096   1
   0  21   3 123.538 501.576   3
 -21   0   3 47.3159 450.639   4
 -21   0   3 119.458 427.464   2
 -21   0   3 41.2464 148.918   3
 -21   0   6 5701.62 774.352   4
 -21   0   6 4281.40 781.380   2
  21 -21   6 4113.05 964.633   1
   0  21   6 4967.55 973.528   3
   0  21   9-853.297 816.335   3
 -21   0   9 207.691 716.008   1
 -21   0   9 423.630 601.884   2
  21 -21   9-550.010 746.684   1
  21 -21   9 657.852 2202.09   3
 -21   1  -7 5367.35 987.307   2
 -20  -1  -7 6521.14 1098.81   2
 -21   1  -7 6164.84 1028.79   4
 -20  -1  -7 6467.54 1111.07   4
 -21   1  -4 1562.99 623.334   2
 -20  -1  -4 2223.38 726.105   2
 -21   1  -4 1208.09 644.268   4
 -20  -1  -4 2798.71 719.832   4
  20 -21  -4 2110.07 605.058   1
   1  20  -1 5873.12 847.158   3
  -1  21  -1 4339.27 766.864   3
  20 -21  -1 6166.62 924.429   1
 -21   1  -1 6308.31 855.150   4
 -20  -1  -1 6737.01 905.609   4
  21 -20  -1 7188.64 985.449   1
 -21   1  -1 13314.1 1731.75   3
 -20  -1  -1 13516.3 1708.91   3
   1  20  -1 5636.82 588.700   2
  -1  21  -1 4083.36 494.353   2
 -21   1  -1 6485.12 860.821   2
 -20  -1  -1 6468.90 863.486   2
  21 -20  -1 4529.86 572.002   3
 -21   1   2 2535.92 591.505   4
   1  20   2 1030.22 520.510   3
  -1  21   2 2268.85 674.698   3
  21 -20   2 2119.68 683.529   1
 -20  -1   2 1639.26 495.959   4
 -21   1   2 2679.28 643.458   2
 -21   1   2 712.448 450.753   3
 -20  -1   2 1631.44 500.331   2
 -20  -1   2 1837.33 330.502   3
  20 -21   2 1362.86 709.912   1
  -1  21   5 7812.87 1036.77   3
 -21   1   5 8451.42 901.140   4
 -20  -1   5 7799.74 860.474   4
 -21   1   5 8714.73 986.015   2
 -20  -1   5 8274.38 953.725   2
 -21   1   5 6386.84 351.276   3
  20 -21   5 7900.07 1149.25   1
  21 -20   5 7014.54 1106.83   1
   1  20   5 8539.03 1081.46   3
   1  20   8 3889.34 942.287   3
  -1  21   8 5251.89 1000.31   3
 -21   1   8 4175.46 963.437   1
 -20  -1   8 3006.69 889.190   1
 -21   1   8 5332.32 766.122   4
  20 -21   8 4501.79 1005.34   1
 -21   1   8 3380.30 777.960   2
 -20  -1   8 4378.66 792.051   2
  21 -20   8 3693.73 992.276   1
 -21   2  -8 2261.33 849.374   2
 -19  -2  -8 509.996 672.749   2
 -21   2  -8 1657.96 664.810   4
 -19  -2  -8 1648.89 760.560   4
 -21   2  -5 1898.77 598.757   2
 -19  -2  -5 2296.70 763.259   2
 -21   2  -5 1608.89 610.242   4
 -19  -2  -5 3043.22 748.482   4
 -19  -2  -2 1670.08 549.430   2
  19 -21  -2 1589.22 584.393   1
   2  19  -2 483.097 467.298   3
  21 -19  -2 690.050 554.091   1
  -2  21  -2 1089.27 513.021   3
 -21   2  -2 1244.68 479.139   4
 -19  -2  -2 307.386 481.956   4
   2  19  -2 783.274 298.459   2
  -2  21  -2 718.322 241.465   2
 -21   2  -2 927.174 511.294   2
  21 -19  -2 633.919 336.131   3
  19 -21   1 3464.54 741.506   1
   2  19   1 3240.08 714.138   3
  -2  21   1 2926.77 660.058   3
 -21   2   1 4438.98 704.818   4
 -19  -2   1 3435.72 689.932   4
 -21   2   1 3200.90 662.233   2
 -19  -2   1 3442.28 483.175   3
 -19  -2   1 3692.13 675.650   2
  21 -19   1 3446.59 839.357   1
  21 -19   4 218.339 538.982   1
   2  19   4 1093.86 579.645   3
  -2  21   4 413.120 478.857   3
  -2  21   4 388.575 356.901   1
  19 -21   4 338.885 548.330   1
 -19  -2   4 332.680 483.736   4
 -21   2   4 336.193 422.582   4
 -21   2   4 1257.91 510.314   2
 -19  -2   4 605.960 486.197   2
 -19  -2   4 569.784 288.151   3
   2  19   7 1173.87 650.597   3
  -2  21   7 1548.40 713.177   3
  19 -21   7 895.991 668.340   1
 -19  -2   7 1594.06 745.420   1
 -21   2   7 926.138 460.449   4
 -19  -2   7 837.326 468.773   4
 -21   2   7 232.843 502.153   2
 -19  -2   7 892.127 472.828   2
 -19  -2   7-851.911 1137.72   3
  21 -19   7 1006.74 653.889   1
 -21   3  -9 145.811 622.962   4
 -18  -3  -9 643.718 729.329   4
 -18  -3  -6 9346.37 1123.31   2
  -3  21  -6 6013.90 549.736   4
 -21   3  -6 9078.13 1116.71   4
 -18  -3  -6 9696.75 1190.79   4
 -21   3  -6 10834.8 1223.40   2
 -21   3  -3 3323.01 685.677   2
 -18  -3  -3 2999.75 665.927   2
   3  18  -3 1774.36 305.073   2
 -21   3  -3 3896.74 758.046   4
  18 -21  -3 3204.87 690.369   1
 -18  -3  -3 3583.67 732.385   4
  21 -18  -3 2386.98 412.130   3
  -3  21   0 1379.71 414.393   2
  21 -18   0 1944.13 420.358   3
  18 -21   0 1378.84 595.070   1
   3  18   0 3417.67 654.584   3
  -3  21   0 1358.10 573.413   3
  21 -18   0 2223.37 687.299   1
 -21   3   0 2120.58 632.190   4
 -18  -3   0 3042.84 619.391   4
 -18  -3   0 2513.76 467.662   3
 -21   3   0 2295.38 582.858   2
 -18  -3   0 1773.81 546.640   2
   3  18   3 1410.75 561.359   3
  -3  21   3 1909.55 653.013   3
  18 -21   3 1061.45 388.765   2
  21 -18   3 1630.53 659.144   1
  18 -21   3 2077.47 703.151   1
 -18  -3   3 1405.82 492.827   4
 -21   3   3 1391.04 498.195   4
 -21   3   3 1014.31 444.826   2
 -18  -3   3 1794.61 521.035   2
 -18  -3   3 1260.40 346.777   3
   3  18   6 2010.52 672.736   3
  -3  21   6 2425.47 693.310   3
  18 -21   6 1924.39 741.598   1
 -21   3   6 3594.96 660.548   4
 -18  -3   6 3515.00 616.162   4
 -21   3   6 3707.28 716.913   2
 -18  -3   6 3012.86 671.901   2
 -18  -3   6 3853.81 865.777   1
  21 -18   6 2199.32 742.900   1
   3  18   9 2949.65 1006.31   3
  -3  21   9 3391.23 964.464   3
  18 -21   9-39.0433 779.699   1
 -21   3   9 3113.33 886.534   1
 -18  -3   9 937.562 768.418   1
 -21   3   9 1237.64 653.051   2
 -18  -3   9 1480.66 616.307   2
  21 -18   9-531.381 2496.33   3
  21 -18   9 1626.63 808.404   1
 -21   4  -7 5230.67 926.291   2
 -17  -4  -7 5115.24 1002.79   2
 -21   4  -7 6759.55 1017.79   4
 -17  -4  -7 5168.66 973.611   4
 -21   4  -4 3476.31 702.927   2
  17 -21  -4 5327.32 792.648   1
   4  17  -4 2476.41 304.796   2
 -21   4  -4 3302.95 743.093   4
 -17  -4  -4 4028.49 763.022   4
  21 -17  -4 4052.93 471.424   3
 -17  -4  -4 4406.43 813.069   2
  17 -21  -1 20765.9 1480.54   1
  21 -17  -1 19348.9 1456.69   1
   4  17  -1 20738.0 1324.26   3
  -4  21  -1 19418.7 1363.45   3
 -21   4  -1 18630.7 1314.80   4
 -17  -4  -1 20037.9 1405.36   4
   4  17  -1 13387.3 873.207   2
 -21   4  -1 18619.7 1296.01   2
 -17  -4  -1 20869.6 1360.96   2
  -4  21  -1 15867.4 823.931   2
  21 -17  -1 16472.9 812.059   3
   4  17   2 5053.39 789.352   3
  -4  21   2 3811.48 681.535   3
 -21   4   2 3509.82 666.490   4
  17 -21   2 2867.87 742.631   1
 -17  -4   2 4404.79 714.862   4
 -21   4   2 4856.00 770.832   2
 -17  -4   2 4788.82 691.917   2
  21 -17   2 4146.75 747.414   1
 -17  -4   2 3884.45 488.295   3
  -4  21   5 8724.79 1052.10   3
  21 -17   5 8697.97 1114.45   1
 -21   4   5 8279.92 865.917   4
 -21   4   5 7831.51 926.010   2
 -17  -4   5 7841.27 815.134   4
  17 -21   5 9244.59 1198.30   1
 -17  -4   5 6942.07 796.292   2
   4  17   5 7799.65 1026.35   3
   4  17   8 1599.69 764.907   3
  -4  21   8 1800.13 757.302   3
  21 -17   8 2100.56 726.339   1
  17 -21   8 2730.63 879.980   1
 -17  -4   8 1588.48 741.088   1
 -21   4   8 2133.24 574.446   4
 -21   4   8 2325.07 692.391   2
 -17  -4   8 1985.76 571.249   2
 -17  -4   8-323.659 1320.04   3
 -21   5  -8 2980.99 859.545   2
 -21   5  -8 2877.24 748.684   4
 -16  -5  -8 1587.29 736.373   4
  16 -21  -5 220.160 439.595   1
 -21   5  -5 359.764 484.109   2
 -16  -5  -5 652.168 557.393   2
  -5  21  -5 151.460 288.164   4
   5  16  -5 470.857 344.825   4
 -21   5  -5 626.826 515.298   4
 -16  -5  -5-7.02263 542.520   4
  21 -16  -5 641.490 923.752   3
  16 -21  -2 8690.43 980.836   1
   5  16  -2 7400.41 839.436   3
  -5  21  -2 5487.21 376.185   2
 -21   5  -2 8105.72 963.214   4
   5  16  -2 6091.69 567.627   2
  21 -16  -2 9801.83 1039.17   1
 -16  -5  -2 9387.69 1032.29   4
 -21   5  -2 8911.44 974.394   2
  -5  21  -2 6394.50 421.201   2
  21 -16  -2 7820.61 505.031   3
 -16  -5  -2 8846.20 935.108   2
   5  16   1 486.029 434.307   3
  -5  21   1 653.945 399.334   3
  21 -16   1 375.839 318.956   3
  21 -16   1-277.215 491.026   1
  16 -21   1 238.109 508.547   1
 -21   5   1 353.087 389.491   4
 -16  -5   1 951.376 534.853   4
 -21   5   1 891.069 474.856   2
 -16  -5   1 234.827 298.834   3
 -16  -5   1 829.217 427.467   2
 -16  -5   4 1486.35 408.897   3
   5  16   4 2923.64 726.168   3
  -5  21   4 2172.52 609.245   3
  16 -21   4 1748.46 658.270   1
  16 -21   4 1419.34 331.901   2
 -21   5   4 1616.24 504.801   4
  21 -16   4 2459.49 628.568   1
 -16  -5   4 2605.07 524.826   4
  -5  21   4 986.038 418.246   1
 -21   5   4 2012.19 557.394   2
 -16  -5   4 2619.74 561.128   2
   5  16   7 481.391 604.873   3
  16 -21   7-71.9505 606.873   1
  -5  21   7-426.247 551.767   3
  21 -16   7-285.694 568.937   1
 -16  -5   7-516.540 643.862   1
 -21   5   7-75.1487 383.299   4
 -21   5   7 620.987 622.269   2
 -16  -5   7 823.576 413.269   4
 -16  -5   7 23.1278 386.754   2
  21 -16   7 1034.07 1728.69   3
 -21   6  -9 1645.13 780.961   2
 -21   6  -9 849.520 620.445   4
 -15  -6  -6 7356.18 1030.82   2
 -21   6  -6 6893.86 948.044   4
 -15  -6  -6 7649.18 1074.00   4
  -6  21  -6 5285.39 532.094   4
 -21   6  -6 5110.85 887.548   2
  15 -21  -3 11820.4 1085.48   1
   6  15  -3 8313.30 615.743   2
 -21   6  -3 12313.7 1128.14   4
 -15  -6  -3 8729.68 997.923   4
  21 -15  -3 9663.20 471.467   3
 -21   6  -3 10156.5 1040.20   2
 -15  -6  -3 10852.5 1077.17   2
  21 -15   0 4901.45 467.749   3
  -6  21   0 3782.21 522.558   2
   6  15   0 4405.52 687.577   3
  21 -15   0 5150.51 778.999   1
  -6  21   0 4908.40 745.398   3
 -21   6   0 4769.03 725.163   4
 -15  -6   0 5556.85 747.150   2
 -15  -6   0 5450.30 815.038   4
 -21   6   0 5250.55 761.875   2
  15 -21   0 4802.85 796.317   1
 -15  -6   0 4333.05 597.001   3
  -6  21   3 5951.31 829.487   3
  15 -21   3 4095.24 811.492   1
  21 -15   3 5825.60 893.382   1
 -21   6   3 6222.23 793.086   4
 -21   6   3 5484.72 772.200   2
 -15  -6   3 4997.74 694.902   4
 -15  -6   3 6295.32 726.393   2
 -15  -6   3 5723.13 632.921   3
   6  15   3 6326.22 856.992   3
   6  15   6 2878.49 778.370   3
  -6  21   6 2793.84 705.284   3
 -15  -6   6 1476.20 678.480   1
  21 -15   6 2150.23 700.534   1
 -21   6   6 1865.54 542.996   4
 -21   6   6 1677.43 592.409   2
 -15  -6   6 2635.31 498.004   4
 -15  -6   6 2150.18 520.746   2
  15 -21   6 1111.12 717.425   1
  -6  21   9 3499.78 950.363   3
 -15  -6   9 5321.98 1052.48   1
  21 -15   9 2923.10 853.595   1
 -21   6   9 2759.40 619.360   4
 -15  -6   9 3618.20 675.665   2
 -21   6   9 2882.87 783.021   2
 -15  -6   9-84.9069 1492.37   3
  21 -15   9-2127.77 2508.05   3
  15 -21   9 2601.66 901.509   1
   6  15   9 2233.34 849.450   3
 -21   7 -10 788.894 660.299   4
 -21   7  -7 4168.62 885.268   2
  -7  21  -7 2104.94 326.578   4
 -21   7  -7 4054.92 824.481   4
 -14  -7  -7 4962.40 970.775   4
 -21   7  -4 2840.39 677.402   2
 -14  -7  -4 1444.86 621.114   2
  -7  21  -4 1168.20 392.090   4
  14 -21  -4 1692.70 536.491   1
   7  14  -4 850.835 295.177   2
 -14  -7  -4 1684.86 465.754   1
 -21   7  -4 498.353 431.582   4
 -14  -7  -4 2059.29 666.794   4
  21 -14  -1 10767.2 1089.44   1
  -7  21  -1 9346.58 632.550   2
   7  14  -1 10853.2 935.866   3
  -7  21  -1 10065.5 984.147   3
  -7  21  -1 7975.07 555.269   2
 -21   7  -1 9488.50 942.130   4
 -14  -7  -1 9608.20 978.937   4
   7  14  -1 8674.77 738.336   2
 -21   7  -1 11799.8 1011.30   2
  14 -21  -1 10399.5 1028.25   1
 -14  -7  -1 10171.9 946.000   2
  21 -14  -1 10008.3 481.936   3
   7  14   2 6001.76 795.305   3
  -7  21   2 4925.86 710.787   3
  14 -21   2 5188.05 850.878   1
 -21   7   2 3787.93 664.246   4
 -21   7   2 5514.40 736.806   2
 -14  -7   2 5090.68 720.092   4
  21 -14   2 6050.01 882.628   1
 -14  -7   2 5128.14 675.811   2
 -14  -7   2 5610.20 611.113   3
  -7  21   5 9179.11 1008.53   3
 -14  -7   5 9009.43 1073.70   1
 -21   7   5 7037.76 816.699   4
 -21   7   5 7066.93 915.520   2
  -7  21   5 5853.46 646.238   1
 -14  -7   5 8846.78 811.242   4
 -14  -7   5 8844.67 817.728   2
  21 -14   5 9023.20 1072.93   1
  14 -21   5 6869.68 1039.11   1
   7  14   5 7773.07 996.952   3
  -7  21   8 3863.92 828.316   3
 -14  -7   8 5527.86 1016.36   1
 -21   7   8 5496.19 941.740   2
 -21   7   8 4453.57 704.663   4
 -14  -7   8 4951.58 707.821   2
  21 -14   8 4047.12 847.820   1
  14 -21   8 3847.40 962.158   1
   7  14   8 5612.92 1011.09   3
 -21   8  -8 1713.87 696.357   2
 -21   8  -8 3008.64 775.326   4
 -21   8  -5 1697.66 562.746   2
 -13  -8  -5 3250.30 500.065   1
 -13  -8  -5 2350.51 709.436   2
 -13  -8  -5 3004.05 455.878   1
   8  13  -5 2873.42 442.983   2
  -8  21  -5 2692.34 451.700   4
  13 -21  -5 2751.52 551.879   1
   8  13  -5 2531.81 454.974   4
 -21   8  -5 2582.38 637.723   4
 -13  -8  -5 3189.78 746.366   4
  -8  21  -2 15490.0 657.910   2
   8  13  -2 16324.7 1107.56   3
  -8  21  -2 14003.0 580.888   2
 -21   8  -2 17942.0 1262.93   4
   8  13  -2 15274.6 881.626   2
 -13  -8  -2 19130.8 1377.10   4
 -21   8  -2 19033.5 1263.92   2
  13 -21  -2 19694.0 1328.47   1
 -13  -8  -2 18783.1 1293.72   2
   8  13   1 3714.33 631.268   3
  -8  21   1 3804.18 637.070   3
  21 -13   1 4291.40 472.032   3
  21 -13   1 5485.32 827.332   1
 -13  -8   1 4420.58 690.391   1
 -21   8   1 3646.02 634.887   4
 -13  -8   1 3994.57 676.208   4
  13 -21   1 4367.31 785.066   1
 -21   8   1 2998.93 588.661   2
 -13  -8   1 4463.16 621.144   2
   8  13   4 2775.32 652.250   3
  -8  21   4 2769.93 637.952   3
 -13  -8   4 2396.17 638.696   1
 -21   8   4 1893.76 502.270   4
 -21   8   4 2850.72 673.877   2
  21 -13   4 3602.20 760.740   1
 -13  -8   4 2458.14 526.964   4
  13 -21   4 1439.96 685.260   1
 -13  -8   4 2090.51 463.237   2
  -8  21   4 2210.62 522.162   1
   8  13   7 3264.08 829.135   3
  -8  21   7 2537.42 717.442   3
 -21   8   7 2496.00 571.542   4
 -21   8   7 1691.99 681.974   2
 -13  -8   7 2143.55 716.690   1
 -13  -8   7 1652.80 408.511   4
 -13  -8   7 2196.39 508.542   2
  13 -21   7 2358.90 790.765   1
  21 -13   7 3144.35 799.910   1
  -8  21  10 977.619 804.122   3
 -21   8  10 968.409 675.471   1
 -21   8  10 1917.82 772.802   2
 -13  -8  10 587.822 842.283   1
 -13  -8  10 232.276 1666.70   3
  21 -13  10 2459.50 1347.20   3
  13 -21  10 2298.71 949.374   1
  21 -13  10 160.011 655.100   1
   8  13  10 2212.99 917.505   3
 -21   9  -9 2829.13 857.066   2
 -21   9  -9 3529.33 817.072   4
  -9  21  -6 2600.39 444.245   4
 -12  -9  -6 2869.91 356.288   1
 -21   9  -6 3659.59 696.679   4
 -21   9  -6 4134.75 734.977   2
  12 -21  -3 5898.19 753.265   1
 -12  -9  -3 5728.21 803.451   2
 -21   9  -3 7212.15 855.856   4
 -12  -9  -3 5889.07 654.245   1
  -9  21  -3 5191.44 646.844   4
   9  12  -3 5697.28 602.708   2
 -12  -9  -3 6961.29 896.633   4
 -21   9  -3 7231.46 851.992   2
  -9  21  -3 3372.66 206.327   2
  12 -21   0 3852.63 702.133   1
   9  12   0 3742.92 627.099   3
  21 -12   0 4072.53 347.739   3
  -9  21   0 3482.13 629.375   3
  -9  21   0 3472.09 459.741   2
 -12  -9   0 4096.75 665.408   1
 -21   9   0 4532.18 709.430   4
  21 -12   0 3494.08 714.259   1
 -12  -9   0 3774.00 657.969   4
 -21   9   0 3624.90 638.230   2
 -12  -9   0 4315.79 649.231   2
  -9  21   3 11426.0 1046.66   3
 -12  -9   3 12152.1 1150.45   1
  12 -21   3 14170.8 1284.51   1
 -12  -9   3 11849.8 952.381   4
 -21   9   3 11606.5 1007.41   4
 -21   9   3 11807.7 1036.56   2
 -12  -9   3 10126.5 807.545   2
  21 -12   3 12841.2 1156.08   1
   9  12   3 10667.7 986.170   3
   9  12   6 1889.16 683.752   3
  21 -12   6 1086.71 581.378   1
  -9  21   6 1652.70 626.904   3
 -21   9   6 1227.83 584.447   2
 -12  -9   6 855.166 700.714   1
 -21   9   6 847.196 433.315   4
 -12  -9   6 1038.36 390.640   4
  12 -21   6 791.206 652.741   1
  21 -12   6 109.249 1513.01   3
 -12  -9   6 1254.47 394.939   2
  12 -21   9 6527.84 1157.76   1
 -21   9   9 6214.39 1102.53   2
 -21   9   9 5987.22 803.382   4
 -12  -9   9 7521.82 1186.25   1
  21 -12   9 5452.37 937.143   1
 -12  -9   9 6046.71 718.450   2
  21 -12   9 7000.84 1581.70   3
   9  12   9 6609.68 1147.64   3
  -9  21   9 7366.29 1118.31   3
 -21  10 -10-341.925 601.106   4
 -21  10  -7 5659.13 874.292   2
 -10  21  -7 3842.73 436.766   4
 -21  10  -7 5598.72 841.049   4
 -11 -10  -4 6503.61 942.019   2
  11 -21  -4 4211.30 628.614   1
 -10  21  -4 5615.49 649.755   4
  10  11  -4 4623.06 563.049   2
 -21  10  -4 5902.99 802.856   4
 -11 -10  -4 6296.36 895.014   4
 -21  10  -4 4032.57 675.057   2
 -11 -10  -4 5678.67 568.081   1
  10  11  -1 11467.2 913.098   3
 -10  21  -1 11380.7 982.768   3
 -10  21  -1 10736.6 935.243   4
 -11 -10  -1 13125.6 989.017   1
 -10  21  -1 10404.0 652.053   2
 -21  10  -1 11931.2 1036.78   4
  11 -21  -1 12851.5 1067.47   1
 -11 -10  -1 12741.5 1111.38   4
 -21  10  -1 12933.4 1048.01   2
 -11 -10  -1 13039.1 1048.02   2
 -10  21   2 8426.25 876.533   3
  11 -21   2 7488.91 933.284   1
 -11 -10   2 6919.65 840.786   1
  21 -11   2 7657.42 936.918   1
 -21  10   2 7297.45 845.605   4
 -21  10   2 7362.48 811.842   2
 -11 -10   2 8119.66 849.256   4
 -11 -10   2 7508.27 721.062   2
  10  11   2 8293.73 855.018   3
 -10  21   5 5133.90 757.737   3
  11 -21   5 4774.27 868.539   1
 -21  10   5 5443.04 727.287   4
 -21  10   5 3837.65 736.188   2
 -11 -10   5 4881.98 626.740   4
 -11 -10   5 5829.23 620.454   2
 -10  21   5 3156.53 573.593   1
  21 -11   5 5923.73 913.162   1
 -11 -10   5 5174.65 872.714   1
  10  11   5 4396.47 774.423   3
  11 -21   8 6267.16 1071.34   1
 -21  10   8 5385.00 760.712   4
 -21  10   8 5901.26 986.764   2
 -11 -10   8 5322.95 643.016   2
  21 -11   8 5238.77 859.873   1
 -11 -10   8 4429.33 966.210   1
  21 -11   8 6802.20 1393.80   3
 -10  21   8 8214.36 1048.96   3
  10  11   8 3846.63 890.646   3
 -21  11  -8 5573.11 860.815   2
 -21  11  -8 5441.25 895.853   4
 -11  21  -5 5044.40 600.624   4
 -10 -11  -5 4972.83 464.673   1
 -21  11  -5 4364.16 720.462   4
 -10 -11  -5 3847.80 462.667   1
  10 -21  -5 4162.32 576.228   1
 -21  11  -5 4999.69 757.849   2
  11  10  -5 3500.60 527.547   4
 -10 -11  -2 7215.19 834.122   2
  11  10  -2 6667.33 691.557   3
 -11  21  -2 6396.83 713.625   4
 -10 -11  -2 8234.71 791.870   1
 -21  11  -2 6966.96 822.600   4
 -11  21  -2 6622.06 463.893   2
 -10 -11  -2 8113.06 972.270   4
  10 -21  -2 6769.30 762.833   1
 -21  11  -2 6980.01 788.787   2
  11  10   1 14694.5 1044.05   3
 -11  21   1 12258.6 984.888   3
  10 -21   1 13645.6 1184.37   1
 -11  21   1 12080.0 870.408   2
 -10 -11   1 12469.5 1074.27   1
 -21  11   1 12534.0 1051.43   4
 -21  11   1 12522.6 1027.73   2
 -10 -11   1 13993.2 1089.43   4
  21 -10   1 12416.1 708.195   3
 -10 -11   1 13585.3 930.032   2
 -11  21   4 6448.63 799.175   3
  10 -21   4 6023.07 958.686   1
  21 -10   4 6311.58 854.901   1
 -21  11   4 5545.87 743.407   4
 -21  11   4 5115.83 794.110   2
 -10 -11   4 4692.66 819.454   1
 -10 -11   4 4913.55 623.442   4
 -10 -11   4 5296.79 579.970   2
  11  10   4 6083.42 834.162   3
  10 -21   7 7533.39 1110.02   1
 -10 -11   7 5970.26 1002.68   1
 -21  11   7 4475.34 717.407   4
 -21  11   7 5832.73 944.520   2
 -10 -11   7 6675.78 639.953   2
  21 -10   7 7757.55 1233.92   3
  21 -10   7 5954.11 883.336   1
  11  10   7 5413.68 923.485   3
 -21  11   7 5784.50 443.549   3
 -11  21   7 4843.22 818.257   3
 -11  21  10-95.3292 656.602   3
 -21  11  10 332.407 634.266   2
 -11  21  10-660.660 649.165   4
  10 -21  10-18.0997 703.068   1
 -10 -11  10 721.575 734.500   1
  21 -10  10 2002.04 927.087   3
  11  10  10 835.758 777.593   3
 -21  12  -9 5155.47 898.585   2
 -21  12  -9 5949.12 888.882   4
 -21  12  -6 1746.64 587.001   2
  -9 -12  -6 360.329 122.924   1
 -12  21  -6 1174.00 387.439   4
 -21  12  -6 955.257 450.581   4
  -9 -12  -3 12634.8 1115.56   2
 -12  21  -3 12374.2 956.249   4
 -21  12  -3 11709.4 1033.51   4
  -9 -12  -3 11076.0 786.522   1
 -12  21  -3 9793.39 504.417   2
   9 -21  -3 12471.8 969.951   1
 -21  12  -3 11293.3 980.286   2
  12   9   0 4482.81 630.201   3
  21  -9   0 4012.91 283.335   3
 -12  21   0 3663.03 595.622   3
   9 -21   0 4516.19 729.500   1
 -12  21   0 3932.76 644.995   4
 -12  21   0 3475.69 479.623   2
  -9 -12   0 4516.70 647.374   1
 -21  12   0 3882.42 636.927   4
 -21  12   0 3956.23 622.330   2
  -9 -12   0 3915.61 687.838   4
  21  -9   0 3458.93 284.226   3
  -9 -12   0 4080.95 579.953   2
   9 -21   3 7697.47 960.397   1
 -12  21   3 6755.46 784.573   3
 -12  21   3 6165.23 807.591   2
  -9 -12   3 5848.14 803.481   1
 -21  12   3 7494.75 867.953   4
 -21  12   3 6342.39 816.367   2
  21  -9   3 5735.09 810.073   1
  21  -9   3 7071.18 752.594   3
  -9 -12   3 7051.19 632.040   2
  12   9   3 6297.23 786.799   3
 -21  12   6 3384.65 288.212   3
  21  -9   6 3611.27 711.171   1
 -21  12   6 3085.47 643.744   4
   9 -21   6 3013.72 766.487   1
 -21  12   6 3087.61 723.700   2
  -9 -12   6 2981.38 435.959   2
  21  -9   6 4618.12 859.576   3
  12   9   6 3714.14 797.263   3
  -9 -12   6 3324.77 788.477   1
 -12  21   6 3553.55 698.108   3
 -12  21   9 4248.87 891.170   3
  21  -9   9 4875.75 845.566   1
 -12  21   9 4541.94 940.923   4
 -21  12   9 3475.36 714.971   4
 -21  12   9 4026.48 939.015   2
   9 -21   9 4864.07 1064.04   1
  -9 -12   9 4373.42 921.969   1
  21  -9   9 3199.13 975.596   3
  12   9   9 5977.34 1152.20   3
 -21  13 -10 2839.82 754.995   4
 -21  13  -7 1578.40 585.572   2
 -13  21  -7 2214.10 442.972   4
 -21  13  -7 1679.94 570.018   4
 -13  21  -4 2839.12 510.497   4
 -21  13  -4 2984.87 601.236   4
  -8 -13  -4 3204.25 458.035   1
 -13  21  -4 2207.71 266.230   2
   8 -21  -4 3039.00 589.784   1
 -21  13  -4 2929.65 566.672   2
  -8 -13  -1 3175.69 631.702   2
  13   8  -1 4241.26 550.810   3
  -8 -13  -1 3917.53 620.542   1
   8 -21  -1 5428.07 783.150   1
 -13  21  -1 3854.60 616.489   4
 -13  21  -1 4473.13 501.180   2
 -21  13  -1 3572.11 622.405   4
 -21  13  -1 3417.11 609.969   2
   8 -21   2 19116.1 1388.67   1
 -13  21   2 18019.5 1149.53   3
 -13  21   2 18150.3 1294.29   4
 -13  21   2 15824.9 1085.71   2
 -21  13   2 19846.0 1320.47   4
  -8 -13   2 21484.9 1401.76   1
 -21  13   2 19813.4 1301.77   2
  21  -8   2 18697.9 979.454   3
  -8 -13   2 17183.5 1000.12   2
  13   8   2 19342.4 1189.92   3
 -13  21   5 2767.89 597.008   3
 -21  13   5 2601.88 207.305   3
  21  -8   5 3143.40 669.248   1
 -13  21   5 2078.57 715.143   4
   8 -21   5 2328.00 726.162   1
 -21  13   5 2200.92 613.915   4
 -21  13   5 1582.50 603.805   2
 -13  21   5 2091.51 593.359   2
  -8 -13   5 2840.25 668.815   1
  -8 -13   5 3059.28 444.482   2
  21  -8   5 2583.30 654.184   3
  13   8   5 2472.72 616.012   3
 -13  21   8 4546.84 954.386   2
 -13  21   8 3309.62 857.718   4
 -21  13   8 4434.70 783.315   4
 -21  13   8 4942.31 927.245   2
   8 -21   8 3050.10 965.026   1
  21  -8   8 3758.02 739.813   1
  -8 -13   8 3341.44 870.671   1
  21  -8   8 4093.06 984.962   3
  13   8   8 2954.17 858.403   3
 -13  21   8 4818.03 837.870   3
 -21  14  -8 4216.31 798.366   2
 -14  21  -8 3479.13 513.816   4
   7 -21  -5 5797.43 623.424   1
 -14  21  -5 7213.90 740.506   4
 -21  14  -5 6450.26 819.988   4
  -7 -14  -5 6866.11 493.654   1
 -21  14  -5 6344.90 828.261   2
 -14  21  -5 5716.58 378.638   2
  14   7  -2 5827.88 623.989   3
  -7 -14  -2 6213.92 782.837   2
 -14  21  -2 4594.39 658.900   4
 -21  14  -2 4819.81 703.921   4
  -7 -14  -2 5807.88 644.796   1
 -14  21  -2 5368.55 492.951   2
 -21  14  -2 5822.97 720.904   2
   7 -21  -2 4462.29 713.059   1
  14   7   1 10853.8 878.058   3
  -7 -14   1 9274.08 771.036   2
   7 -21   1 7958.95 889.643   1
 -14  21   1 8936.06 831.052   3
 -14  21   1 9045.54 923.607   4
 -14  21   1 8359.21 788.114   2
 -21  14   1 9478.10 924.823   4
  -7 -14   1 9895.43 986.659   1
 -21  14   1 8416.14 836.854   2
  21  -7   1 10646.2 624.048   3
  14   7   4 1436.62 567.099   3
  -7 -14   4 1310.42 314.059   2
 -14  21   4 1016.43 437.991   3
 -14  21   4 1126.90 569.641   4
   7 -21   4 1639.33 573.522   1
 -21  14   4 1692.37 558.080   2
  -7 -14   4 1967.47 662.256   1
 -21  14   4 1755.11 548.147   4
  21  -7   4 1067.37 480.466   3
 -14  21   4-26.5139 405.654   2
 -21  14   7 4357.97 842.993   2
 -14  21   7 4834.32 842.057   4
 -14  21   7 3250.24 811.269   2
   7 -21   7 3084.87 823.682   1
 -21  14   7 3806.57 679.095   4
  21  -7   7 4282.11 795.061   1
  -7 -14   7 4088.62 424.711   2
  -7 -14   7 4194.06 943.442   1
  21  -7   7 4634.56 875.244   3
  14   7   7 4147.25 880.394   3
 -14  21   7 4128.83 735.434   3
 -21  14   7 4167.08 473.316   3
 -14  21  10 693.629 683.035   3
 -14  21  10 1985.99 805.937   4
 -14  21  10 2761.16 911.873   2
 -21  14  10 817.963 562.190   4
   7 -21  10 1665.82 864.005   1
 -21  14  10 348.916 653.223   2
  21  -7  10 1294.60 808.049   3
  -7 -14  10 1103.70 814.007   1
  14   7  10 417.098 763.795   3
 -21  15  -9 2279.26 684.133   4
 -21  15  -6 2277.28 579.541   2
   6 -21  -6 1180.43 331.307   1
 -15  21  -6 1793.81 440.655   4
 -21  15  -6 2465.17 610.881   4
 -15  21  -3 5124.76 691.343   4
 -21  15  -3 6225.56 804.852   4
   6 -21  -3 4340.98 628.858   1
  -6 -15  -3 5813.98 606.080   1
 -15  21  -3 5893.44 504.557   2
 -21  15  -3 5981.67 721.170   2
   6 -21   0 3922.42 721.967   1
  15   6   0 6405.59 652.107   3
  -6 -15   0 6125.98 682.718   2
 -15  21   0 4285.20 690.091   4
 -21  15   0 4416.94 700.593   4
  -6 -15   0 5549.60 702.990   1
 -21  15   0 6018.85 713.158   2
 -15  21   0 5193.24 581.387   2
  21  -6   0 5213.83 323.695   3
 -15  21   3 9065.24 843.429   3
 -15  21   3 9061.55 967.222   4
 -15  21   3 10949.8 985.044   2
 -21  15   3 11684.6 1099.77   4
 -21  15   3 10113.8 993.473   2
  -6 -15   3 10234.5 1074.47   1
  21  -6   3 11429.3 886.351   3
   6 -21   3 9838.35 1091.38   1
  15   6   3 10494.1 934.215   3
  -6 -15   3 11330.0 718.873   2
 -15  21   6 6511.53 835.324   3
 -21  15   6 6959.64 523.613   3
  -6 -15   6 6498.61 1006.95   1
 -15  21   6 6911.80 988.911   2
 -15  21   6 4825.93 807.072   4
 -21  15   6 6131.05 846.212   4
 -21  15   6 5916.31 906.589   2
  21  -6   6 6358.29 924.960   3
  -6 -15   6 6101.05 462.196   2
   6 -21   6 6096.95 1019.65   1
  15   6   6 7518.24 1012.74   3
 -15  21   9 1170.26 602.506   3
 -15  21   9-77.6694 535.000   4
   6 -21   9 2882.79 924.813   1
 -21  15   9 2034.65 692.727   4
 -15  21   9 1507.65 833.672   2
 -21  15   9 1904.58 757.466   2
  21  -6   9 1828.01 838.187   3
  -6 -15   9 2115.31 812.567   1
  15   6   9 2368.96 873.226   3
 -21  16  -7 1580.32 535.050   2
 -16  21  -7 334.794 366.747   4
 -21  16  -7 900.591 522.705   4
 -21  16  -4 1731.23 499.550   4
   5 -21  -4 2127.81 471.624   1
 -16  21  -4 462.823 391.447   4
  -5 -16  -4 2023.76 418.053   1
 -16  21  -4 1408.45 316.331   2
 -21  16  -4 1654.85 512.095   2
  16   5  -1 578.420 314.511   3
 -16  21  -1 744.969 427.022   4
 -21  16  -1 266.100 388.430   4
   5 -21  -1 983.545 500.087   1
 -16  21  -1 215.523 275.002   2
 -21  16  -1 98.6115 330.130   2
  -5 -16  -1 313.580 347.107   1
  -5 -16   2 9548.49 691.473   2
 -16  21   2 9960.22 829.518   3
 -16  21   2 10866.2 1061.33   4
 -16  21   2 9318.34 891.446   2
 -21  16   2 10378.6 1020.50   4
 -21  16   2 9280.51 969.525   2
  -5 -16   2 9871.15 1037.72   1
  21  -5   2 10918.0 770.950   3
   5 -21   2 11224.5 1100.26   1
  16   5   2 11507.7 892.497   3
 -16  21   5 344.314 354.637   3
  -5 -16   5 639.761 204.747   2
 -21  16   5 340.939 249.238   3
   5 -21   5 881.665 656.358   1
 -16  21   5 1305.23 564.654   4
 -16  21   5 606.959 509.107   2
 -21  16   5 809.424 571.899   4
 -21  16   5 867.686 549.582   2
  -5 -16   5-727.813 598.420   1
  21  -5   5 1272.71 581.846   3
  16   5   5 789.055 464.951   3
 -21  16   8 2236.64 493.575   3
 -16  21   8 3632.09 688.573   3
 -16  21   8 1430.90 643.432   4
   5 -21   8 2295.17 803.155   1
 -21  16   8 2231.47 774.470   2
 -16  21   8 1784.65 782.475   2
 -21  16   8 3358.26 713.739   4
  21  -5   8 2082.68 783.976   3
  -5 -16   8 1919.19 760.886   1
  16   5   8 4130.56 914.607   3
 -21  17  -8 2008.49 614.063   2
 -17  21  -8 2436.10 528.167   4
 -21  17  -8 2050.52 608.894   4
  -4 -17  -5 6063.46 495.771   1
 -17  21  -5 7671.92 819.459   4
 -21  17  -5 8136.42 896.656   4
 -21  17  -5 8103.01 850.374   2
 -17  21  -5 7904.70 619.836   2
   4 -21  -5 5709.23 600.829   1
 -21  17  -2 3751.28 661.249   4
   4 -21  -2 3733.98 625.809   1
  17   4  -2 4345.02 478.303   3
 -17  21  -2 4365.34 650.114   4
 -17  21  -2 3684.48 506.119   2
 -21  17  -2 3872.63 615.844   2
  -4 -17  -2 3865.19 600.893   1
 -17  21   1 18610.8 1113.36   3
 -17  21   1 16793.6 1235.59   4
 -21  17   1 21117.8 1388.35   4
 -17  21   1 17274.4 1132.04   2
 -21  17   1 19867.1 1288.63   2
  -4 -17   1 21297.2 1388.11   1
   4 -21   1 19146.9 1350.77   1
  21  -4   1 21628.0 905.236   3
  17   4   1 19369.8 1064.54   3
 -17  21   4 4656.17 638.946   3
 -21  17   4 4060.08 430.404   3
   4 -21   4 4631.56 842.225   1
 -17  21   4 4660.79 794.929   2
 -21  17   4 4272.29 721.748   4
 -17  21   4 2387.52 617.893   4
 -21  17   4 4152.71 766.445   2
  21  -4   4 3742.55 666.096   3
  -4 -17   4 4156.73 844.571   1
  17   4   4 4428.05 751.440   3
 -17  21   7 6296.76 822.654   3
 -21  17   7 6927.70 668.258   3
 -17  21   7 5069.04 946.492   2
 -21  17   7 5030.21 860.251   4
 -17  21   7 3803.23 799.124   4
 -21  17   7 8341.30 1108.45   2
  -4 -17   7 5130.93 1017.44   1
  21  -4   7 5280.12 951.855   3
   4 -21   7 7037.40 1114.33   1
  17   4   7 5289.31 1008.13   3
 -21  18  -9 1441.03 590.549   4
 -18  21  -6 3340.52 617.730   4
   3 -21  -6 1886.22 296.100   1
 -21  18  -6 3365.43 623.128   2
 -18  21  -6 2738.58 437.749   2
 -21  18  -6 3053.44 628.785   4
  -3 -18  -3 562.217 359.375   1
 -18  21  -3 483.577 406.900   4
 -21  18  -3-321.456 427.909   4
   3 -21  -3 591.455 374.045   1
 -18  21  -3 615.548 317.352   2
 -21  18  -3 1059.23 455.707   2
  21  -3   0 2077.66 294.613   3
  18   3   0 1769.17 369.178   3
 -18  21   0 2661.99 634.046   4
 -21  18   0 2035.02 566.781   4
 -18  21   0 2071.72 499.869   2
 -21  18   0 2248.26 530.078   2
   3 -21   0 2404.28 603.658   1
  -3 -18   0 3142.16 643.497   1
  18   3   3 2585.65 562.596   3
 -18  21   3 2504.23 638.660   4
 -18  21   3 2778.81 518.883   3
 -21  18   3 3559.42 693.671   2
   3 -21   3 3298.20 742.196   1
 -21  18   3 2424.32 621.619   4
 -18  21   3 2261.43 601.740   2
  21  -3   3 3025.12 551.886   3
  -3 -18   3 3702.18 750.670   1
 -18  21   6 8811.07 876.047   3
 -21  18   6 9834.90 743.834   3
 -18  21   6 7805.66 994.286   4
 -18  21   6 9471.59 1134.66   2
 -21  18   6 9569.33 1040.90   4
 -21  18   6 8030.88 1035.04   2
  -3 -18   6 9663.27 1222.69   1
   3 -21   6 9262.84 1208.60   1
  21  -3   6 9327.27 1073.01   3
  18   3   6 11389.0 1170.09   3
  -3 -18   9-432.817 630.661   1
 -18  21   9 1259.48 636.785   3
 -21  18   9 464.011 673.860   4
   3 -21   9 1483.93 770.587   1
 -18  21   9 390.504 589.117   4
 -18  21   9 430.330 646.551   2
 -21  18   9 1288.47 781.299   2
  21  -3   9 509.665 735.302   3
  18   3   9 644.420 724.984   3
 -21  19  -7 576.951 449.688   2
 -19  21  -7 790.242 353.595   2
 -19  21  -7 221.332 431.392   4
 -21  19  -7 553.311 417.510   4
 -19  21  -4 373.351 384.945   4
 -21  19  -4 107.462 363.299   4
  -2 -19  -4 367.928 336.688   1
 -19  21  -4 749.590 342.385   2
 -21  19  -4 998.271 409.905   2
   2 -21  -4 341.957 376.371   1
  19   2  -1 3072.11 406.990   3
  21  -2  -1 3185.53 276.715   3
 -19  21  -1 3060.47 655.165   4
 -21  19  -1 4886.03 788.090   4
 -19  21  -1 3386.51 541.942   2
 -21  19  -1 3172.69 567.346   2
  -2 -19  -1 3209.97 595.279   1
   2 -21  -1 4433.59 671.968   1
  19   2   2-136.963 338.715   3
   2 -21   2-63.1254 508.550   1
 -19  21   2 724.734 390.909   3
 -19  21   2 727.859 468.669   4
 -21  19   2 1199.28 546.474   4
 -19  21   2 137.038 380.936   2
 -21  19   2 78.0743 432.397   2
  -2 -19   2 1408.03 599.231   1
  21  -2   2 354.758 322.147   3
   2 -21   5 3111.07 799.760   1
 -19  21   5 1368.55 448.812   3
 -21  19   5 1308.30 370.397   3
 -19  21   5 1620.35 637.694   4
 -19  21   5 638.611 548.083   2
 -21  19   5 1032.52 557.004   4
  21  -2   5 2137.43 634.251   3
 -21  19   5 1721.74 626.117   2
  -2 -19   5 1789.90 766.255   1
  19   2   5 1795.44 629.511   3
  -2 -19   8 201.275 700.269   1
 -19  21   8 2780.53 644.610   3
 -21  19   8 2321.93 550.727   3
   2 -21   8 2357.83 858.879   1
 -21  19   8 1806.83 679.009   4
 -19  21   8 3298.10 894.225   2
 -21  19   8 135.765 593.276   2
 -19  21   8 611.920 523.804   4
  21  -2   8 1013.66 663.262   3
  19   2   8 1141.36 747.550   3
 -21  20  -8 3328.78 641.715   2
 -20  21  -8 3906.29 686.441   4
 -21  20  -8 3559.06 687.918   4
 -20  21  -5 8894.78 923.030   4
 -21  20  -5 9553.55 1004.00   4
   1 -21  -5 7163.59 615.663   1
  -1 -20  -5 6323.52 570.172   1
 -21  20  -5 9420.35 850.883   2
 -20  21  -5 8709.26 769.344   2
  -1 -20  -2 1657.15 556.328   1
 -21  20  -2 2185.65 632.595   4
 -20  21  -2 3074.40 624.575   4
 -20  21  -2 2317.56 468.329   2
 -21  20  -2 1893.97 479.722   2
   1 -21  -2 3233.50 618.056   1
 -20  21   1 6649.76 854.361   4
 -20  21   1 7354.34 844.592   2
 -21  20   1 6205.18 782.700   2
 -21  20   1 8156.28 1011.87   4
  -1 -20   1 6580.33 892.915   1
   1 -21   1 6113.24 894.871   1
  21  -1   1 7875.96 641.603   3
  20   1   1 6328.48 627.499   3
 -21  20   4 2038.22 621.081   2
   1 -21   4 1713.85 689.959   1
 -20  21   4 964.837 377.207   3
 -21  20   4 1182.13 361.382   3
 -20  21   4 861.065 507.294   4
 -21  20   4 128.421 496.829   4
 -20  21   4 138.421 454.381   2
  21  -1   4 911.190 444.438   3
  20   1   4 2591.30 584.912   3
  -1 -20   4 1165.07 633.546   1
 -20  21   7 7288.15 802.130   3
 -21  20   7 7637.56 792.573   3
   1 -21   7 4159.74 1007.53   1
 -20  21   7 7036.69 1021.22   4
 -20  21   7 5254.55 1012.75   2
 -21  20   7 6652.90 978.333   4
 -21  20   7 5687.45 1008.54   2
  -1 -20   7 4851.87 1026.44   1
  21  -1   7 5500.93 961.416   3
  20   1   7 6564.34 1003.14   3
 -21  21  -6 2960.72 557.971   2
 -21  21  -6 3121.84 635.018   4
 -21  21  -3-317.990 434.028   4
   0 -21  -3 83.6795 374.966   1
 -21  21  -3-273.726 330.063   2
  21   0   0 9072.31 637.250   3
 -21  21   0 7386.17 904.125   4
 -21  21   0 6776.03 777.425   2
   0 -21   0 7909.18 918.654   1
   0 -21   3 16.7396 503.842   1
 -21  21   3-304.015 302.726   3
 -21  21   3 666.526 482.779   2
 -21  21   3 153.342 442.712   4
  21   0   3 335.827 403.829   3
   0 -21   6 2004.14 741.978   1
 -21  21   6 3018.22 578.487   3
 -21  21   6 1694.10 646.617   4
 -21  21   6 1936.80 731.334   2
  21   0   6 2904.91 739.444   3
   0 -21   9 1925.89 931.418   1
 -21  21   9 411.155 660.167   4
 -21  21   9 259.242 653.951   2
  21   0   9 1126.69 874.305   3
 -22   0  -7 731.871 665.804   2
 -22   0  -7-835.753 670.917   4
 -22   0  -4 10929.1 1276.31   4
 -22   0  -4 9780.78 1203.54   2
  22 -22  -1 142.249 552.509   1
   0  22  -1 776.690 530.486   3
 -22   0  -1 162.090 468.624   4
 -22   0  -1-803.777 1340.97   3
   0  22  -1 7.45145 323.466   2
 -22   0  -1-259.513 468.443   2
   0  22   2 4100.96 817.963   3
  22 -22   2 4584.04 940.129   1
 -22   0   2 3990.56 708.385   4
 -22   0   2 3830.65 771.355   2
   0  22   5 380.497 593.720   3
 -22   0   5-419.566 455.555   4
 -22   0   5 257.565 471.501   2
  22 -22   5-431.493 657.023   1
 -22   0   8 8653.45 1230.09   1
 -22   0   8 7521.86 1070.75   2
  22 -22   8 9864.51 1445.27   1
   0  22   8 9471.73 1313.60   3
 -22   1  -8 850.970 791.296   2
 -21  -1  -8 704.983 734.959   2
 -22   1  -8 407.013 673.595   4
 -21  -1  -8 131.505 636.899   4
 -22   1  -5 6545.75 1030.82   4
 -21  -1  -5 5508.48 949.655   4
 -22   1  -5 5057.01 964.256   2
 -21  -1  -5 4924.25 923.883   2
 -21  -1  -2 2862.50 727.984   2
   1  21  -2 2684.04 709.510   3
  -1  22  -2 2824.29 690.026   3
  21 -22  -2 2985.26 746.320   1
 -21  -1  -2 4417.67 797.487   4
 -22   1  -2 3178.59 730.923   4
   1  21  -2 1532.58 343.090   2
  -1  22  -2 1510.91 316.603   2
  22 -21  -2 2904.48 723.037   1
  22 -21  -2 1680.01 442.126   3
 -22   1  -2 3220.42 710.890   2
   1  21   1 9725.31 1057.83   3
  21 -22   1 10322.7 1210.61   1
  -1  22   1 8847.20 1044.02   3
  22 -21   1 8443.71 1097.49   1
 -22   1   1 9243.87 998.955   4
 -21  -1   1 9604.40 1018.09   4
 -22   1   1 8822.99 1302.22   3
 -21  -1   1 10088.4 731.096   3
 -22   1   1 9994.79 1034.27   2
 -21  -1   1 8230.79 964.746   2
  22 -21   4 144.708 583.665   1
   1  21   4 977.350 585.753   3
  -1  22   4 1544.11 573.078   3
 -22   1   4 1227.20 497.074   4
 -21  -1   4 1720.64 557.266   4
 -22   1   4 1074.32 550.456   2
 -21  -1   4 642.302 483.434   2
  21 -22   4 714.436 690.380   1
 -21  -1   7 4365.94 937.823   1
  -1  22   7 3478.55 907.095   3
 -22   1   7 4734.61 751.538   4
 -21  -1   7 5697.47 788.865   4
  21 -22   7 4412.80 1062.21   1
 -22   1   7 3037.08 721.769   2
 -21  -1   7 3967.92 759.870   2
  22 -21   7 5654.83 1089.52   1
   1  21   7 5706.70 1059.17   3
 -22   2  -9 2050.02 982.016   4
 -20  -2  -9 1725.80 880.252   4
 -22   2  -6 227.432 615.185   2
 -20  -2  -6-109.308 560.692   2
  -2  22  -6 85.7747 291.068   4
 -22   2  -6 74.9884 603.891   4
 -20  -2  -6 610.565 612.942   4
  20 -22  -3 5359.69 869.015   1
 -20  -2  -3 3829.14 758.801   2
  22 -20  -3 3881.87 790.865   1
 -20  -2  -3 4243.54 854.429   4
   2  20  -3 1678.63 280.123   2
 -22   2  -3 3764.54 776.386   4
  22 -20  -3 3302.61 503.993   3
 -22   2  -3 4109.76 790.119   2
  22 -20   0-138.527 355.390   3
  22 -20   0-183.928 519.218   1
   2  20   0 181.158 439.326   3
  -2  22   0 465.056 446.607   3
  20 -22   0-344.803 527.379   1
 -20  -2   0 63.8713 423.859   4
 -22   2   0-129.761 451.280   4
 -20  -2   0 313.156 393.200   3
 -22   2   0 568.006 461.409   2
 -20  -2   0-189.429 414.846   2
   2  20   3 890.919 509.298   3
  -2  22   3 2333.14 684.882   3
  22 -20   3 1652.67 649.797   1
 -22   2   3 1871.45 572.867   4
 -20  -2   3 2154.93 604.962   4
  20 -22   3 1344.48 705.560   1
 -22   2   3 1714.77 522.542   2
 -20  -2   3 1241.34 546.586   2
 -20  -2   3 1442.11 317.851   3
   2  20   6 1599.98 665.296   3
  -2  22   6 2714.05 812.511   3
  20 -22   6-627.760 646.815   1
 -22   2   6 1644.62 523.216   4
 -20  -2   6 732.415 430.142   4
 -22   2   6-273.110 440.866   2
 -20  -2   6-140.683 426.949   2
  22 -20   6 634.464 626.416   1
   2  20   9 523.824 727.944   3
  -2  22   9 1077.48 758.896   3
 -20  -2   9 2514.32 919.941   1
  20 -22   9 1507.61 902.909   1
 -22   2   9 2041.30 836.554   1
 -22   2   9 2276.89 759.237   2
 -20  -2   9 1976.02 666.562   2
  22 -20   9 660.166 767.562   1
 -22   3  -7 484.766 613.328   2
 -19  -3  -7-743.239 747.427   2
 -22   3  -7 354.016 542.330   4
 -19  -3  -7 39.9304 651.711   4
   3  19  -4 3815.54 310.632   2
  19 -22  -4 6044.43 884.519   1
 -19  -3  -4 8615.74 1154.86   4
  22 -19  -4 6489.99 632.179   3
 -22   3  -4 5350.02 853.583   2
 -22   3  -4 7640.95 1023.69   4
 -19  -3  -4 6973.65 1007.70   2
 -19  -3  -1 2678.69 670.846   2
   3  19  -1 3996.80 754.943   3
  -3  22  -1 3042.90 702.361   3
 -22   3  -1 3603.18 710.939   4
 -19  -3  -1 3459.65 737.239   4
  19 -22  -1 2561.23 738.540   1
  -3  22  -1 2544.03 431.188   2
  22 -19  -1 3535.79 776.212   1
   3  19  -1 2441.66 468.218   2
 -22   3  -1 3073.12 679.390   2
  22 -19  -1 3076.79 464.238   3
   3  19   2 14615.6 1272.87   3
  -3  22   2 15067.3 1258.56   3
  22 -19   2 13990.7 1397.10   1
 -22   3   2 16194.2 1226.84   4
 -19  -3   2 15087.8 1186.27   4
 -22   3   2 13906.4 1155.54   2
 -19  -3   2 15961.1 1188.49   2
  19 -22   2 12913.0 1338.44   1
 -19  -3   2 10871.5 731.372   3
   3  19   5 22.2063 522.224   3
  -3  22   5 1202.95 612.627   3
  22 -19   5-162.978 556.496   1
  19 -22   5 1807.26 724.155   1
 -22   3   5 195.486 398.095   4
 -19  -3   5-44.2072 417.908   4
 -22   3   5 321.865 464.523   2
 -19  -3   5-3.37274 403.160   2
  22 -19   8 3092.54 859.862   1
   3  19   8 1980.25 793.006   3
  19 -22   8 3851.95 1053.73   1
 -19  -3   8 4465.26 806.374   2
 -22   3   8 2910.60 630.902   4
 -22   3   8 3655.47 789.872   2
 -19  -3   8 6560.67 1128.22   1
  22 -19   8-747.725 2227.21   3
  -3  22   8 6824.85 1132.92   3
 -22   4  -8-353.672 678.829   2
 -22   4  -8 150.994 619.391   4
 -18  -4  -8 919.790 693.824   4
 -18  -4  -5 4152.75 833.838   2
  -4  22  -5 4107.85 572.218   4
 -22   4  -5 6533.88 971.093   4
 -18  -4  -5 6321.10 1012.45   4
 -22   4  -5 7176.66 990.192   2
 -18  -4  -2 2150.03 606.696   2
   4  18  -2 1676.39 550.557   3
  -4  22  -2 3193.41 711.968   3
  22 -18  -2 2226.00 706.159   1
 -22   4  -2 2106.17 626.606   4
 -18  -4  -2 2992.80 724.106   4
   4  18  -2 1470.52 363.741   2
  18 -22  -2 1520.87 584.424   1
  -4  22  -2 1541.27 273.627   2
 -22   4  -2 1491.52 586.539   2
  22 -18  -2 1473.11 343.419   3
  22 -18   1 2731.51 509.576   3
  -4  22   1 4252.78 745.145   3
   4  18   1 3508.26 692.074   3
 -22   4   1 3052.82 624.923   4
 -18  -4   1 3448.51 675.169   4
 -22   4   1 4362.68 726.085   2
 -18  -4   1 3620.76 670.599   2
  18 -22   1 3489.45 776.576   1
 -18  -4   1 2833.32 488.169   3
  22 -18   1 5249.72 918.007   1
 -18  -4   4 901.599 388.461   3
   4  18   4 993.186 544.082   3
  -4  22   4 1063.78 618.088   3
  18 -22   4-0.93372 574.147   1
  18 -22   4 281.934 331.303   2
  22 -18   4 108.863 566.369   1
 -22   4   4 437.948 409.968   4
 -18  -4   4 1413.47 539.110   4
 -22   4   4 391.056 484.928   2
 -18  -4   4 1134.27 492.512   2
   4  18   7 1380.60 787.401   3
  -4  22   7 1653.23 672.767   3
  22 -18   7 933.435 642.358   1
  18 -22   7 1127.47 752.728   1
 -18  -4   7 74.8641 659.100   1
 -22   4   7 459.462 399.243   4
 -22   4   7 831.796 585.741   2
 -18  -4   7 2213.64 631.063   2
  22 -18   7 2931.43 2057.28   3
 -18  -4   7 2021.15 524.703   4
 -22   5  -9 979.286 823.637   2
 -22   5  -9 1420.21 737.567   4
 -22   5  -6-740.468 588.942   2
 -17  -5  -6 651.034 587.526   2
  -5  22  -6 631.683 337.165   4
 -22   5  -6-19.3967 516.421   4
 -17  -5  -6 174.862 530.773   4
   5  17  -3 2297.54 371.343   2
 -22   5  -3 3438.90 734.774   4
  17 -22  -3 4000.99 748.012   1
 -17  -5  -3 3002.29 725.620   4
  22 -17  -3 3114.12 357.474   3
 -22   5  -3 4711.61 802.417   2
 -17  -5  -3 4009.93 732.456   2
  -5  22   0 4311.02 573.969   2
  22 -17   0 3875.14 471.240   3
   5  17   0 5380.23 791.024   3
  -5  22   0 5786.30 826.027   3
 -22   5   0 6309.96 847.396   4
 -17  -5   0 5557.86 837.131   4
 -22   5   0 5415.89 757.094   2
 -17  -5   0 5568.58 662.677   3
 -17  -5   0 3964.48 655.051   2
  17 -22   0 4784.02 875.210   1
  22 -17   0 6221.63 948.843   1
   5  17   3 5438.56 855.688   3
  -5  22   3 5198.56 850.185   3
 -22   5   3 6021.34 803.082   2
  22 -17   3 4854.15 882.539   1
 -22   5   3 4810.98 750.252   4
 -17  -5   3 6084.20 795.327   4
  17 -22   3 4896.39 872.997   1
 -17  -5   3 5310.70 716.642   2
 -17  -5   3 4175.11 523.075   3
   5  17   6 488.315 578.620   3
  -5  22   6 621.417 579.264   3
  17 -22   6 1194.81 678.158   1
  22 -17   6 1184.42 592.059   1
 -17  -5   6 1011.64 664.357   1
 -22   5   6 1570.33 540.989   4
 -22   5   6 152.589 456.324   2
 -17  -5   6 1552.87 514.066   4
  22 -17   6 746.458 1505.03   3
 -17  -5   6 1177.97 482.980   2
   5  17   9 4241.17 1017.98   3
  -5  22   9 3805.75 1005.80   3
  17 -22   9 3763.45 997.894   1
  22 -17   9 1233.34 765.220   1
 -17  -5   9 3350.34 961.783   1
 -22   5   9 2912.16 786.823   2
 -17  -5   9 2368.01 624.018   2
 -22   6  -7 1444.17 696.406   2
 -22   6  -7 780.568 584.517   4
 -16  -6  -7 1331.97 714.995   4
 -16  -6  -4 6541.53 928.850   2
  -6  22  -4 3257.65 537.403   4
   6  16  -4 4329.71 454.828   2
 -22   6  -4 5019.83 818.178   4
 -16  -6  -4 5248.02 885.129   4
 -22   6  -4 6482.63 888.088   2
  16 -22  -4 5684.76 825.924   1
  22 -16  -1 562.914 262.723   3
 -16  -6  -1 1084.33 517.982   2
 -22   6  -1 570.053 481.593   4
  22 -16  -1 1909.94 689.638   1
  -6  22  -1 551.591 306.341   2
   6  16  -1 289.718 433.937   3
  -6  22  -1 464.307 478.471   3
 -16  -6  -1 810.872 552.595   4
 -22   6  -1 485.576 427.174   2
  16 -22  -1 95.2470 498.360   1
   6  16   2 14437.8 1180.59   3
  -6  22   2 12360.9 1143.00   3
 -22   6   2 12741.0 1098.51   4
  16 -22   2 13478.3 1310.58   1
 -16  -6   2 14088.7 1105.07   4
 -22   6   2 13320.1 1120.56   2
  22 -16   2 12448.7 1230.96   1
 -16  -6   2 13943.0 1068.73   2
 -16  -6   2 11027.2 814.937   3
   6  16   5 349.300 522.025   3
  16 -22   5 1223.51 707.887   1
  -6  22   5-61.7312 516.935   3
 -16  -6   5 129.650 547.227   1
 -22   6   5 83.2028 418.092   4
 -22   6   5 1395.10 538.816   2
 -16  -6   5 521.766 383.020   4
  22 -16   5 574.654 501.197   1
  22 -16   5 1241.60 1432.97   3
 -16  -6   5 339.480 383.619   2
  16 -22   8 4600.04 989.303   1
  22 -16   8 5640.65 1082.69   1
 -16  -6   8 6836.07 1144.02   1
 -22   6   8 6210.83 859.301   4
 -22   6   8 6106.26 985.379   2
 -16  -6   8 7479.28 901.202   2
  22 -16   8 4239.54 2625.72   3
   6  16   8 5727.30 1081.23   3
  -6  22   8 5845.84 1058.36   3
 -22   7  -8 159.628 551.947   2
 -22   7  -8 906.869 672.544   4
 -22   7  -5 2847.62 673.195   2
 -15  -7  -5 2143.18 683.910   2
   7  15  -5 1736.26 361.000   2
  -7  22  -5 1938.74 417.303   4
 -22   7  -5 1803.06 592.900   4
 -15  -7  -5 2052.64 737.957   4
  15 -22  -5 3162.94 626.989   1
  15 -22  -2 9136.86 976.630   1
   7  15  -2 8447.54 887.638   3
  -7  22  -2 5474.20 382.343   2
 -22   7  -2 9231.33 1022.75   4
   7  15  -2 7715.09 672.454   2
 -15  -7  -2 9262.08 1021.91   4
 -22   7  -2 8468.74 935.361   2
  22 -15  -2 6850.48 361.349   3
  -7  22  -2 6838.34 441.543   2
 -15  -7  -2 9084.81 957.782   2
   7  15   1 332.789 457.193   3
  -7  22   1 666.185 443.550   3
  22 -15   1 635.292 305.370   3
  15 -22   1 907.776 576.978   1
 -22   7   1 689.913 416.375   4
 -15  -7   1 822.044 445.799   4
 -22   7   1 1083.75 505.642   2
  22 -15   1 895.972 536.996   1
 -15  -7   1 745.649 404.840   2
   7  15   4 1710.85 637.219   3
  -7  22   4 1059.84 571.454   3
 -15  -7   4 557.904 514.564   1
 -22   7   4 1238.74 442.938   4
 -15  -7   4 2123.76 527.654   4
 -22   7   4 2450.62 622.490   2
  22 -15   4 577.435 1261.38   3
 -15  -7   4 1860.03 504.130   2
  22 -15   4 1219.98 706.695   1
  15 -22   4 2083.29 823.594   1
   7  15   7 1095.55 593.910   3
  -7  22   7 1625.64 701.699   3
 -22   7   7 859.989 463.520   4
 -15  -7   7 945.888 668.815   1
 -22   7   7 1192.56 574.415   2
 -15  -7   7 1053.42 392.529   4
  22 -15   7 1143.66 645.680   1
 -15  -7   7 521.628 398.961   2
  22 -15   7-909.991 2119.27   3
  15 -22   7 1756.16 819.673   1
 -22   8  -9 1776.16 774.700   2
 -22   8  -9 4367.59 924.976   4
 -22   8  -6 1656.77 620.596   2
 -14  -8  -6 1689.76 682.074   2
 -14  -8  -6 1321.33 350.989   1
 -22   8  -6 1691.45 610.320   4
  -8  22  -6 1460.73 380.545   4
 -14  -8  -6 2056.56 681.126   4
 -14  -8  -3 6330.53 851.210   2
  14 -22  -3 8632.67 924.964   1
  -8  22  -3 5720.75 679.516   4
 -22   8  -3 8993.48 984.976   4
 -14  -8  -3 6631.29 982.827   4
 -22   8  -3 6998.61 897.086   2
   8  14  -3 6600.78 621.948   2
  22 -14   0 2784.11 355.155   3
   8  14   0 2921.29 620.869   3
  -8  22   0 2976.30 623.809   3
  22 -14   0 2879.47 694.870   1
  -8  22   0 2750.41 430.254   2
  14 -22   0 1778.61 607.855   1
 -22   8   0 3866.84 695.933   4
 -14  -8   0 3417.38 685.845   4
 -22   8   0 2510.52 558.641   2
 -14  -8   0 3625.04 610.416   2
  -8  22   3 12015.2 1098.71   3
 -14  -8   3 11417.7 1167.11   1
  14 -22   3 12263.3 1231.86   1
 -14  -8   3 12992.9 1029.47   4
 -22   8   3 13141.3 1072.93   4
 -22   8   3 11859.2 1063.97   2
  22 -14   3 13640.9 1286.89   1
 -14  -8   3 12445.3 963.592   2
   8  14   3 11782.4 1091.81   3
   8  14   6 1518.54 652.537   3
  -8  22   6 2585.91 716.477   3
 -14  -8   6 1335.36 587.341   1
 -22   8   6 1774.27 550.889   4
 -22   8   6 2857.10 700.263   2
 -14  -8   6 2024.03 541.961   2
 -14  -8   6 1787.58 445.662   4
  14 -22   6 2187.07 825.852   1
  22 -14   6 1085.04 606.193   1
  22 -14   9 5982.64 1053.90   1
 -22   8   9 4497.64 767.874   4
 -22   8   9 3817.68 838.822   2
 -14  -8   9 4846.10 732.522   2
 -14  -8   9 4159.79 1051.29   1
  14 -22   9 3303.65 936.377   1
   8  14   9 6631.96 1193.10   3
  -8  22   9 6253.34 1084.26   3
 -22   9  -7 1812.69 659.624   2
  -9  22  -7 659.728 273.529   4
 -22   9  -7 1967.27 642.158   4
 -13  -9  -4 6048.61 881.013   2
 -13  -9  -4 4879.86 635.269   1
 -13  -9  -4 7024.24 676.625   1
  -9  22  -4 5439.49 657.945   4
   9  13  -4 4992.70 556.251   2
  13 -22  -4 6252.56 793.824   1
 -22   9  -4 6314.15 883.144   4
 -22   9  -4 7410.84 906.578   2
   9  13  -1 3597.86 607.070   3
 -13  -9  -1 2623.69 601.104   2
  -9  22  -1 3143.99 644.252   3
 -13  -9  -1 3565.21 639.354   1
  -9  22  -1 3552.81 400.772   2
 -22   9  -1 3967.05 697.673   4
 -13  -9  -1 3508.16 712.128   4
  13 -22  -1 4276.85 728.438   1
 -22   9  -1 3611.29 656.851   2
  22 -13  -1 2953.61 203.854   3
   9  13   2 7384.57 866.440   3
  -9  22   2 8053.83 902.475   3
  22 -13   2 7878.81 1033.30   1
 -13  -9   2 7223.21 860.196   1
  13 -22   2 8964.89 1048.58   1
 -22   9   2 6240.96 796.008   4
 -22   9   2 7604.98 892.981   2
 -13  -9   2 8014.71 878.988   4
 -13  -9   2 8005.08 776.290   2
   9  13   5 297.330 514.521   3
  -9  22   5 1262.75 502.830   3
  22 -13   5-18.9431 477.708   1
 -22   9   5 454.982 432.382   4
 -13  -9   5-526.156 610.782   1
 -22   9   5 554.465 452.705   2
 -13  -9   5 132.792 326.979   4
  22 -13   5 830.189 1561.54   3
  13 -22   5 1188.30 680.818   1
 -13  -9   5-29.4262 333.976   2
 -22   9   8 5575.19 801.614   4
 -22   9   8 7470.35 1104.30   2
  22 -13   8 8046.20 1110.64   1
 -13  -9   8 6134.04 757.840   2
 -13  -9   8 4988.10 1005.34   1
  13 -22   8 3903.11 929.645   1
   9  13   8 6069.84 1094.06   3
  -9  22   8 6954.77 1056.55   3
 -22  10  -8 1471.40 619.193   2
 -22  10  -8 1257.90 626.153   4
 -12 -10  -5 1135.03 388.770   1
 -22  10  -5 2299.97 618.671   2
 -12 -10  -5 2331.17 636.622   2
 -10  22  -5 1472.82 422.847   4
 -12 -10  -5 1500.36 353.502   1
 -22  10  -5 2041.28 653.513   4
  12 -22  -5 1547.10 475.141   1
 -12 -10  -5 1602.17 701.137   4
 -12 -10  -2 5372.20 731.889   2
  10  12  -2 5899.08 698.106   3
 -10  22  -2 5714.10 762.281   4
 -12 -10  -2 5602.15 658.459   1
 -10  22  -2 4485.07 389.978   2
 -22  10  -2 6085.94 803.119   4
 -12 -10  -2 6375.38 871.033   4
 -22  10  -2 5401.90 752.411   2
  12 -22  -2 6738.03 866.698   1
  10  12   1 2770.08 581.606   3
 -10  22   1 2731.59 550.783   3
 -10  22   1 2702.40 493.858   2
 -12 -10   1 3288.14 685.549   1
 -22  10   1 2818.89 601.231   4
 -22  10   1 3163.37 604.708   2
 -12 -10   1 2874.48 592.584   4
 -12 -10   1 2616.81 535.958   2
  12 -22   1 3338.56 741.859   1
  22 -12   1 2790.69 657.126   1
 -10  22   4 4178.25 741.735   3
  12 -22   4 6788.70 1020.81   1
 -12 -10   4 7936.88 1028.23   1
 -22  10   4 5131.03 768.867   4
 -22  10   4 3938.43 724.261   2
 -12 -10   4 4459.06 638.882   4
 -12 -10   4 4965.99 610.230   2
  22 -12   4 5302.97 840.502   1
  10  12   4 5689.96 795.399   3
 -10  22   7 269.152 533.613   3
  22 -12   7 1183.90 583.858   1
 -22  10   7-215.048 489.222   4
 -22  10   7 588.091 572.840   2
 -12 -10   7-287.925 591.879   1
  12 -22   7 960.934 704.883   1
  22 -12   7 7.58868 1165.32   3
 -12 -10   7 1233.41 438.287   2
  10  12   7-170.749 569.035   3
 -22  11  -9 6427.15 1087.29   2
 -22  11  -9 6626.33 971.735   4
 -22  11  -6 325.860 518.034   2
 -11  22  -6 1320.32 382.298   4
 -22  11  -6 357.265 440.690   4
 -11 -11  -6 618.228 211.106   1
 -11 -11  -3 7937.19 957.336   2
 -11  22  -3 8459.91 821.763   4
 -11 -11  -3 10400.1 827.417   1
 -22  11  -3 10189.7 1001.42   4
 -11  22  -3 6557.23 356.926   2
 -11 -11  -3 10533.5 1122.56   4
 -22  11  -3 10710.1 1001.59   2
  11 -22  -3 11069.5 998.611   1
 -11 -11   0 317.229 380.256   2
  11  11   0 100.981 366.870   3
  22 -11   0-122.044 159.548   3
 -11  22   0 360.421 396.005   3
 -11  22   0 165.823 395.738   4
 -11  22   0 21.3033 300.003   2
 -11 -11   0 266.845 399.234   1
 -22  11   0-267.012 373.161   4
 -11 -11   0 108.919 401.507   4
 -22  11   0 175.128 372.808   2
  22 -11   0 157.497 164.897   3
  11 -22   0-28.1758 521.749   1
 -11  22   3 11416.7 998.834   3
  11 -22   3 9768.97 1090.05   1
 -11 -11   3 8686.84 1023.02   1
 -22  11   3 11113.0 1005.71   4
 -22  11   3 11370.6 1045.65   2
 -11 -11   3 10348.3 897.020   4
 -11 -11   3 9956.22 799.042   2
  22 -11   3 10807.0 1119.48   1
  11  11   3 10390.2 1001.11   3
  11  11   6 1652.91 707.623   3
 -11  22   6 815.799 502.022   3
 -22  11   6 986.785 407.586   4
 -22  11   6 754.904 552.271   2
  11 -22   6 1660.52 750.124   1
 -11 -11   6 1371.92 730.523   1
  22 -11   6 121.784 505.376   1
  22 -11   6 366.851 1006.37   3
 -11 -11   6 417.138 346.815   2
  11 -22   9 5428.19 1132.85   1
 -22  11   9 5558.51 857.692   4
 -11 -11   9 5917.63 1120.98   1
 -22  11   9 5752.54 1009.88   2
  22 -11   9 7600.46 1326.07   3
  22 -11   9 6016.19 957.980   1
  11  11   9 8975.57 1285.71   3
 -11  22   9 6945.54 1044.65   3
 -22  12  -7 1177.53 578.777   2
 -12  22  -7 347.113 328.877   4
 -22  12  -7-44.2673 447.010   4
  10 -22  -4 5626.53 718.494   1
 -10 -12  -4 5303.33 898.102   2
 -12  22  -4 4354.06 614.174   4
 -10 -12  -4 5273.44 569.037   1
 -22  12  -4 5562.80 816.859   4
 -22  12  -4 5590.95 779.353   2
 -10 -12  -1 3548.51 610.666   2
  10 -22  -1 1943.52 542.410   1
  12  10  -1 3303.73 558.378   3
 -22  12  -1 2226.63 556.278   4
 -12  22  -1 3002.74 622.899   4
 -10 -12  -1 3559.67 601.297   1
 -12  22  -1 2179.84 370.291   2
 -22  12  -1 3514.56 651.238   2
 -10 -12  -1 2635.82 639.289   4
 -12  22   2 4231.21 689.653   3
  10 -22   2 5224.59 860.769   1
 -12  22   2 5116.64 801.724   4
 -12  22   2 5278.65 699.916   2
 -22  12   2 5769.34 748.765   4
 -22  12   2 6103.43 836.361   2
 -10 -12   2 4561.87 724.405   1
 -10 -12   2 5676.69 724.254   4
  22 -10   2 5862.14 622.809   3
 -10 -12   2 6058.28 669.521   2
  12  10   2 6373.79 775.181   3
  12  10   5 1275.03 635.224   3
 -12  22   5 1970.12 574.226   3
  22 -10   5 3193.42 785.235   1
 -22  12   5 1283.36 509.364   4
  10 -22   5 2651.49 803.042   1
 -22  12   5 1080.81 533.585   2
 -10 -12   5 2422.83 738.350   1
  22 -10   5 2641.96 708.222   3
 -10 -12   5 1217.22 377.856   2
 -12  22   8-146.677 551.377   3
 -12  22   8 145.265 669.800   4
 -22  12   8 635.337 474.051   4
  10 -22   8 135.543 667.955   1
 -22  12   8 1113.63 651.865   2
 -10 -12   8 168.916 641.601   1
  22 -10   8-167.431 682.109   3
  22 -10   8 909.485 580.801   1
  12  10   8 899.863 747.758   3
 -22  13  -8 6776.46 954.380   2
 -22  13  -8 6977.62 970.353   4
 -22  13  -5 302.330 414.722   2
  -9 -13  -5 457.190 301.124   1
 -13  22  -5 642.193 388.789   4
 -22  13  -5 108.124 419.982   4
  -9 -13  -5 216.226 274.124   1
   9 -22  -5 329.790 370.934   1
 -13  22  -2 9258.27 595.814   2
  -9 -13  -2 9694.89 975.964   2
  13   9  -2 8540.11 774.762   3
 -13  22  -2 7072.74 811.389   4
  -9 -13  -2 10230.9 865.072   1
 -22  13  -2 9431.74 952.906   4
   9 -22  -2 8035.64 859.391   1
 -22  13  -2 8202.49 888.217   2
  13   9   1 3184.22 588.809   3
 -13  22   1 3357.43 630.247   3
   9 -22   1 3796.28 761.436   1
 -13  22   1 3170.00 611.869   4
 -22  13   1 2792.48 615.448   4
 -13  22   1 2317.33 469.560   2
 -22  13   1 3484.35 626.671   2
  -9 -13   1 3671.70 646.076   1
  22  -9   1 3482.58 402.855   3
  -9 -13   1 3063.60 528.717   2
   9 -22   4 8016.40 1065.48   1
 -13  22   4 7674.89 855.595   3
 -13  22   4 6086.60 817.348   2
 -13  22   4 7210.73 948.005   4
 -22  13   4 7253.49 880.654   4
  -9 -13   4 6652.02 931.283   1
 -22  13   4 8007.17 951.129   2
  22  -9   4 9575.07 1022.55   1
  22  -9   4 7121.28 847.388   3
  -9 -13   4 6422.69 656.055   2
  13   9   4 8051.99 927.034   3
 -13  22   7 1635.81 622.125   3
 -22  13   7 1103.36 562.472   4
 -13  22   7 3307.36 820.522   4
   9 -22   7 1038.26 680.371   1
 -22  13   7 1523.22 621.108   2
 -13  22   7 709.169 605.769   2
  -9 -13   7 975.660 650.331   1
  22  -9   7 2159.68 670.872   1
  22  -9   7 1631.17 749.599   3
  -9 -13   7 1637.64 387.602   2
  13   9   7 435.665 609.830   3
 -22  14  -9 4442.06 873.584   2
 -22  14  -9 4307.06 840.101   4
   8 -22  -6 773.001 357.742   1
 -14  22  -6 1391.27 423.705   4
 -22  14  -6 1065.04 537.500   4
 -14  22  -3 11605.3 966.153   4
 -22  14  -3 12601.3 1082.38   4
  -8 -14  -3 13532.4 902.501   1
   8 -22  -3 13832.8 1041.29   1
 -14  22  -3 12750.6 651.057   2
 -22  14  -3 13192.5 1053.09   2
  14   8   0 3342.83 536.760   3
  -8 -14   0 3072.61 514.925   2
 -14  22   0 2938.73 582.313   3
 -14  22   0 3548.47 636.739   4
 -14  22   0 3283.57 490.267   2
 -22  14   0 3083.50 625.407   4
  -8 -14   0 4099.40 686.191   1
 -22  14   0 4217.46 663.092   2
   8 -22   0 3053.47 636.924   1
  22  -8   0 2858.43 234.871   3
   8 -22   3 7116.25 1010.30   1
 -14  22   3 8072.64 860.236   3
 -14  22   3 5896.78 864.701   4
 -14  22   3 5935.76 756.722   2
 -22  14   3 7811.30 881.133   4
  -8 -14   3 7793.38 970.310   1
 -22  14   3 8147.65 939.821   2
  22  -8   3 8135.13 776.924   3
  -8 -14   3 6044.08 586.925   2
  14   8   3 8911.87 901.735   3
 -22  14   6 1576.77 239.573   3
 -14  22   6 932.661 464.530   3
 -14  22   6 659.804 570.605   4
 -14  22   6 1889.25 655.360   2
  22  -8   6 1382.95 568.916   1
   8 -22   6 1738.17 724.775   1
 -22  14   6 1647.10 615.290   4
  -8 -14   6 1373.72 628.573   1
 -22  14   6 1786.02 625.686   2
  22  -8   6 2760.87 770.069   3
  -8 -14   6 1732.71 372.091   2
  14   8   6 2299.24 680.568   3
 -14  22   9 3931.16 862.792   3
  22  -8   9 3561.99 776.477   1
 -14  22   9 2450.43 784.928   4
 -14  22   9 3843.54 992.535   2
 -22  14   9 3282.55 749.183   4
   8 -22   9 4204.72 1088.56   1
 -22  14   9 2561.69 866.061   2
  -8 -14   9 2352.95 900.662   1
  22  -8   9 3286.30 1008.44   3
  14   8   9 2779.41 935.555   3
 -22  15  -7 707.236 540.356   2
 -15  22  -7 704.412 387.611   4
 -22  15  -7 1604.48 582.016   4
 -15  22  -4 1181.68 461.000   4
 -22  15  -4 1080.54 484.843   4
   7 -22  -4 988.601 438.301   1
 -15  22  -4 881.913 249.711   2
 -22  15  -4 2423.17 566.406   2
  -7 -15  -4 1691.48 391.887   1
  15   7  -1 999.429 343.943   3
  -7 -15  -1 513.151 415.226   2
 -15  22  -1 912.553 422.718   4
 -22  15  -1 840.837 436.983   4
 -15  22  -1 1185.73 349.645   2
  -7 -15  -1 378.841 385.451   1
   7 -22  -1 230.761 464.361   1
 -22  15  -1 401.527 426.410   2
  -7 -15   2 10111.3 743.596   2
 -15  22   2 8504.04 820.493   3
 -15  22   2 7128.25 895.505   4
 -15  22   2 7734.87 825.779   2
 -22  15   2 8938.76 992.031   4
  -7 -15   2 9436.45 1019.85   1
 -22  15   2 9058.44 938.572   2
  22  -7   2 7682.27 682.982   3
  15   7   2 9846.62 906.686   3
   7 -22   2 7822.52 1019.02   1
 -15  22   5 2925.41 606.395   3
 -22  15   5 2279.08 244.816   3
 -15  22   5 2157.36 648.237   4
 -15  22   5 2598.26 713.093   2
   7 -22   5 2539.36 745.579   1
 -22  15   5 2661.39 650.588   4
 -22  15   5 2020.60 650.338   2
  -7 -15   5 2460.70 721.436   1
  22  -7   5 2738.55 671.290   3
  -7 -15   5 2325.42 385.565   2
  15   7   5 2549.29 662.091   3
 -22  15   8 401.765 563.209   4
 -15  22   8 1247.12 629.160   3
 -15  22   8 243.803 543.304   4
 -22  15   8 723.184 634.929   2
   7 -22   8 1430.80 751.557   1
 -15  22   8 995.612 693.341   2
  -7 -15   8 69.2196 621.442   1
  22  -7   8 451.330 678.831   3
  15   7   8 159.386 668.813   3
 -22  16  -8 4879.86 849.943   2
 -16  22  -8 5696.37 658.570   4
 -22  16  -8 5931.04 877.664   4
 -22  16  -5 1678.37 547.550   2
   6 -22  -5 1253.78 423.412   1
 -16  22  -5 802.624 251.899   2
  -6 -16  -5 361.640 238.880   1
 -16  22  -5 263.657 395.202   4
 -22  16  -5 919.190 468.942   4
  16   6  -2 13341.9 856.935   3
   6 -22  -2 14266.0 1101.53   1
 -16  22  -2 11156.3 1027.15   4
 -22  16  -2 12404.8 1084.01   4
 -16  22  -2 12146.4 763.671   2
  -6 -16  -2 13366.8 990.618   1
 -22  16  -2 13283.9 1046.61   2
  16   6   1 775.303 384.613   3
  -6 -16   1 965.167 382.631   2
 -16  22   1 84.6394 352.960   3
 -16  22   1 1090.25 524.581   4
 -22  16   1 577.670 504.406   4
   6 -22   1 448.876 521.124   1
 -16  22   1 1042.84 414.799   2
 -22  16   1 888.740 414.444   2
  -6 -16   1 1150.56 530.859   1
  22  -6   1 567.411 260.478   3
  -6 -16   4 5314.00 492.731   2
 -16  22   4 5817.41 721.301   3
 -16  22   4 4677.57 795.116   4
 -16  22   4 7151.39 916.271   2
 -22  16   4 6638.84 867.315   4
 -22  16   4 7174.53 927.286   2
  -6 -16   4 7133.02 989.188   1
  22  -6   4 5532.44 727.280   3
   6 -22   4 5980.67 1039.77   1
  16   6   4 7551.59 898.070   3
 -16  22   7 732.660 498.585   3
   6 -22   7 1176.96 724.322   1
 -16  22   7 498.976 530.280   4
 -16  22   7 1827.77 741.680   2
 -22  16   7 1267.70 586.506   4
 -22  16   7 1150.16 616.965   2
  -6 -16   7 1096.11 672.888   1
  22  -6   7 923.518 668.599   3
  16   6   7-198.990 685.117   3
 -22  17  -9 3566.83 768.024   4
 -22  17  -6 904.672 431.248   2
 -17  22  -6 928.742 273.541   2
 -17  22  -6 1008.10 404.602   4
 -22  17  -6 417.728 465.728   4
   5 -22  -6 624.372 287.346   1
 -17  22  -3 5514.18 744.237   4
   5 -22  -3 5690.07 749.522   1
 -22  17  -3 6039.46 823.942   4
 -17  22  -3 5462.80 550.414   2
  -5 -17  -3 6212.05 660.971   1
 -22  17  -3 4817.97 692.985   2
  17   5   0 4501.68 569.153   3
 -17  22   0 3069.99 632.405   4
 -22  17   0 4101.55 722.459   4
 -17  22   0 4026.61 571.412   2
 -22  17   0 4642.49 667.967   2
  -5 -17   0 5509.19 763.629   1
  22  -5   0 4610.54 337.941   3
   5 -22   0 4070.77 736.427   1
 -17  22   3 5246.85 771.805   2
  -5 -17   3 3046.25 443.903   2
 -17  22   3 4443.07 637.343   3
 -17  22   3 3853.88 750.801   4
 -22  17   3 5918.74 850.181   4
 -22  17   3 4110.74 741.653   2
  -5 -17   3 4746.09 857.952   1
  22  -5   3 4674.26 634.110   3
   5 -22   3 4815.99 849.025   1
  17   5   3 4009.52 653.141   3
 -17  22   6 921.094 470.588   3
 -22  17   6 790.094 317.619   3
   5 -22   6 24.3519 584.837   1
 -17  22   6 711.386 536.555   4
 -17  22   6-586.598 561.166   2
 -22  17   6 145.135 552.123   2
 -22  17   6 31.8676 437.115   4
  -5 -17   6 1342.79 673.472   1
  22  -5   6 645.389 574.293   3
  17   5   6 341.420 604.795   3
 -17  22   9 1956.79 670.035   3
   5 -22   9 2185.77 864.819   1
 -17  22   9 2788.68 894.355   2
 -22  17   9 586.079 606.728   4
 -22  17   9 805.169 758.320   2
 -17  22   9 325.146 571.630   4
  22  -5   9 1479.22 811.766   3
  -5 -17   9 1861.22 867.770   1
 -22  18  -7 682.193 483.661   2
 -18  22  -7 1249.51 470.286   4
 -22  18  -7 623.452 487.146   4
   4 -22  -4 311.770 364.041   1
  -4 -18  -4 730.131 359.094   1
 -18  22  -4 218.022 376.499   4
 -22  18  -4 301.475 375.111   4
 -18  22  -4 319.096 296.410   2
 -22  18  -4 582.371 374.719   2
   4 -22  -1 4457.04 718.138   1
  18   4  -1 2800.95 438.994   3
 -18  22  -1 2452.14 577.608   4
 -22  18  -1 2149.82 604.011   4
 -18  22  -1 2895.06 514.473   2
 -22  18  -1 2123.14 528.901   2
  -4 -18  -1 2449.37 540.070   1
  18   4   2 2969.53 516.381   3
 -18  22   2 2221.07 512.422   3
   4 -22   2 2434.32 698.528   1
 -18  22   2 2289.45 601.204   4
 -22  18   2 2999.77 642.778   2
 -22  18   2 2956.50 667.504   4
 -18  22   2 1997.03 542.196   2
  -4 -18   2 2694.18 704.223   1
  22  -4   2 1626.64 380.934   3
 -18  22   5 5555.70 700.420   3
 -22  18   5 5746.58 519.656   3
 -18  22   5 6371.36 922.742   4
 -18  22   5 5965.35 876.639   2
 -22  18   5 4794.07 800.929   4
 -22  18   5 5264.72 872.359   2
  -4 -18   5 5434.98 949.545   1
   4 -22   5 4650.61 908.157   1
  22  -4   5 6220.62 866.892   3
  18   4   5 5641.16 878.670   3
 -18  22   8 621.761 546.411   3
   4 -22   8-677.604 774.102   1
 -18  22   8 843.246 626.447   4
 -18  22   8 6.65783 632.812   2
 -22  18   8 1258.05 617.524   4
 -22  18   8-716.657 664.872   2
  22  -4   8-745.176 679.778   3
  18   4   8 598.430 687.954   3
  -4 -18   8-988.791 710.966   1
 -22  19  -8 1311.95 531.037   2
 -19  22  -8 1376.73 529.214   4
 -22  19  -8 2926.90 677.060   4
 -22  19  -5 120.878 384.668   2
 -19  22  -5 253.736 324.311   2
 -19  22  -5 560.979 432.516   4
 -22  19  -5 190.988 420.897   4
   3 -22  -5 344.061 339.531   1
  -3 -19  -5 73.4070 274.830   1
   3 -22  -2 14955.8 1102.30   1
 -22  19  -2 13306.8 1140.63   4
 -19  22  -2 12134.8 893.362   2
 -22  19  -2 13083.4 1040.67   2
  -3 -19  -2 13693.9 1006.14   1
 -19  22  -2 12950.1 1108.60   4
   3 -22   1 2821.12 680.975   1
 -19  22   1 3628.52 691.582   4
 -22  19   1 3544.09 718.683   4
 -19  22   1 3538.50 655.656   2
 -22  19   1 2833.90 597.317   2
  -3 -19   1 4714.69 744.319   1
  22  -3   1 2914.86 421.540   3
  19   3   1 3267.75 529.748   3
 -19  22   4 7138.88 740.398   3
 -22  19   4 6366.68 561.793   3
   3 -22   4 4287.33 874.074   1
 -19  22   4 7198.33 952.784   2
 -19  22   4 6308.32 884.837   4
 -22  19   4 5519.48 831.787   4
 -22  19   4 6581.43 957.110   2
  -3 -19   4 6259.33 1037.34   1
  22  -3   4 7766.98 889.204   3
  19   3   4 6152.71 822.263   3
 -19  22   7 1309.70 545.750   3
 -22  19   7 773.829 393.750   3
 -22  19   7 1129.70 613.929   4
   3 -22   7 106.195 659.787   1
 -19  22   7 209.304 568.112   2
 -19  22   7 738.766 545.454   4
 -22  19   7 1098.66 662.950   2
  22  -3   7-89.8106 571.521   3
  19   3   7 1470.47 682.649   3
  -3 -19   7 151.445 609.168   1
 -22  20  -6 118.019 424.363   2
 -20  22  -6 1082.88 391.777   2
 -20  22  -6 433.554 403.402   4
 -22  20  -6 645.722 500.711   4
  -2 -20  -3 1076.19 427.356   1
 -20  22  -3 1201.44 499.531   4
 -22  20  -3 1617.50 520.370   4
   2 -22  -3 1016.90 500.029   1
 -20  22  -3 650.128 345.135   2
 -22  20  -3 1411.94 473.826   2
  -2 -20   0-400.742 487.681   1
  22  -2   0 179.877 257.870   3
  20   2   0-15.3902 282.208   3
   2 -22   0 350.294 510.651   1
 -20  22   0 714.465 492.346   4
 -22  20   0 1287.17 584.130   4
 -20  22   0 140.958 374.509   2
 -22  20   0 594.029 425.948   2
  20   2   3 2814.44 568.872   3
   2 -22   3 2199.58 720.223   1
 -20  22   3 3041.14 524.717   3
 -22  20   3 3420.39 700.729   4
 -20  22   3 3340.26 741.888   2
 -20  22   3 3333.51 732.343   4
 -22  20   3 3077.43 686.584   2
  22  -2   3 3191.25 541.905   3
  -2 -20   3 2421.83 678.135   1
   2 -22   6 1702.77 784.574   1
 -20  22   6 333.022 442.412   3
 -20  22   6 647.305 557.911   4
 -22  20   6 768.312 390.233   3
 -22  20   6 937.729 611.300   4
 -20  22   6 713.394 611.803   2
 -22  20   6-99.8091 543.955   2
  22  -2   6 1375.50 637.541   3
  20   2   6 543.914 547.463   3
  -2 -20   6-27.0083 608.280   1
  -2 -20   9 1202.26 763.408   1
 -20  22   9 1092.37 583.950   3
   2 -22   9 2779.84 1027.38   1
 -20  22   9 2048.67 833.317   4
 -22  20   9 3439.16 841.129   4
 -20  22   9 1341.06 784.549   2
 -22  20   9 3126.83 945.011   2
  22  -2   9 1917.03 903.780   3
  20   2   9 3397.41 973.338   3
 -21  22  -7 4078.47 615.632   2
 -22  21  -7 3542.68 608.598   2
 -21  22  -7 4560.31 746.980   4
 -22  21  -7 4951.90 787.537   4
 -21  22  -4 1209.91 512.342   4
 -22  21  -4 976.162 489.067   4
  -1 -21  -4 1633.53 482.349   1
   1 -22  -4 333.258 358.288   1
 -21  22  -4 1514.16 448.244   2
 -22  21  -4 338.792 367.616   2
  21   1  -1 8259.46 565.143   3
  22  -1  -1 8083.24 472.876   3
 -21  22  -1 9417.71 1003.65   4
 -22  21  -1 8587.52 972.514   4
 -21  22  -1 7274.06 768.230   2
 -22  21  -1 7176.40 831.790   2
  -1 -21  -1 8377.97 898.360   1
   1 -22  -1 7940.62 921.772   1
  22  -1   2 2301.87 472.189   3
  -1 -21   2 3404.36 698.310   1
   1 -22   2 2629.07 732.055   1
 -21  22   2 3828.63 745.488   4
 -22  21   2 2546.78 655.477   4
 -21  22   2 3166.93 654.132   2
 -22  21   2 2077.32 619.633   2
  21   1   2 3472.78 582.651   3
 -21  22   5 5008.16 666.048   3
   1 -22   5 3958.05 894.870   1
 -22  21   5 4665.91 596.237   3
 -21  22   5 4434.35 854.376   4
 -22  21   5 4810.42 891.785   2
 -22  21   5 2237.77 668.815   4
 -21  22   5 2708.83 748.608   2
  -1 -21   5 5166.78 996.268   1
  22  -1   5 4164.01 758.560   3
  21   1   5 4900.69 801.341   3
  -1 -21   8-217.038 717.601   1
 -21  22   8-289.814 495.493   3
   1 -22   8 926.563 799.522   1
 -21  22   8 1299.25 659.622   4
 -22  21   8-236.528 562.173   4
 -21  22   8-349.594 740.657   2
 -22  21   8 462.656 747.882   2
  22  -1   8-235.214 637.885   3
  21   1   8-500.861 775.068   3
 -22  22  -8 7948.81 952.298   4
 -22  22  -5 392.542 371.505   2
   0 -22  -5 223.561 336.740   1
 -22  22  -5-282.203 423.712   4
   0 -22  -2 3388.72 661.045   1
 -22  22  -2 1932.90 555.812   4
 -22  22  -2 3053.53 562.973   2
  22   0   1 263.228 342.812   3
   0 -22   1-207.329 464.659   1
 -22  22   1 2.34170 428.673   4
 -22  22   1-163.040 437.006   2
 -22  22   4 7305.13 706.176   3
 -22  22   4 6661.40 970.954   4
 -22  22   4 7954.47 990.016   2
   0 -22   4 7212.62 1078.83   1
  22   0   4 8707.18 942.679   3
   0 -22   7 314.340 735.784   1
 -22  22   7 310.126 447.852   3
 -22  22   7 148.176 599.625   4
 -22  22   7-193.044 632.172   2
  22   0   7 119.551 615.258   3
 -23   0  -8 5486.81 1159.76   2
 -23   0  -8 5987.22 1112.59   4
 -23   0  -5 737.691 558.113   2
 -23   0  -5-333.466 691.951   4
 -23   0  -2 4090.73 789.555   2
  23 -23  -2 6760.50 1047.87   1
   0  23  -2 4746.58 848.717   3
 -23   0  -2 5115.78 923.315   4
   0  23   1 560.506 593.165   3
 -23   0   1-665.712 515.646   4
  23 -23   1-288.050 580.471   1
 -23   0   1 496.151 489.634   2
   0  23   4 6170.78 965.087   3
 -23   0   4 8376.20 987.413   4
 -23   0   4 7066.44 941.026   2
  23 -23   4 6691.41 1145.52   1
   0  23   7 523.888 658.324   3
 -23   0   7 281.253 474.320   4
 -23   0   7 781.085 497.867   2
  23 -23   7 1348.96 896.218   1
 -23   1  -6 396.613 603.885   2
 -22  -1  -6 358.055 646.951   2
  -1  23  -6-217.049 367.355   4
 -23   1  -6 1047.14 694.918   4
 -22  -1  -6 125.615 601.715   4
 -23   1  -3 1761.87 619.472   2
 -22  -1  -3 3367.34 764.826   2
  23 -22  -3 2262.68 718.398   1
  22 -23  -3 1886.55 718.483   1
 -23   1  -3 1577.08 647.133   4
 -22  -1  -3 2331.48 710.911   4
   1  22   0 5560.80 891.320   3
  -1  23   0 4240.04 783.346   3
 -23   1   0 5464.52 897.717   4
 -22  -1   0 4479.54 780.189   4
  23 -22   0 4706.11 977.200   1
 -22  -1   0 7040.02 1475.46   3
 -23   1   0 5046.16 878.214   2
 -22  -1   0 4200.49 783.243   2
  22 -23   0 3730.09 902.755   1
  22 -23   3 1473.37 744.147   1
   1  22   3 282.516 547.859   3
  -1  23   3 2370.92 684.946   3
  23 -22   3 1448.50 678.279   1
 -23   1   3 1090.81 548.501   4
 -22  -1   3 958.815 506.221   4
 -23   1   3 1260.75 517.952   2
 -22  -1   3 1606.31 551.378   2
   1  22   6 806.746 637.494   3
  -1  23   6 856.262 642.026   3
 -23   1   6 742.146 556.521   4
 -22  -1   6 801.443 536.018   4
 -23   1   6 1926.21 623.533   2
  22 -23   6 1040.31 769.892   1
 -22  -1   6 738.641 529.778   2
  23 -22   6 5.68248 694.579   1
 -23   2  -7 2497.02 839.681   2
 -21  -2  -7 3744.33 979.789   2
 -23   2  -7 3742.02 904.131   4
 -21  -2  -7 4565.59 1000.54   4
 -23   2  -4 1763.38 648.373   2
 -21  -2  -4 2464.02 720.343   2
  21 -23  -4 2929.06 704.290   1
 -23   2  -4 3396.97 846.537   4
 -21  -2  -4 2459.93 721.301   4
   2  21  -1 8144.46 1007.51   3
  -2  23  -1 6572.67 962.626   3
  21 -23  -1 8227.87 1064.05   1
 -23   2  -1 7823.90 980.957   4
 -21  -2  -1 6779.81 1014.73   4
   2  21  -1 5132.68 600.576   2
 -23   2  -1 8012.39 1063.73   2
  -2  23  -1 4506.01 545.446   2
 -21  -2  -1 8005.43 1018.27   2
  23 -21  -1 7405.55 1062.65   1
  23 -21  -1 5768.97 645.773   3
  21 -23   2 3069.27 768.544   1
   2  21   2 3957.15 807.734   3
  -2  23   2 3332.53 757.639   3
 -21  -2   2 3964.59 768.979   4
 -23   2   2 2933.17 695.807   4
  23 -21   2 2834.76 824.524   1
 -23   2   2 2713.00 680.330   2
 -21  -2   2 2169.27 600.756   2
   2  21   5 4942.42 954.262   3
  -2  23   5 7518.19 1062.02   3
 -23   2   5 5477.60 806.183   4
 -21  -2   5 4530.63 727.297   4
 -23   2   5 5849.74 919.515   2
 -21  -2   5 5844.20 858.442   2
  21 -23   5 6233.75 1093.20   1
  23 -21   5 5925.62 1043.77   1
   2  21   8-1051.04 828.217   3
  -2  23   8-99.8829 641.647   3
 -21  -2   8 184.471 666.088   1
  21 -23   8-1350.41 929.471   1
 -23   2   8 546.581 509.135   4
 -23   2   8-517.844 560.717   2
 -21  -2   8 648.240 623.295   2
  23 -21   8-1253.22 2056.43   3
  23 -21   8-370.483 753.706   1
 -23   3  -8 208.421 671.197   2
 -20  -3  -8 1009.99 787.181   2
 -23   3  -8 386.035 672.804   4
 -20  -3  -8-118.257 649.604   4
 -23   3  -5 1060.59 617.891   2
 -20  -3  -5 1439.97 693.957   2
  -3  23  -5 715.500 405.166   4
 -23   3  -5 539.477 551.260   4
 -20  -3  -5 76.4437 590.633   4
   3  20  -2 7086.03 925.296   3
  23 -20  -2 5920.17 966.190   1
  -3  23  -2 6838.11 926.588   3
 -23   3  -2 7278.93 971.848   4
  20 -23  -2 7788.00 1042.68   1
 -20  -3  -2 5634.93 917.550   4
   3  20  -2 4720.67 517.502   2
  -3  23  -2 3964.62 398.678   2
 -23   3  -2 6327.46 901.438   2
 -20  -3  -2 8024.82 980.773   2
  23 -20  -2 5479.68 574.719   3
  23 -20   1 491.209 584.883   1
  20 -23   1-4.62395 601.696   1
   3  20   1-363.343 552.280   3
  -3  23   1-570.713 522.842   3
 -23   3   1 152.853 426.150   4
 -20  -3   1 619.963 459.082   4
 -23   3   1-243.551 477.176   2
 -20  -3   1-350.636 350.851   3
 -20  -3   1-50.0260 505.643   2
   3  20   4 1412.22 685.052   3
  -3  23   4 585.247 563.013   3
  23 -20   4 412.363 591.571   1
 -20  -3   4 2449.44 655.412   4
  20 -23   4 1387.13 675.855   1
 -23   3   4 1944.23 576.041   4
 -23   3   4 1322.16 559.044   2
 -20  -3   4 2283.50 595.697   2
   3  20   7 523.213 671.085   3
  -3  23   7-137.175 630.188   3
  23 -20   7 61.9375 636.911   1
 -20  -3   7-93.2720 685.284   1
  20 -23   7-79.6279 642.318   1
 -23   3   7 547.355 536.573   4
 -20  -3   7-248.617 441.249   4
 -23   3   7-439.127 589.560   2
 -20  -3   7-149.312 427.763   2
 -23   4  -9 111.104 674.205   2
 -23   4  -9-562.698 691.143   4
 -19  -4  -9-852.237 832.662   4
 -19  -4  -6 7277.83 1173.31   2
  -4  23  -6 3705.46 533.867   4
 -23   4  -6 5876.13 1023.92   4
 -19  -4  -6 7509.97 1122.98   4
 -23   4  -6 7555.26 1071.59   2
 -23   4  -3 1169.13 558.450   2
 -19  -4  -3 1938.30 642.060   2
  19 -23  -3 230.344 514.386   1
   4  19  -3 491.217 283.073   2
 -23   4  -3 1431.36 628.361   4
 -19  -4  -3 354.490 495.060   4
  23 -19  -3 872.627 321.711   3
  23 -19   0 10463.0 796.962   3
   4  19   0 9025.70 1014.51   3
  -4  23   0 10144.7 1067.73   3
 -23   4   0 13378.2 1177.94   4
 -19  -4   0 11292.7 1124.64   4
 -23   4   0 13366.3 1183.56   2
 -19  -4   0 10682.1 858.619   3
 -19  -4   0 11935.5 1094.03   2
  23 -19   0 13474.9 1343.37   1
  -4  23   0 6922.50 731.275   2
  19 -23   0 14663.2 1359.48   1
   4  19   3 444.557 547.499   3
  -4  23   3 438.819 523.673   3
  19 -23   3 1392.68 698.428   1
 -23   4   3-236.879 427.643   4
 -19  -4   3 122.014 409.548   4
 -23   4   3 638.152 516.292   2
  23 -19   3 306.078 569.426   1
 -19  -4   3 748.771 466.593   2
 -19  -4   3-91.8632 327.613   3
  23 -19   6 5037.49 1040.24   1
  -4  23   6 3645.27 809.266   3
 -19  -4   6 5367.13 1004.08   1
 -23   4   6 5483.15 771.292   4
 -23   4   6 4296.66 805.434   2
 -19  -4   6 4587.82 708.831   4
  19 -23   6 5386.79 1068.83   1
 -19  -4   6 4897.11 790.502   2
  23 -19   6 1631.12 1745.37   3
   4  19   6 4633.04 965.428   3
   4  19   9 100.044 665.320   3
  -4  23   9 200.972 723.472   3
  23 -19   9 134.766 771.921   1
  19 -23   9 690.036 778.591   1
 -23   4   9 658.199 738.418   1
 -19  -4   9 498.311 779.062   1
 -23   4   9 472.277 737.349   2
 -19  -4   9 726.721 563.400   2
  23 -19   9 311.599 2639.55   3
 -23   5  -7 4825.03 928.010   2
 -18  -5  -7 3692.80 953.119   2
 -23   5  -7 4614.84 933.847   4
 -18  -5  -7 4495.44 908.822   4
 -23   5  -4 1538.74 608.435   2
 -18  -5  -4 1630.93 721.318   2
 -23   5  -4 878.224 618.389   4
 -18  -5  -4-44.0681 569.873   4
  18 -23  -4 1206.43 623.042   1
  18 -23  -1 13089.0 1260.88   1
   5  18  -1 13055.5 1131.73   3
  -5  23  -1 12060.0 1145.38   3
  23 -18  -1 14825.3 1339.95   1
 -23   5  -1 13227.4 1210.43   4
 -18  -5  -1 13641.3 1256.89   4
 -23   5  -1 12459.0 1166.90   2
 -18  -5  -1 14349.5 1207.85   2
  -5  23  -1 10330.9 722.127   2
  23 -18  -1 11836.0 709.449   3
   5  18   2 5359.15 883.354   3
  -5  23   2 4247.53 789.610   3
 -23   5   2 5358.09 814.806   4
  18 -23   2 3998.70 871.904   1
  23 -18   2 5079.31 893.164   1
 -18  -5   2 4732.68 733.890   4
 -23   5   2 4602.99 785.811   2
 -18  -5   2 6105.40 775.538   2
 -18  -5   2 3429.83 515.807   3
  -5  23   5 8918.16 1096.76   3
  23 -18   5 7694.06 1129.28   1
 -18  -5   5 10483.0 1230.16   1
 -23   5   5 11940.4 1059.60   4
  18 -23   5 11106.4 1310.26   1
 -23   5   5 12101.5 1172.79   2
 -18  -5   5 11201.8 997.037   4
 -18  -5   5 9339.53 956.421   2
   5  18   5 10235.7 1162.92   3
   5  18   8 594.497 684.629   3
  -5  23   8 914.412 686.019   3
  18 -23   8 176.161 677.681   1
  23 -18   8 301.389 627.146   1
 -18  -5   8 515.200 670.731   1
 -23   5   8-39.0242 459.418   4
 -23   5   8 927.003 684.298   2
 -18  -5   8 256.319 467.545   2
  23 -18   8 112.790 2422.10   3
 -23   6  -8 1048.88 683.045   2
 -23   6  -8 671.106 640.938   4
 -17  -6  -8 79.0807 679.449   4
 -23   6  -5 2026.85 667.219   2
 -17  -6  -5 2326.94 699.424   2
  -6  23  -5 880.462 394.264   4
  17 -23  -5 2610.66 619.239   1
 -23   6  -5 2367.70 716.096   4
 -17  -6  -5 1084.42 678.046   4
  -6  23  -2 1179.65 250.888   2
 -17  -6  -2 1434.67 562.732   2
   6  17  -2 1304.88 539.201   3
  -6  23  -2 815.017 222.462   2
 -23   6  -2 1138.06 572.768   4
  17 -23  -2 1766.12 622.796   1
 -17  -6  -2 956.853 602.860   4
   6  17  -2 706.158 347.853   2
  23 -17  -2 1031.46 243.036   3
 -23   6  -2 1313.03 546.136   2
   6  17   1-263.577 468.597   3
  23 -17   1 162.208 342.070   3
  -6  23   1 113.201 440.430   3
 -23   6   1 45.7879 445.986   4
  17 -23   1 570.791 581.571   1
  23 -17   1 130.238 485.363   1
 -17  -6   1 114.265 458.606   4
 -23   6   1 198.007 416.790   2
 -17  -6   1 18.7670 363.178   3
 -17  -6   1 115.264 412.294   2
   6  17   4 3634.00 756.222   3
  -6  23   4 2836.06 711.616   3
  17 -23   4 3075.35 783.015   1
 -17  -6   4 4746.44 911.247   1
 -23   6   4 1963.40 590.946   4
 -17  -6   4 3272.77 600.003   4
 -23   6   4 3239.39 683.277   2
 -17  -6   4 4469.42 683.488   2
  23 -17   4 2156.42 720.159   1
   6  17   7 1167.31 776.430   3
  17 -23   7-375.072 702.200   1
  -6  23   7 967.139 691.339   3
 -17  -6   7 1617.45 732.838   1
 -23   6   7 543.316 475.394   4
  23 -17   7 840.004 664.192   1
 -23   6   7 800.115 556.085   2
 -17  -6   7 198.208 384.568   4
  23 -17   7 1241.91 1928.82   3
 -17  -6   7 1075.78 518.170   2
 -23   7  -9-295.246 641.924   2
 -23   7  -9 15.3182 628.739   4
 -16  -7  -6 9406.42 1257.15   2
 -16  -7  -6 10523.9 765.435   1
  -7  23  -6 8368.66 711.122   4
 -23   7  -6 13527.5 1329.82   4
 -16  -7  -6 12638.1 1396.37   4
 -23   7  -6 12492.1 1274.39   2
 -16  -7  -3 1753.19 611.772   2
  -7  23  -3 2200.88 577.430   4
 -23   7  -3 1300.38 541.004   4
   7  16  -3 863.362 351.818   2
 -16  -7  -3 742.124 614.413   4
  23 -16  -3 261.698 269.973   3
  16 -23  -3 894.017 512.143   1
 -23   7  -3 2481.81 674.818   2
  23 -16   0 9443.50 623.447   3
  -7  23   0 7328.55 681.490   2
   7  16   0 9078.63 957.441   3
  -7  23   0 11421.2 1090.71   3
  23 -16   0 7693.51 987.672   1
 -23   7   0 9971.22 1041.36   4
 -16  -7   0 10596.4 1069.33   4
 -23   7   0 11585.6 1056.05   2
  16 -23   0 9388.72 1080.44   1
 -16  -7   0 10186.5 969.660   2
   7  16   3 138.355 472.124   3
  16 -23   3 351.369 596.304   1
  -7  23   3-82.2437 460.216   3
  23 -16   3 658.061 622.286   1
 -23   7   3 221.209 463.899   4
 -16  -7   3-70.0680 524.459   1
 -16  -7   3 711.745 487.329   4
 -23   7   3 376.961 480.458   2
 -16  -7   3 154.384 364.465   2
  -7  23   6 8293.20 1078.62   3
  23 -16   6 7460.32 1110.69   1
  16 -23   6 6939.23 1145.85   1
 -23   7   6 6545.63 841.474   4
 -23   7   6 6396.55 958.728   2
 -16  -7   6 7599.63 780.730   4
 -16  -7   6 5658.07 756.639   2
 -16  -7   6 5843.96 1014.35   1
   7  16   6 7606.42 1118.69   3
   7  16   9-419.197 673.966   3
  16 -23   9-475.246 804.456   1
  -7  23   9 905.406 697.010   3
 -23   7   9 183.952 453.230   4
 -23   7   9 152.664 613.754   2
 -16  -7   9 1716.62 827.078   1
 -16  -7   9-0.68243 445.063   2
  23 -16   9-217.886 623.136   1
 -23   8  -7 4504.45 896.672   2
  -8  23  -7 3227.53 438.700   4
 -23   8  -7 5485.67 913.163   4
 -15  -8  -7 6603.00 1074.91   4
 -15  -8  -4 6075.45 889.368   2
  -8  23  -4 4393.27 630.157   4
   8  15  -4 4739.59 541.326   2
 -23   8  -4 6461.23 907.781   4
 -15  -8  -4 6618.98 1013.19   4
  15 -23  -4 5440.10 801.780   1
 -23   8  -4 5695.20 860.338   2
  -8  23  -1 6729.40 591.970   2
   8  15  -1 8753.88 905.673   3
  -8  23  -1 6854.89 886.369   3
  -8  23  -1 6309.34 539.418   2
 -23   8  -1 8033.28 937.283   4
 -15  -8  -1 9926.89 1083.66   4
 -23   8  -1 9416.13 997.049   2
  15 -23  -1 7318.91 949.765   1
 -15  -8  -1 7802.87 888.258   2
  23 -15  -1 7873.22 421.859   3
   8  15   2 580.425 500.516   3
  15 -23   2 1021.49 649.060   1
  -8  23   2 133.602 438.428   3
  23 -15   2 1020.60 417.547   3
 -23   8   2 80.7146 379.373   4
 -15  -8   2 497.917 413.200   4
 -15  -8   2 1401.95 587.574   1
 -23   8   2 1221.73 518.138   2
  23 -15   2-527.287 1121.49   3
  23 -15   2 892.627 531.731   1
 -15  -8   2 154.509 374.458   2
  -8  23   5 7402.32 974.753   3
 -15  -8   5 6646.23 1020.61   1
  15 -23   5 5573.38 1008.24   1
 -23   8   5 7369.80 907.102   4
 -23   8   5 6607.97 939.669   2
  23 -15   5 6532.64 999.775   1
 -15  -8   5 7195.23 798.046   4
 -15  -8   5 7016.36 783.052   2
   8  15   5 7595.72 1007.38   3
   8  15   8 2198.80 807.479   3
  -8  23   8 2283.49 795.820   3
 -23   8   8 2764.09 698.814   4
 -23   8   8 1611.19 643.118   2
 -15  -8   8 585.845 652.462   1
 -15  -8   8 1162.30 500.275   2
  23 -15   8 1468.41 692.622   1
  15 -23   8 3975.57 1074.89   1
 -23   9  -8 1219.03 659.681   2
 -23   9  -8 900.149 645.515   4
 -23   9  -5 1976.34 637.838   2
 -14  -9  -5 693.485 642.756   2
  -9  23  -5 812.553 384.286   4
 -14  -9  -5 854.496 359.337   1
 -23   9  -5 244.704 499.392   4
 -14  -9  -5 1143.08 595.358   4
  14 -23  -5 393.955 415.472   1
 -14  -9  -2-599.156 468.164   2
  -9  23  -2 149.423 221.013   2
   9  14  -2 432.461 410.022   3
  -9  23  -2 81.9048 377.427   4
 -14  -9  -2 41.9466 370.588   1
  -9  23  -2 154.822 176.163   2
 -23   9  -2 400.726 427.882   4
 -14  -9  -2-122.634 511.543   4
  14 -23  -2-17.9097 470.554   1
 -23   9  -2-291.365 436.115   2
  14 -23   1 3528.86 759.914   1
  23 -14   1 2951.20 429.133   3
   9  14   1 2583.09 607.250   3
  -9  23   1 2404.82 554.101   3
 -14  -9   1 3873.96 758.972   1
 -23   9   1 3745.53 685.052   4
 -23   9   1 3596.91 700.419   2
 -14  -9   1 4577.59 711.910   4
  23 -14   1 3741.25 757.000   1
 -14  -9   1 3736.67 625.089   2
   9  14   4 757.438 561.318   3
  -9  23   4 1002.62 561.354   3
  23 -14   4 189.574 530.485   1
 -14  -9   4 1019.42 576.080   1
 -23   9   4 355.199 436.520   4
 -23   9   4 210.606 472.280   2
 -14  -9   4-193.818 377.294   4
  14 -23   4 757.962 668.102   1
 -14  -9   4 721.358 422.027   2
   9  14   7 384.265 615.616   3
  23 -14   7 85.7701 562.782   1
  -9  23   7 834.989 587.462   3
 -23   9   7 2025.77 707.034   2
 -14  -9   7 1348.92 675.719   1
 -14  -9   7 676.586 374.525   4
  23 -14   7-625.492 1843.54   3
 -14  -9   7 751.716 435.365   2
  14 -23   7 1250.78 780.592   1
 -23   9   7 930.722 492.173   4
 -23  10  -9 545.392 723.288   2
 -23  10  -9 236.934 599.378   4
 -10  23  -6 7972.79 716.065   4
 -13 -10  -6 10415.1 636.707   1
 -23  10  -6 10152.9 1092.97   4
 -23  10  -6 8296.93 1046.13   2
 -10  23  -3 242.846 107.190   2
  13 -23  -3 850.207 507.862   1
 -13 -10  -3 984.061 548.329   2
 -10  23  -3 914.836 453.833   4
 -13 -10  -3 1199.75 431.491   1
 -23  10  -3 1757.32 546.791   4
 -13 -10  -3 320.784 510.660   4
 -23  10  -3 331.018 435.809   2
  23 -13   0 7339.73 447.850   3
  10  13   0 8096.60 866.587   3
 -10  23   0 7397.80 884.320   3
 -10  23   0 6452.70 631.535   2
 -13 -10   0 8150.20 895.136   1
 -23  10   0 5724.23 765.482   4
  13 -23   0 7246.16 942.605   1
 -13 -10   0 7840.27 910.069   4
 -23  10   0 7959.99 905.856   2
 -13 -10   0 6854.05 804.088   2
  10  13   3 1542.63 528.665   3
  23 -13   3 1362.41 567.958   1
 -10  23   3 958.550 492.989   3
 -23  10   3 1290.42 531.142   4
 -23  10   3 1440.59 520.924   2
 -13 -10   3 1414.20 509.319   4
  23 -13   3 58.2846 1255.74   3
  13 -23   3 1324.40 692.444   1
 -13 -10   3-68.8429 538.667   1
 -13 -10   3 529.396 391.416   2
 -10  23   6 4995.20 863.903   3
 -23  10   6 5695.39 832.328   4
  13 -23   6 6700.01 1164.59   1
 -13 -10   6 5639.59 1042.08   1
 -23  10   6 6343.19 944.502   2
 -13 -10   6 6307.49 702.555   4
 -13 -10   6 7494.32 771.253   2
  23 -13   6 5789.44 937.880   1
  10  13   6 5237.73 999.133   3
 -10  23   9 898.502 735.931   3
  23 -13   9 252.057 613.157   1
 -23  10   9-209.696 488.847   4
 -23  10   9 318.875 629.553   2
 -13 -10   9 933.820 819.561   1
  13 -23   9 878.728 819.829   1
  23 -13   9-230.842 1036.11   3
  10  13   9 1058.37 765.126   3
 -23  11  -7 7958.72 1079.36   4
 -23  11  -7 7714.13 1001.56   2
 -12 -11  -4 2048.79 453.249   1
 -12 -11  -4 2874.12 710.465   2
 -11  23  -4 1242.11 455.400   4
 -23  11  -4 2196.67 631.974   4
 -12 -11  -4 2206.95 683.982   4
  12 -23  -4 1303.98 485.263   1
 -23  11  -4 1878.84 570.541   2
  11  12  -1 8292.45 825.906   3
 -11  23  -1 6984.24 826.165   4
 -12 -11  -1 10417.1 945.332   1
 -11  23  -1 6691.12 563.589   2
 -23  11  -1 9289.79 968.337   4
  12 -23  -1 8974.94 970.276   1
 -12 -11  -1 8688.93 983.783   4
 -23  11  -1 8245.12 903.923   2
 -12 -11  -1 8329.47 885.678   2
  11  12   2 10207.1 977.013   3
 -11  23   2 11737.1 1038.75   3
 -11  23   2 8458.30 823.896   2
  12 -23   2 11606.0 1188.82   1
 -12 -11   2 11619.3 1129.09   1
 -23  11   2 9990.18 1012.01   4
 -23  11   2 10684.6 1008.36   2
  23 -12   2 12277.6 1165.56   1
 -12 -11   2 11885.4 1048.82   4
 -12 -11   2 11208.4 917.255   2
 -11  23   5 4815.86 814.411   3
  12 -23   5 6082.11 1005.44   1
 -23  11   5 5305.94 825.972   4
 -23  11   5 5136.84 865.367   2
 -12 -11   5 4225.97 821.472   1
 -12 -11   5 4296.34 629.726   4
 -12 -11   5 4150.48 593.664   2
  23 -12   5 4049.97 839.459   1
  11  12   5 4504.60 825.822   3
 -11  23   8 1729.57 659.559   3
 -23  11   8 625.313 455.435   4
 -23  11   8 2004.58 743.066   2
  23 -12   8 1838.13 721.985   1
 -12 -11   8 1351.30 722.624   1
  12 -23   8 2548.13 911.377   1
  23 -12   8 1348.56 858.627   3
 -12 -11   8 1504.79 459.670   2
  11  12   8 1206.69 721.239   3
 -23  12  -8 1198.13 593.026   2
 -23  12  -8 1953.43 697.950   4
 -23  12  -5 2902.51 646.419   2
 -11 -12  -5 3542.39 457.092   1
 -23  12  -5 4211.99 743.902   4
  11 -23  -5 4015.43 635.485   1
 -12  23  -5 2335.11 489.766   4
 -11 -12  -2 10087.5 1003.74   2
  12  11  -2 9141.11 855.768   3
 -11 -12  -2 10904.0 910.625   1
 -23  12  -2 10998.8 1062.24   4
 -12  23  -2 7479.68 533.539   2
  11 -23  -2 10087.1 982.037   1
 -11 -12  -2 9915.74 1108.37   4
 -23  12  -2 12833.4 1086.15   2
 -12  23  -2 9665.16 913.814   4
  12  11   1 6742.81 795.258   3
 -12  23   1 8591.31 893.569   3
 -12  23   1 8074.42 936.322   4
  11 -23   1 9561.87 1062.95   1
 -12  23   1 7128.70 728.499   2
 -11 -12   1 7587.56 902.724   1
 -23  12   1 6182.90 820.361   4
 -23  12   1 8046.70 914.544   2
 -11 -12   1 9173.94 959.329   4
  23 -11   1 8203.65 599.520   3
 -11 -12   1 7830.60 801.112   2
  12  11   4 1950.85 626.576   3
 -12  23   4 1915.60 581.665   3
 -12  23   4 2372.58 626.108   2
 -23  12   4 1688.23 504.034   4
 -11 -12   4 2159.20 696.319   1
 -23  12   4 1368.37 537.180   2
  11 -23   4 1049.96 649.127   1
 -11 -12   4 2141.64 516.170   4
  23 -11   4 2396.76 669.616   1
  23 -11   4 1548.92 690.214   3
 -11 -12   4 2744.61 493.316   2
  23 -11   7 9072.25 1116.76   1
  11 -23   7 7516.70 1200.13   1
 -23  12   7 7299.25 926.275   4
 -23  12   7 7063.70 1021.89   2
  23 -11   7 8952.71 1210.09   3
 -11 -12   7 6898.53 684.986   2
 -11 -12   7 7822.49 1173.83   1
  12  11   7 6454.64 1085.76   3
 -12  23   7 7952.49 1044.58   3
 -23  13  -9 429.563 649.821   2
 -23  13  -9 325.104 620.714   4
 -13  23  -6 4411.99 606.178   4
  10 -23  -6 4279.00 607.783   1
 -23  13  -6 5827.43 863.851   4
 -10 -13  -6 3933.67 325.856   1
 -23  13  -6 4900.91 812.748   2
 -10 -13  -3 2215.67 644.020   2
 -23  13  -3 2311.52 659.098   4
  10 -23  -3 1738.59 537.172   1
 -10 -13  -3 1441.69 431.350   1
 -13  23  -3 1150.32 238.205   2
 -23  13  -3 937.309 452.928   2
 -13  23  -3 519.575 432.510   4
 -10 -13   0 8155.43 829.828   2
  13  10   0 7128.76 745.471   3
  23 -10   0 7635.12 353.186   3
 -13  23   0 5109.79 758.285   3
 -13  23   0 6926.74 876.999   4
  10 -23   0 7533.74 951.051   1
 -10 -13   0 6772.73 818.188   1
 -23  13   0 8106.90 919.955   4
 -23  13   0 6335.78 804.087   2
 -10 -13   0 5938.94 874.860   4
  23 -10   0 6902.04 347.775   3
 -13  23   0 6631.50 663.429   2
  13  10   3 402.902 420.454   3
 -10 -13   3 1283.94 402.333   2
 -13  23   3 1277.15 490.406   3
 -13  23   3 1611.99 565.141   4
 -13  23   3 1001.69 431.848   2
 -23  13   3 1691.47 544.601   4
 -10 -13   3 1808.10 632.544   1
  10 -23   3 1424.47 672.165   1
 -23  13   3 2178.47 584.497   2
  23 -10   3 1125.52 453.011   3
 -13  23   6 10536.3 1067.13   3
  10 -23   6 8201.05 1145.72   1
 -13  23   6 8025.45 1099.77   2
 -13  23   6 7633.44 1113.23   4
 -23  13   6 10606.0 1041.53   4
  23 -10   6 11913.0 1154.18   1
 -10 -13   6 10042.9 1281.60   1
 -23  13   6 10787.9 1197.30   2
  23 -10   6 10726.0 1151.74   3
 -10 -13   6 10604.4 772.419   2
  13  10   6 11070.5 1240.64   3
 -13  23   9 880.758 661.922   3
 -13  23   9 576.592 642.152   4
 -23  13   9-196.053 589.598   2
 -13  23   9 971.857 704.489   2
 -23  13   9 572.126 591.108   4
  10 -23   9 1965.35 916.155   1
  23 -10   9 164.134 544.794   1
 -10 -13   9 909.279 879.143   1
  23 -10   9 1040.25 790.068   3
  13  10   9-794.847 786.463   3
 -14  23  -7 1126.59 404.059   4
 -23  14  -7 889.378 523.743   2
 -23  14  -7 896.200 528.043   4
 -14  23  -4 324.386 348.871   4
 -23  14  -4-15.6927 424.928   4
  -9 -14  -4 149.743 323.280   1
 -23  14  -4 363.172 494.918   2
 -14  23  -4 288.058 164.632   2
   9 -23  -4 765.739 474.009   1
  -9 -14  -1 3133.32 646.520   2
  14   9  -1 3420.19 551.389   3
 -14  23  -1 3493.24 659.416   4
 -14  23  -1 3022.38 457.022   2
 -23  14  -1 3050.89 614.450   4
 -23  14  -1 4355.55 673.560   2
  -9 -14  -1 4015.83 600.885   1
   9 -23  -1 3364.48 706.873   1
  14   9   2 800.828 489.598   3
  -9 -14   2 435.850 342.494   2
 -14  23   2 244.101 400.695   3
 -14  23   2 260.284 473.702   4
 -14  23   2 273.507 380.462   2
 -23  14   2 188.110 421.213   4
   9 -23   2-148.404 513.531   1
  -9 -14   2-2.25834 438.388   1
 -23  14   2 408.936 428.601   2
  23  -9   2 221.147 310.876   3
  14   9   5 625.429 568.576   3
  -9 -14   5 632.099 305.931   2
 -14  23   5 1981.38 566.198   3
 -14  23   5 1071.98 574.271   2
 -14  23   5 799.370 570.862   4
 -23  14   5 365.518 433.629   4
   9 -23   5 2155.00 763.815   1
 -23  14   5 778.744 538.785   2
  -9 -14   5 1357.58 667.917   1
  23  -9   5-221.743 452.782   1
  23  -9   5 882.815 529.718   3
 -14  23   8 1487.29 702.899   3
 -14  23   8 579.250 659.042   4
 -14  23   8 54.9853 678.828   2
 -23  14   8 1121.16 548.349   4
   9 -23   8 1049.10 814.794   1
 -23  14   8 734.476 621.933   2
  23  -9   8 1065.45 586.979   1
  -9 -14   8-990.387 797.143   1
  23  -9   8 1579.41 818.242   3
  14   9   8 1686.62 800.530   3
 -23  15  -8 2914.93 716.771   2
 -23  15  -8 2762.69 703.423   4
 -15  23  -5 4909.40 332.530   2
   8 -23  -5 6096.55 698.010   1
 -15  23  -5 6608.44 738.020   4
 -23  15  -5 7695.84 961.092   4
  -8 -15  -5 6555.51 561.557   1
 -23  15  -5 6696.37 854.288   2
   8 -23  -2 1161.22 512.865   1
  15   8  -2 465.798 349.561   3
  -8 -15  -2 1281.85 495.813   2
 -15  23  -2 693.807 445.609   4
 -23  15  -2 1211.27 504.297   4
 -15  23  -2 431.913 259.145   2
  -8 -15  -2 677.858 414.877   1
 -23  15  -2 636.373 461.074   2
  15   8   1 6396.33 741.824   3
  -8 -15   1 6916.28 718.952   2
   8 -23   1 7170.48 932.800   1
 -15  23   1 8532.08 848.798   3
 -15  23   1 7833.78 944.884   4
 -15  23   1 5758.41 683.746   2
 -23  15   1 7753.25 890.884   4
  -8 -15   1 8113.18 903.752   1
 -23  15   1 5700.71 770.055   2
  23  -8   1 7323.21 531.832   3
 -15  23   4 6075.15 809.470   3
 -15  23   4 6102.30 897.313   4
 -15  23   4 5504.43 832.895   2
 -23  15   4 7019.22 862.351   4
 -23  15   4 7941.15 1018.80   2
  -8 -15   4 7373.28 1056.22   1
  23  -8   4 6455.98 765.212   3
  -8 -15   4 5621.28 579.395   2
  15   8   4 7630.58 914.290   3
   8 -23   4 5503.54 944.138   1
 -15  23   7 5211.89 825.956   3
 -15  23   7 2961.66 787.798   4
 -15  23   7 3673.47 933.421   2
 -23  15   7 5201.86 886.911   4
 -23  15   7 6906.26 1080.13   2
  23  -8   7 4847.76 930.072   3
  -8 -15   7 4841.63 1030.79   1
  15   8   7 4992.75 929.076   3
   8 -23   7 6330.68 1113.62   1
 -23  16  -9 261.532 563.012   2
 -23  16  -9 300.685 522.103   4
 -16  23  -6 5894.65 715.001   4
 -23  16  -6 7291.11 907.544   4
 -23  16  -6 7166.47 866.515   2
   7 -23  -6 5024.48 550.799   1
   7 -23  -3 600.163 474.356   1
 -16  23  -3-70.2072 355.891   4
 -23  16  -3 1327.63 551.915   4
 -16  23  -3-33.0396 240.539   2
 -23  16  -3 125.674 387.844   2
  -7 -16  -3 872.845 411.794   1
  16   7   0 10360.5 844.805   3
   7 -23   0 9141.07 999.908   1
  -7 -16   0 9078.32 905.969   2
 -16  23   0 9831.69 810.291   2
 -16  23   0 8369.44 940.475   4
 -23  16   0 8706.52 943.965   4
  -7 -16   0 10908.4 1015.15   1
 -23  16   0 8210.13 904.408   2
  23  -7   0 9208.17 390.240   3
  16   7   3 1137.49 474.809   3
  -7 -16   3 1177.35 370.366   2
 -16  23   3 262.630 388.373   3
 -16  23   3 605.740 483.721   4
 -16  23   3 724.700 510.094   2
   7 -23   3 1556.31 696.628   1
 -23  16   3 1190.56 551.423   4
 -23  16   3 723.948 471.131   2
  -7 -16   3 307.451 492.203   1
  23  -7   3 604.603 363.278   3
 -16  23   6 10746.0 1040.95   3
 -16  23   6 11391.5 1242.58   4
 -16  23   6 10270.1 1245.78   2
 -23  16   6 11255.5 1206.53   4
 -23  16   6 11081.9 1228.68   2
  -7 -16   6 11196.2 1323.77   1
  23  -7   6 11545.3 1171.72   3
  16   7   6 10579.9 1184.95   3
  -7 -16   6 10448.8 617.104   2
   7 -23   6 9686.57 1306.78   1
 -16  23   9 1400.61 685.525   3
 -16  23   9 636.614 686.966   4
 -23  16   9-123.946 528.666   4
   7 -23   9 112.356 714.798   1
 -23  16   9 1991.45 821.961   2
 -16  23   9-308.087 665.679   2
  23  -7   9 286.754 730.602   3
  -7 -16   9 2.50833 793.825   1
  16   7   9 1320.03 758.998   3
 -23  17  -7 557.529 451.881   2
 -17  23  -7 445.338 402.741   4
 -23  17  -7 1569.72 589.251   4
 -17  23  -4 3110.33 632.925   4
   6 -23  -4 2185.31 499.796   1
 -23  17  -4 3752.37 714.219   4
  -6 -17  -4 3510.46 516.912   1
 -17  23  -4 3355.86 445.288   2
 -23  17  -4 4484.18 669.024   2
  17   6  -1-19.1705 317.805   3
 -17  23  -1-762.435 442.209   4
 -23  17  -1 202.538 410.313   4
 -17  23  -1 201.514 294.239   2
   6 -23  -1 394.734 505.297   1
 -23  17  -1-8.56691 360.045   2
  -6 -17  -1 184.089 404.807   1
  17   6   2 857.141 414.979   3
 -17  23   2 902.947 453.905   2
  -6 -17   2 931.827 321.422   2
 -17  23   2 309.281 409.546   3
 -17  23   2 1127.53 537.086   4
 -23  17   2 1594.25 608.682   4
   6 -23   2 781.854 539.775   1
 -23  17   2 74.2663 424.017   2
  -6 -17   2 1095.58 572.059   1
  23  -6   2 1172.72 380.693   3
 -17  23   5 1425.07 505.122   3
  -6 -17   5 1171.22 283.537   2
 -23  17   5 1314.32 244.218   3
   6 -23   5 1448.90 740.574   1
 -17  23   5 1125.44 629.540   4
 -17  23   5 112.992 470.801   2
 -23  17   5 1900.07 651.128   2
  -6 -17   5 2626.46 811.746   1
  23  -6   5 1420.49 576.803   3
 -23  17   5 827.116 494.947   4
  17   6   5 1226.81 542.753   3
 -23  17   8 556.199 602.101   4
 -23  17   8 704.798 608.786   2
 -17  23   8 1079.13 603.584   3
 -17  23   8 381.229 604.541   4
   6 -23   8 160.472 685.560   1
 -17  23   8 775.700 708.090   2
  23  -6   8 724.345 676.471   3
  -6 -17   8 1923.86 801.421   1
  17   6   8 2543.99 849.455   3
 -23  18  -8 518.311 517.395   2
 -18  23  -8-136.086 406.836   4
 -23  18  -8-108.653 477.641   4
  -5 -18  -5 8937.47 646.554   1
 -18  23  -5 9158.21 908.442   4
 -23  18  -5 10453.2 1063.40   4
 -23  18  -5 9714.98 950.938   2
 -18  23  -5 10383.2 696.908   2
   5 -23  -5 8050.34 740.966   1
  18   5  -2 3501.81 485.741   3
   5 -23  -2 4488.67 691.440   1
 -18  23  -2 4155.64 732.319   4
 -23  18  -2 4393.26 753.031   4
 -18  23  -2 4346.34 562.298   2
  -5 -18  -2 4466.96 668.415   1
 -23  18  -2 2748.21 583.830   2
  18   5   1 14126.8 981.007   3
 -18  23   1 13566.6 1193.43   4
 -23  18   1 11111.4 1114.29   4
 -23  18   1 13332.7 1121.29   2
 -18  23   1 14699.1 1069.64   2
  -5 -18   1 12106.7 1151.63   1
  23  -5   1 13725.8 738.326   3
   5 -23   1 12708.3 1184.07   1
  18   5   4 1665.13 552.214   3
 -18  23   4 920.621 460.829   3
   5 -23   4-439.554 623.202   1
 -18  23   4 745.964 616.800   4
 -23  18   4 900.260 538.536   4
 -18  23   4 572.153 499.797   2
 -23  18   4 1132.90 586.094   2
  -5 -18   4 788.523 599.352   1
  23  -5   4 751.596 459.254   3
 -18  23   7 4350.18 755.696   3
   5 -23   7 4804.86 1016.54   1
 -18  23   7 4324.66 953.598   4
 -23  18   7 3854.88 843.204   4
 -18  23   7 2615.26 828.507   2
 -23  18   7 3793.91 906.181   2
  23  -5   7 3469.39 804.521   3
  18   5   7 4719.76 964.919   3
  -5 -18   7 2258.46 780.208   1
 -23  19  -9 902.889 596.396   4
 -19  23  -6 5336.56 742.301   4
 -23  19  -6 5334.17 807.599   4
 -23  19  -6 6036.16 787.328   2
 -19  23  -6 5569.38 550.465   2
  -4 -19  -3 305.998 404.174   1
 -19  23  -3 242.363 441.735   4
 -23  19  -3 495.282 470.991   4
 -19  23  -3 126.063 305.558   2
   4 -23  -3 551.707 451.525   1
 -23  19  -3 583.763 427.282   2
  23  -4   0 11401.5 548.286   3
  19   4   0 12034.0 842.167   3
 -19  23   0 11283.3 1086.85   4
 -23  19   0 13022.9 1175.28   4
 -19  23   0 10865.7 921.300   2
 -23  19   0 12156.7 1073.23   2
  -4 -19   0 12134.6 1107.84   1
   4 -23   0 11541.4 1139.55   1
  19   4   3 789.141 457.228   3
 -19  23   3 1178.81 437.165   3
   4 -23   3 1644.20 685.948   1
 -19  23   3 510.391 500.164   4
 -23  19   3 1398.75 583.306   4
 -19  23   3 729.671 515.594   2
 -23  19   3 1184.42 518.534   2
  -4 -19   3 1005.21 563.340   1
  23  -4   3 726.965 427.729   3
 -19  23   6 5318.92 754.473   3
 -23  19   6 5106.51 552.741   3
 -19  23   6 4353.90 931.900   4
 -19  23   6 7187.64 1049.40   2
 -23  19   6 4312.07 844.383   4
  -4 -19   6 5607.63 1031.99   1
 -23  19   6 6287.87 1013.02   2
  23  -4   6 5957.76 910.667   3
   4 -23   6 5700.20 1077.18   1
  19   4   6 6985.73 1022.18   3
  -4 -19   9 245.664 744.933   1
 -19  23   9 595.405 644.219   3
   4 -23   9 950.019 823.444   1
 -19  23   9 466.054 628.357   4
 -19  23   9 1502.07 799.873   2
 -23  19   9-334.350 627.529   4
 -23  19   9 1709.92 860.778   2
  23  -4   9 418.734 765.007   3
  19   4   9 875.425 846.632   3
 -23  20  -7-384.888 471.493   2
 -20  23  -7 963.349 520.278   4
 -23  20  -7-301.907 482.236   4
   3 -23  -4 567.918 419.802   1
  -3 -20  -4 723.705 409.781   1
 -20  23  -4 1521.94 472.952   4
 -23  20  -4 108.448 400.855   4
 -20  23  -4 671.718 352.570   2
 -23  20  -4 558.305 408.247   2
  -3 -20  -1 196.874 409.511   1
  20   3  -1 216.517 262.619   3
 -20  23  -1 830.378 505.205   4
   3 -23  -1-49.8055 443.538   1
 -23  20  -1 458.309 490.627   4
 -20  23  -1-83.8182 324.606   2
 -23  20  -1 686.276 476.462   2
 -20  23   2 6485.08 732.420   3
 -20  23   2 5977.76 886.727   4
 -23  20   2 6484.44 955.210   4
 -20  23   2 7245.77 861.702   2
 -23  20   2 7920.37 930.087   2
  -3 -20   2 7332.90 996.747   1
   3 -23   2 6796.83 947.103   1
  23  -3   2 7306.50 679.484   3
  20   3   2 7620.89 786.147   3
   3 -23   5 1717.48 758.126   1
 -20  23   5 1200.84 474.555   3
 -23  20   5 1112.37 368.800   3
 -20  23   5 377.251 529.851   4
 -23  20   5 746.855 549.253   4
 -20  23   5 324.662 530.584   2
 -23  20   5-125.828 537.829   2
  23  -3   5 666.225 554.185   3
  -3 -20   5 1147.36 730.031   1
  20   3   5 386.736 471.672   3
  -3 -20   8-206.769 704.542   1
 -20  23   8 1101.17 561.108   3
   3 -23   8 2455.83 877.663   1
 -20  23   8 2061.16 745.157   4
 -23  20   8 862.433 611.263   4
 -20  23   8-656.033 729.213   2
 -23  20   8 874.490 718.716   2
  23  -3   8 684.808 742.789   3
  20   3   8 996.539 760.966   3
 -21  23  -8 231.530 465.611   4
 -23  21  -8 58.2738 499.693   4
  -2 -21  -5 2810.04 485.717   1
 -21  23  -5 4138.34 694.575   4
 -23  21  -5 5024.36 813.662   4
   2 -23  -5 3056.23 523.411   1
 -23  21  -5 5196.92 703.964   2
 -21  23  -5 5198.33 650.428   2
   2 -23  -2 3163.43 658.253   1
 -21  23  -2 2567.33 668.495   4
 -23  21  -2 1483.50 573.208   4
 -21  23  -2 1382.18 446.878   2
 -23  21  -2 2104.33 539.198   2
  -2 -21  -2 3602.53 660.681   1
  21   2   1 6832.35 701.563   3
 -21  23   1 7357.52 958.777   4
 -23  21   1 6751.69 943.142   4
 -21  23   1 6605.25 835.837   2
 -23  21   1 7697.04 955.406   2
  -2 -21   1 8926.94 1011.36   1
   2 -23   1 7422.36 1007.96   1
  23  -2   1 7331.67 622.119   3
   2 -23   4 2314.98 750.290   1
 -21  23   4 1883.64 471.975   3
 -23  21   4 1690.98 404.393   3
 -21  23   4 3084.82 794.287   4
 -23  21   4 1299.32 656.556   4
 -21  23   4 1574.81 642.424   2
 -23  21   4 2168.06 675.718   2
  23  -2   4 2166.95 570.525   3
  -2 -21   4 2969.43 803.431   1
  21   2   4 2358.32 598.411   3
  -2 -21   7 3285.50 916.466   1
 -21  23   7 4061.35 699.777   3
   2 -23   7 2692.05 932.530   1
 -21  23   7 3153.17 815.989   4
 -21  23   7 3405.02 886.564   2
 -23  21   7 3608.39 859.720   4
 -23  21   7 3711.79 922.384   2
  23  -2   7 3809.21 907.672   3
  21   2   7 3505.43 823.848   3
 -23  22  -6-86.1487 413.608   2
 -22  23  -6 154.455 385.962   2
 -22  23  -6 213.992 434.211   4
 -23  22  -6 990.651 521.191   4
  -1 -22  -3 598.123 466.159   1
 -22  23  -3 172.946 455.219   4
 -23  22  -3 1739.44 611.546   4
   1 -23  -3 1891.48 562.447   1
 -22  23  -3 1008.70 424.896   2
 -23  22  -3 461.940 360.450   2
  23  -1   0 4681.78 454.886   3
  22   1   0 4383.61 496.864   3
  -1 -22   0 3259.10 713.218   1
   1 -23   0 3555.29 722.960   1
 -22  23   0 4131.46 759.359   4
 -23  22   0 5547.86 899.862   4
 -22  23   0 3790.60 686.096   2
 -23  22   0 4447.27 694.243   2
  22   1   3 1919.00 526.625   3
  -1 -22   3 2805.23 759.658   1
   1 -23   3 3254.75 815.202   1
 -22  23   3 1735.29 445.614   3
 -22  23   3 2191.13 663.639   4
 -23  22   3 1559.08 592.304   4
 -22  23   3 2038.45 731.474   2
 -23  22   3 993.292 549.630   2
  23  -1   3 1758.66 508.526   3
  -1 -22   6 616.705 696.899   1
   1 -23   6 487.298 690.927   1
 -22  23   6 543.380 438.592   3
 -23  22   6 454.683 402.406   3
 -22  23   6-405.273 511.580   4
 -23  22   6 343.081 512.841   4
 -22  23   6 677.438 593.366   2
 -23  22   6 368.948 574.980   2
  23  -1   6 1780.65 719.624   3
  22   1   6 647.467 583.778   3
 -23  23  -7 95.6124 488.061   4
   0 -23  -4 5009.01 701.208   1
 -23  23  -4 7023.63 920.740   4
 -23  23  -4 5193.33 708.868   2
  23   0  -1 184.941 221.252   3
   0 -23  -1-397.963 472.718   1
 -23  23  -1 228.405 512.352   4
 -23  23  -1 423.274 441.120   2
 -23  23   2 5233.69 890.169   4
 -23  23   2 4640.35 792.429   2
   0 -23   2 5006.10 960.082   1
  23   0   2 5990.82 691.714   3
   0 -23   5 420.015 660.273   1
 -23  23   5-210.260 367.033   3
 -23  23   5 102.304 584.048   4
 -23  23   5 72.2452 565.350   2
  23   0   5 281.868 497.445   3
 -23  23   8 5867.13 1057.78   4
 -23  23   8 7718.76 1259.43   2
   0 -23   8 5912.09 1246.27   1
  23   0   8 6559.92 1119.84   3
 -24   0  -6 3081.21 881.615   2
 -24   0  -6 2234.64 824.594   4
 -24   0  -3-1285.49 715.689   2
 -24   0  -3-170.828 533.567   4
  24 -24  -3 524.548 629.031   1
   0  24   0 9411.80 1117.18   3
  24 -24   0 7346.91 1147.56   1
 -24   0   0 7318.62 1025.60   4
 -24   0   0 8619.11 1071.57   2
   0  24   3-249.412 547.851   3
  24 -24   3 685.541 659.896   1
 -24   0   3-65.2991 471.278   4
 -24   0   3 123.645 503.920   2
   0  24   6-53.3865 619.242   3
 -24   0   6 785.746 548.500   4
 -24   0   6 1282.03 662.317   2
  24 -24   6 1208.01 787.758   1
 -24   1  -7 1686.77 830.575   2
 -23  -1  -7 2519.97 850.356   2
 -24   1  -7 4091.41 1045.21   4
 -23  -1  -7 3543.93 982.191   4
 -24   1  -4 2153.23 671.575   2
 -23  -1  -4 269.115 561.262   2
  23 -24  -4 769.148 566.872   1
 -24   1  -4 840.159 628.137   4
 -23  -1  -4 1549.19 664.899   4
  23 -24  -1 3332.11 799.782   1
   1  23  -1 3150.65 740.598   3
  -1  24  -1 3055.38 817.361   3
  24 -23  -1 2769.21 794.606   1
 -24   1  -1 3532.98 748.101   4
 -23  -1  -1 2982.30 737.401   4
 -24   1  -1 3494.62 766.825   2
 -23  -1  -1 2898.30 733.234   2
   1  23   2 1211.06 601.416   3
  -1  24   2 601.361 568.829   3
  23 -24   2 918.462 686.198   1
 -24   1   2-73.9107 482.480   4
 -23  -1   2 1629.08 583.597   4
  24 -23   2 1617.39 780.153   1
 -24   1   2 1213.85 531.376   2
 -23  -1   2 1942.65 682.183   2
   1  23   5 2609.02 759.780   3
  -1  24   5 3540.86 867.925   3
  24 -23   5 1945.08 804.078   1
 -24   1   5 4359.49 784.172   4
 -23  -1   5 5200.13 837.175   4
 -24   1   5 4495.07 857.326   2
 -23  -1   5 2414.65 703.847   2
  23 -24   5 3584.36 1024.19   1
  24 -23   8 97.9675 813.517   1
   1  23   8 1478.77 801.554   3
  -1  24   8 2040.65 814.747   3
 -24   1   8 878.460 798.907   1
 -23  -1   8 1827.98 945.815   1
 -24   1   8 605.215 598.137   2
 -23  -1   8 248.338 532.282   2
  23 -24   8 1216.49 848.420   1
 -24   2  -8 2505.63 864.720   2
 -22  -2  -8 2618.25 985.998   2
 -24   2  -8 3000.29 938.703   4
 -22  -2  -8 2918.58 918.373   4
 -24   2  -5 3830.70 871.982   2
 -22  -2  -5 2118.17 765.239   2
 -24   2  -5 2808.54 821.720   4
 -22  -2  -5 2774.22 814.120   4
 -22  -2  -2 2376.90 662.047   2
   2  22  -2 495.467 531.193   3
  -2  24  -2 729.609 550.705   3
  22 -24  -2 1550.29 697.962   1
  24 -22  -2 1598.23 709.744   1
 -24   2  -2 1423.74 591.066   4
 -22  -2  -2 2881.02 737.416   4
 -24   2  -2 931.584 543.366   2
  22 -24   1 5798.55 983.520   1
   2  22   1 5893.56 948.185   3
  -2  24   1 6046.87 935.307   3
  24 -22   1 5523.09 1004.29   1
 -24   2   1 5344.38 860.821   4
 -22  -2   1 4244.31 858.172   4
 -24   2   1 5052.35 836.624   2
 -22  -2   1 4098.38 763.337   2
   2  22   4 129.632 568.269   3
  -2  24   4 104.616 629.008   3
  24 -22   4 180.954 643.935   1
 -24   2   4-230.274 484.762   4
 -22  -2   4 399.491 538.404   4
 -24   2   4 228.864 478.342   2
  22 -24   4-522.847 700.012   1
 -22  -2   4 83.1269 488.430   2
   2  22   7 6006.90 1079.64   3
  24 -22   7 4682.86 1094.24   1
 -22  -2   7 5414.32 1110.32   1
 -24   2   7 6019.63 849.251   4
 -22  -2   7 5713.37 857.923   4
 -24   2   7 7257.08 1111.90   2
 -22  -2   7 4973.95 913.561   2
  22 -24   7 5508.92 1165.29   1
  -2  24   7 6413.85 1126.19   3
 -24   3  -6 2665.71 838.846   2
 -21  -3  -6 610.048 603.141   2
  -3  24  -6 784.411 383.409   4
 -24   3  -6 1670.51 780.229   4
 -21  -3  -6 1586.00 720.128   4
 -24   3  -3-100.187 514.068   2
 -21  -3  -3 650.427 578.753   2
 -24   3  -3 1735.42 629.639   4
 -21  -3  -3 1317.70 664.080   4
  21 -24  -3 703.736 545.700   1
   3  21   0 7933.49 968.552   3
  -3  24   0 8308.51 1068.65   3
  21 -24   0 8987.18 1200.99   1
 -24   3   0 8863.88 1048.49   4
 -21  -3   0 10323.5 1133.39   4
 -24   3   0 9418.30 1043.16   2
  24 -21   0 8088.67 1096.67   1
 -21  -3   0 10451.4 1079.27   2
   3  21   3 1630.97 693.883   3
  -3  24   3 3069.90 729.224   3
 -24   3   3 2638.07 665.115   4
 -21  -3   3 1719.58 600.918   4
  24 -21   3 2559.99 819.602   1
 -24   3   3 793.161 503.632   2
  21 -24   3 2852.27 859.779   1
 -21  -3   3 1184.48 521.338   2
   3  21   6 2372.70 866.893   3
  -3  24   6 2049.21 699.433   3
  24 -21   6 2424.93 767.324   1
 -21  -3   6 2583.61 795.998   1
  21 -24   6 3821.52 990.903   1
 -24   3   6 2666.47 681.373   4
 -21  -3   6 2439.88 650.019   4
 -24   3   6 2649.67 695.738   2
 -21  -3   6 2913.42 730.258   2
 -24   4  -7 2129.99 845.425   2
 -20  -4  -7 3098.63 955.463   2
 -20  -4  -7 3692.73 1029.49   4
 -24   4  -7 3975.94 921.170   4
 -24   4  -4 2827.48 780.058   2
 -20  -4  -4 3982.15 815.913   2
  20 -24  -4 3895.21 792.518   1
 -24   4  -4 5049.69 923.340   4
 -20  -4  -4 4411.27 871.833   4
  20 -24  -1 4332.20 868.428   1
   4  20  -1 3823.05 729.438   3
  -4  24  -1 2968.22 700.313   3
  24 -20  -1 4083.64 846.610   1
 -24   4  -1 3386.80 719.982   4
 -20  -4  -1 3825.28 779.269   4
 -24   4  -1 4070.93 774.943   2
  -4  24  -1 2780.10 473.248   2
 -20  -4  -1 3699.88 763.712   2
  24 -20  -1 3276.84 491.753   3
   4  20   2 544.549 504.168   3
  -4  24   2 104.974 471.990   3
 -24   4   2 469.982 539.750   4
 -20  -4   2 539.129 567.667   4
  20 -24   2 290.162 558.178   1
 -24   4   2-284.807 468.983   2
 -20  -4   2-367.724 471.419   2
  24 -20   2 278.191 549.034   1
  -4  24   5 4665.93 897.809   3
   4  20   5 4125.00 907.030   3
  20 -24   5 3752.35 952.368   1
 -24   4   5 5022.52 807.274   4
 -20  -4   5 5118.41 783.012   4
  24 -20   5 3464.95 895.765   1
 -24   4   5 4408.29 820.552   2
 -20  -4   5 4271.95 775.683   2
   4  20   8 2242.24 831.049   3
  -4  24   8 830.073 700.887   3
  24 -20   8 1724.63 820.971   1
  20 -24   8 2733.20 901.841   1
 -20  -4   8 1390.22 812.651   1
 -24   4   8 1336.59 607.309   4
 -24   4   8 761.333 582.396   2
 -20  -4   8 1024.35 529.040   2
  24 -20   8 557.725 2393.37   3
 -24   5  -8 775.255 679.851   2
 -24   5  -8 1182.50 756.521   4
 -19  -5  -8 1178.97 779.094   4
 -24   5  -5 2793.95 760.427   2
  19 -24  -5 3850.59 760.426   1
 -19  -5  -5 3667.16 867.645   2
  -5  24  -5 3078.99 563.106   4
 -24   5  -5 3754.91 811.879   4
 -19  -5  -5 3264.53 799.954   4
   5  19  -2 4485.99 767.728   3
  -5  24  -2 3426.85 352.276   2
  19 -24  -2 6025.32 939.055   1
 -24   5  -2 5484.15 880.895   4
   5  19  -2 3558.95 506.708   2
 -19  -5  -2 5978.78 954.603   4
  24 -19  -2 6795.97 1021.27   1
  -5  24  -2 2521.86 334.267   2
 -24   5  -2 6010.86 914.284   2
  24 -19  -2 5518.16 505.538   3
 -19  -5  -2 6531.01 901.327   2
   5  19   1 4584.54 773.767   3
  -5  24   1 4241.40 816.741   3
  24 -19   1 2681.21 764.201   1
 -24   5   1 3139.74 734.130   4
 -19  -5   1 4248.58 789.247   4
 -24   5   1 3813.59 761.940   2
 -19  -5   1 3829.82 709.907   2
 -19  -5   1 2623.06 558.904   3
  19 -24   1 3749.70 902.949   1
   5  19   4 2147.00 697.550   3
  -5  24   4 1506.11 631.655   3
  19 -24   4 2328.07 800.201   1
 -24   5   4 2072.89 615.329   4
 -19  -5   4 2084.59 579.182   4
 -24   5   4 1588.13 597.372   2
  24 -19   4 2543.90 852.499   1
 -19  -5   4 1178.33 502.275   2
  -5  24   7 3714.40 929.655   3
  19 -24   7 3635.38 997.617   1
 -19  -5   7 1911.65 791.838   1
 -24   5   7 4028.15 862.592   2
 -24   5   7 3096.70 688.177   4
  24 -19   7 3322.64 915.678   1
 -19  -5   7 3720.20 739.079   2
 -19  -5   7 3148.63 601.702   4
   5  19   7 5121.41 1018.76   3
 -24   6  -6 4544.24 896.075   2
 -18  -6  -6 4373.98 897.434   2
  -6  24  -6 4027.10 549.002   4
 -24   6  -6 7417.01 1049.98   4
 -18  -6  -6 8096.21 1212.48   4
  18 -24  -3 3464.29 758.362   1
 -24   6  -3 3245.90 733.533   4
   6  18  -3 1458.34 390.627   2
 -18  -6  -3 3675.87 808.960   4
  24 -18  -3 2751.49 316.750   3
 -18  -6  -3 3969.64 832.462   2
 -24   6  -3 2901.32 706.385   2
 -18  -6   0 2457.26 635.982   2
  24 -18   0 1837.34 404.293   3
   6  18   0 2516.09 641.274   3
  24 -18   0 2515.75 792.004   1
  -6  24   0 2969.52 683.405   3
 -24   6   0 3344.89 706.253   4
 -18  -6   0 2547.43 687.183   4
 -24   6   0 2203.58 627.872   2
  18 -24   0 2380.01 692.888   1
   6  18   3 5197.17 886.323   3
  -6  24   3 6446.81 966.214   3
 -24   6   3 7641.55 918.081   4
  24 -18   3 9146.88 1185.17   1
 -18  -6   3 6501.94 855.789   4
 -24   6   3 6734.52 905.275   2
  18 -24   3 6252.10 1027.70   1
 -18  -6   3 6986.54 837.833   2
  -6  24   6 5807.05 957.911   3
  24 -18   6 5068.42 1027.55   1
 -18  -6   6 3933.49 923.828   1
 -24   6   6 4776.95 791.605   4
  18 -24   6 5319.55 1085.62   1
 -18  -6   6 3374.70 650.287   4
 -18  -6   6 4544.52 748.188   2
 -24   6   6 4316.85 809.809   2
   6  18   6 4787.63 985.101   3
 -24   7  -7 2387.85 746.944   2
 -24   7  -7 4603.08 917.502   4
 -17  -7  -7 4066.22 947.976   4
 -24   7  -4 115.398 483.028   2
 -17  -7  -4 1116.29 639.528   2
  -7  24  -4 857.201 386.884   4
  17 -24  -4 687.987 508.817   1
 -24   7  -4 529.729 499.391   4
 -17  -7  -4 596.532 510.630   4
 -17  -7  -1 1844.18 551.366   2
  -7  24  -1 1806.82 395.789   2
   7  17  -1 1973.38 569.060   3
  -7  24  -1 2727.62 653.466   3
  -7  24  -1 2335.43 377.535   2
 -24   7  -1 2962.99 690.776   4
 -17  -7  -1 3235.46 722.834   4
  24 -17  -1 3532.92 791.445   1
 -24   7  -1 2916.85 670.721   2
  24 -17  -1 2289.46 341.634   3
  17 -24  -1 2444.04 694.148   1
   7  17   2 1175.71 590.403   3
  -7  24   2 1279.05 564.029   3
  17 -24   2 841.947 630.623   1
  24 -17   2 1916.61 643.449   1
 -24   7   2 1308.73 575.457   4
 -17  -7   2 305.011 457.265   4
 -24   7   2 427.474 423.509   2
 -17  -7   2 1703.56 468.836   2
  -7  24   5 5081.22 905.317   3
  17 -24   5 3126.58 784.000   1
 -17  -7   5 5104.16 960.285   1
  24 -17   5 4611.44 923.017   1
 -24   7   5 5249.30 813.718   4
 -24   7   5 4717.74 838.370   2
 -17  -7   5 4186.41 683.051   4
 -17  -7   5 4998.94 730.711   2
   7  17   5 4600.01 872.508   3
   7  17   8 2664.66 832.609   3
  17 -24   8 464.208 709.009   1
  -7  24   8 3478.60 895.459   3
 -24   7   8 1916.63 628.704   4
 -17  -7   8 2356.84 839.332   1
 -24   7   8 2951.50 788.794   2
 -17  -7   8 839.814 523.584   2
  24 -17   8-798.018 2407.71   3
  24 -17   8 1512.26 781.988   1
 -24   8  -8 2271.88 792.976   2
 -24   8  -8 3630.29 936.943   4
 -24   8  -5 601.586 512.276   2
 -16  -8  -5 2168.63 709.712   2
  -8  24  -5 871.013 371.921   4
  16 -24  -5 688.053 486.782   1
 -24   8  -5 738.227 572.753   4
 -16  -8  -5 1358.37 448.894   1
 -16  -8  -5 746.324 583.685   4
  16 -24  -2 4682.20 821.422   1
   8  16  -2 2867.60 605.179   3
  -8  24  -2 2259.25 288.945   2
 -24   8  -2 5041.40 835.390   4
 -16  -8  -2 4397.55 792.781   4
 -24   8  -2 4038.51 744.079   2
  -8  24  -2 2660.93 352.537   2
 -16  -8  -2 4297.68 787.411   2
 -16  -8   1 1096.81 451.686   2
   8  16   1 1948.68 623.630   3
  24 -16   1 1416.63 387.074   3
  -8  24   1 2231.48 646.204   3
  24 -16   1 2538.63 705.703   1
  16 -24   1 1398.24 621.721   1
 -24   8   1 1200.86 513.194   4
 -24   8   1 3479.27 737.286   2
 -16  -8   1 2006.47 621.363   4
  -8  24   4 3225.34 731.999   3
 -16  -8   4 5117.93 896.140   1
  16 -24   4 5224.54 970.192   1
 -24   8   4 4542.87 790.503   4
 -16  -8   4 4605.35 711.147   4
 -24   8   4 4567.14 759.827   2
  24 -16   4 3695.76 885.346   1
 -16  -8   4 4921.42 697.859   2
   8  16   4 4241.56 815.515   3
   8  16   7 487.980 626.232   3
  -8  24   7-339.551 650.348   3
 -24   8   7 54.5766 459.125   4
 -16  -8   7 722.076 707.482   1
 -24   8   7 814.667 647.882   2
 -16  -8   7 242.821 381.434   4
  24 -16   7-788.012 2064.12   3
 -16  -8   7 451.887 416.431   2
  24 -16   7 693.365 693.816   1
  16 -24   7 2645.27 895.323   1
 -24   9  -9 5186.07 1044.97   2
 -24   9  -9 4131.56 928.335   4
 -24   9  -6 3291.43 750.688   2
 -15  -9  -6 4679.35 972.707   2
 -15  -9  -6 3367.57 477.590   1
  -9  24  -6 2581.46 478.615   4
 -24   9  -6 3246.85 740.902   4
 -15  -9  -6 4576.10 955.022   4
 -15  -9  -3 9593.37 1080.97   2
  15 -24  -3 10149.8 1076.51   1
 -15  -9  -3 9438.25 876.851   1
  -9  24  -3 11503.4 997.246   4
 -24   9  -3 11862.5 1168.62   4
 -15  -9  -3 10855.7 1190.38   4
 -24   9  -3 12056.8 1147.10   2
  24 -15   0 5245.30 436.501   3
   9  15   0 6078.25 821.565   3
  -9  24   0 6486.25 869.595   3
 -15  -9   0 5758.75 783.815   1
  -9  24   0 4335.61 557.559   2
  24 -15   0 5532.91 928.957   1
 -24   9   0 6546.38 899.420   4
 -15  -9   0 5208.40 846.299   4
  15 -24   0 7650.98 1048.97   1
 -24   9   0 7773.71 967.516   2
 -15  -9   0 4949.54 749.061   2
   9  15   3 5597.73 865.176   3
  -9  24   3 3663.48 768.960   3
 -15  -9   3 4856.15 863.070   1
  15 -24   3 4917.74 951.008   1
 -24   9   3 5577.39 798.407   4
 -24   9   3 3902.98 751.153   2
 -15  -9   3 3621.14 686.194   4
 -15  -9   3 5008.12 701.890   2
  24 -15   3 4244.63 851.479   1
   9  15   6 1450.62 648.081   3
  -9  24   6 3581.93 805.730   3
  24 -15   6 2369.21 742.198   1
 -24   9   6 2837.58 665.988   4
 -15  -9   6 2918.12 790.852   1
 -24   9   6 1449.59 649.311   2
 -15  -9   6 1384.66 463.852   4
  24 -15   6-500.730 1869.80   3
 -15  -9   6 2157.17 536.334   2
  15 -24   6 2809.14 878.068   1
   9  15   9 5021.69 1148.99   3
  -9  24   9 3707.85 996.753   3
  24 -15   9 2131.53 859.668   1
 -24   9   9 2624.32 888.263   2
 -15  -9   9 4508.72 1055.89   1
 -24   9   9 3333.64 777.009   4
  15 -24   9 1223.26 923.778   1
 -24  10  -7 2507.14 786.428   2
 -10  24  -7 1486.85 394.403   4
 -24  10  -7 2337.24 721.378   4
 -14 -10  -4 1149.46 649.378   2
 -10  24  -4-387.717 434.116   4
 -14 -10  -4 459.587 364.875   1
 -24  10  -4 636.023 505.247   4
 -14 -10  -4 880.368 641.965   4
  14 -24  -4 611.416 459.670   1
 -24  10  -4 706.990 515.590   2
  10  14  -1 6180.37 776.020   3
 -10  24  -1 5804.80 864.068   3
 -10  24  -1 5829.89 823.418   4
 -14 -10  -1 7530.03 855.826   1
 -24  10  -1 6111.46 864.628   4
 -14 -10  -1 7611.94 967.979   4
  14 -24  -1 5981.28 895.394   1
 -24  10  -1 5337.75 794.649   2
 -10  24  -1 4470.93 479.197   2
 -14 -10  -1 5283.35 754.263   2
 -14 -10   2 3009.53 570.303   2
  10  14   2 3527.70 679.183   3
 -10  24   2 3237.36 672.194   3
 -14 -10   2 4430.32 814.339   1
  24 -14   2 4633.55 883.154   1
  14 -24   2 5040.05 919.244   1
 -24  10   2 4161.05 745.593   4
 -14 -10   2 3722.25 709.174   4
 -24  10   2 3605.72 676.400   2
 -10  24   5 6345.65 914.433   3
  14 -24   5 7412.81 1127.44   1
 -14 -10   5 4789.89 935.607   1
 -24  10   5 5584.59 836.451   4
 -24  10   5 6710.95 945.946   2
 -14 -10   5 5229.74 734.173   4
 -14 -10   5 6890.54 787.890   2
  24 -14   5 6473.68 1010.18   1
  10  14   5 5236.15 891.224   3
  10  14   8 1912.37 821.487   3
 -10  24   8 1278.40 658.059   3
  24 -14   8 1612.37 772.993   1
 -24  10   8 2646.82 657.453   4
 -24  10   8 1917.64 733.699   2
 -14 -10   8 1365.30 759.203   1
  24 -14   8 1612.13 1261.59   3
 -14 -10   8 3106.28 613.091   2
  14 -24   8 1560.94 819.865   1
 -24  11  -8 1957.25 756.904   2
 -24  11  -8 835.302 645.768   4
 -24  11  -5 1473.51 592.223   2
 -13 -11  -5 1030.96 606.324   2
 -11  24  -5 966.512 405.661   4
  13 -24  -5 210.051 428.711   1
 -24  11  -5 626.236 486.829   4
 -13 -11  -5 554.878 319.930   1
  11  13  -2 3674.51 673.965   3
 -13 -11  -2 3134.62 685.274   2
 -13 -11  -2 3479.54 604.597   1
 -11  24  -2 2005.96 520.085   4
 -11  24  -2 2834.81 357.173   2
 -24  11  -2 3864.61 750.907   4
 -13 -11  -2 4232.60 818.656   4
 -24  11  -2 3837.54 709.388   2
  13 -24  -2 4590.65 818.926   1
  11  13   1 2654.96 614.335   3
  24 -13   1 2649.95 398.437   3
 -11  24   1 2859.85 655.998   3
 -11  24   1 1559.07 423.767   2
  13 -24   1 4815.58 822.547   1
 -13 -11   1 2406.99 644.736   1
 -24  11   1 2739.51 644.628   4
 -13 -11   1 2707.01 627.233   4
  24 -13   1 3653.05 612.407   3
 -24  11   1 2303.15 596.312   2
 -13 -11   1 3351.41 602.923   2
  11  13   4 1315.87 538.278   3
 -11  24   4 2724.49 660.416   3
  24 -13   4 1401.12 624.712   1
 -24  11   4 1564.53 550.090   4
 -13 -11   4 1322.17 601.427   1
 -24  11   4 1538.06 611.285   2
 -13 -11   4 1253.16 455.604   4
  24 -13   4 821.800 1139.38   3
  13 -24   4 2174.61 676.571   1
 -13 -11   4 1141.96 474.962   2
  11  13   7 755.067 645.498   3
 -11  24   7 1813.77 706.883   3
 -24  11   7-250.964 469.371   4
 -24  11   7 309.225 566.652   2
  24 -13   7-390.391 533.508   1
 -13 -11   7 1086.21 759.534   1
  13 -24   7 57.7429 643.294   1
  24 -13   7-742.410 1016.82   3
 -13 -11   7 250.951 387.143   2
 -24  12  -9 2761.61 887.709   2
 -24  12  -9 2472.65 813.143   4
 -12  24  -6 3280.71 534.862   4
 -24  12  -6 3572.69 757.786   4
  12 -24  -6 3335.18 611.933   1
 -12 -12  -6 3005.34 373.381   1
 -24  12  -6 3934.51 806.615   2
 -12 -12  -3 3801.65 758.801   2
 -12  24  -3 4523.02 700.060   4
 -12 -12  -3 3972.03 604.913   1
 -24  12  -3 4558.13 773.813   4
 -12  24  -3 2838.45 264.731   2
 -12 -12  -3 5369.20 888.917   4
 -24  12  -3 4486.85 749.730   2
  12 -24  -3 3994.41 734.977   1
  12 -24   0 1011.52 553.360   1
  24 -12   0 1378.71 200.830   3
 -12 -12   0 1551.16 456.498   2
  12  12   0 1856.65 496.388   3
 -12  24   0 2461.09 601.058   3
 -12  24   0 827.356 476.735   4
 -12  24   0 1259.18 374.112   2
 -24  12   0 1055.40 512.537   4
 -12 -12   0 1917.36 550.638   1
 -12 -12   0 714.810 461.280   4
 -24  12   0 2099.11 554.696   2
  24 -12   0 1760.22 228.977   3
 -12  24   3 2970.88 659.173   3
 -12  24   3 3650.31 680.181   2
 -12 -12   3 5629.82 881.958   1
 -24  12   3 3335.82 743.796   4
  24 -12   3 4351.36 822.828   1
 -24  12   3 3416.64 703.478   2
 -12 -12   3 3387.34 606.320   4
  12 -24   3 4019.73 884.721   1
 -12 -12   3 3987.47 576.275   2
  12  12   3 5006.03 811.396   3
  12  12   6 3946.73 829.922   3
 -12  24   6 3211.01 777.857   3
  24 -12   6 4413.75 859.298   1
 -24  12   6 4255.24 767.487   4
 -24  12   6 2768.31 757.218   2
 -12 -12   6 4415.33 924.429   1
  12 -24   6 1882.33 801.958   1
  24 -12   6 3906.15 990.155   3
 -12 -12   6 2500.63 513.955   2
  24 -12   9 3918.37 902.387   1
 -12  24   9 4092.09 966.174   3
 -12  24   9 2405.46 863.243   4
 -24  12   9 2608.91 873.786   2
 -24  12   9 3321.29 751.406   4
  12 -24   9 4070.20 1060.94   1
 -12 -12   9 3607.56 1075.30   1
  24 -12   9 1942.22 961.459   3
  12  12   9 3005.82 971.293   3
 -13  24  -7 130.901 339.159   4
 -24  13  -7 282.174 518.544   2
 -24  13  -7 1029.32 620.557   4
  11 -24  -4 1347.87 517.918   1
 -13  24  -4 1372.14 457.870   4
 -24  13  -4 2348.12 622.438   4
 -11 -13  -4 1462.93 405.905   1
 -24  13  -4 1792.90 574.406   2
  11 -24  -1 2798.88 647.000   1
 -11 -13  -1 2437.31 549.653   2
  13  11  -1 2146.81 523.408   3
 -13  24  -1 1923.74 558.709   4
 -13  24  -1 2697.75 436.615   2
 -24  13  -1 4641.93 766.053   4
 -11 -13  -1 2714.33 599.333   1
 -11 -13  -1 2670.01 681.621   4
 -24  13  -1 2481.26 618.669   2
  13  11   2 5234.96 753.222   3
 -13  24   2 4676.04 725.955   3
  11 -24   2 5717.59 957.259   1
 -13  24   2 3233.33 630.181   2
 -13  24   2 2875.54 745.236   4
 -11 -13   2 5251.79 857.788   1
 -24  13   2 4536.29 774.890   4
 -24  13   2 4983.93 804.573   2
 -11 -13   2 4382.83 727.228   4
  24 -11   2 4774.30 579.938   3
 -11 -13   2 3804.37 595.132   2
  13  11   5 1174.36 578.998   3
  24 -11   5 295.616 548.581   1
 -13  24   5 370.129 478.707   3
 -13  24   5 873.079 539.100   2
 -24  13   5 1194.98 510.604   4
 -24  13   5 1372.52 602.607   2
  11 -24   5 1067.39 753.117   1
 -11 -13   5-392.745 557.082   1
  24 -11   5 412.944 522.663   3
 -11 -13   5 1141.74 407.721   2
 -13  24   8 1416.95 685.609   3
  24 -11   8-288.094 585.773   1
 -13  24   8 1066.42 676.957   4
 -13  24   8-665.918 745.563   2
 -24  13   8 828.102 530.733   4
 -24  13   8 2239.39 815.620   2
  11 -24   8-459.363 751.340   1
 -11 -13   8 1840.43 853.798   1
  24 -11   8 448.866 729.713   3
  13  11   8 339.331 655.721   3
 -24  14  -8 2528.11 721.613   2
 -24  14  -8 2155.01 714.703   4
 -14  24  -5 5037.04 683.693   4
  10 -24  -5 4610.29 676.835   1
 -24  14  -5 5156.86 835.570   4
 -10 -14  -5 5657.47 570.914   1
 -24  14  -5 5766.24 843.041   2
 -10 -14  -2 3424.93 712.416   2
  14  10  -2 4465.57 642.223   3
  10 -24  -2 3133.22 678.978   1
 -14  24  -2 2805.58 588.345   4
 -10 -14  -2 4146.10 652.098   1
 -24  14  -2 4303.10 749.806   4
 -14  24  -2 1938.34 347.973   2
 -24  14  -2 3410.10 654.298   2
  14  10   1 7063.81 819.310   3
 -14  24   1 6191.76 816.891   3
  10 -24   1 7464.91 1012.44   1
 -14  24   1 7047.15 893.074   4
 -10 -14   1 6160.38 817.734   1
 -24  14   1 5662.75 823.303   4
 -14  24   1 4251.52 611.870   2
 -24  14   1 7706.20 910.350   2
  24 -10   1 6717.05 509.028   3
 -10 -14   1 6352.28 725.706   2
  14  10   4-233.705 490.947   3
 -10 -14   4 199.983 309.022   2
 -14  24   4 265.757 422.670   3
 -24  14   4-417.705 406.319   4
 -14  24   4 868.458 501.946   4
 -14  24   4 0.75945 412.937   2
  10 -24   4 775.814 651.841   1
 -24  14   4-401.237 460.192   2
 -10 -14   4-180.646 511.381   1
  24 -10   4-197.913 462.736   3
 -14  24   7 1542.39 604.966   3
 -14  24   7-238.796 538.844   4
 -14  24   7 1837.81 716.891   2
 -24  14   7 2480.14 660.820   4
 -24  14   7 3270.68 818.108   2
  10 -24   7 559.618 671.865   1
  24 -10   7 2877.33 730.171   1
 -10 -14   7 470.888 686.703   1
  24 -10   7 2273.62 816.122   3
  14  10   7 3892.08 883.664   3
 -24  15  -9 2494.67 805.245   2
 -24  15  -9 2349.88 748.573   4
   9 -24  -6 1699.88 455.521   1
 -24  15  -6 2857.58 675.220   2
 -15  24  -6 1471.84 485.925   4
 -24  15  -6 3277.27 754.392   4
 -15  24  -3 4576.75 687.893   4
   9 -24  -3 3393.39 646.758   1
 -24  15  -3 4180.17 767.200   4
  -9 -15  -3 3986.79 593.221   1
 -15  24  -3 2525.55 349.590   2
 -24  15  -3 4216.51 728.331   2
  -9 -15   0 7687.81 803.221   2
  15   9   0 6949.13 746.837   3
  24  -9   0 5817.44 275.237   3
   9 -24   0 7582.47 970.644   1
 -15  24   0 7507.68 897.674   4
 -15  24   0 4852.76 613.917   2
 -24  15   0 6756.26 863.073   4
  -9 -15   0 8394.83 919.410   1
 -24  15   0 6094.65 795.686   2
   9 -24   3 11839.0 1245.37   1
 -15  24   3 11272.9 1011.03   3
 -15  24   3 8558.17 1048.08   4
 -15  24   3 9222.32 954.638   2
 -24  15   3 11075.0 1100.38   4
  -9 -15   3 9425.50 1075.32   1
 -24  15   3 10482.5 1072.01   2
  24  -9   3 10841.6 905.953   3
  -9 -15   3 11024.1 822.616   2
  15   9   3 11960.9 1078.12   3
  15   9   6 4829.79 880.804   3
 -15  24   6 3308.86 695.920   3
 -15  24   6 3420.19 845.780   4
 -15  24   6 3970.25 860.501   2
 -24  15   6 4889.59 813.099   4
 -24  15   6 5051.74 909.947   2
  24  -9   6 4881.73 898.725   3
  -9 -15   6 3045.66 827.219   1
   9 -24   6 4033.36 932.218   1
  -9 -15   6 3688.72 477.724   2
 -15  24   9 3241.48 850.444   3
 -15  24   9 2877.64 888.409   4
 -15  24   9 3221.52 1058.83   2
 -24  15   9 4214.40 831.910   4
 -24  15   9 3199.88 937.180   2
   9 -24   9 5487.09 1201.12   1
  -9 -15   9 5997.56 1188.72   1
  24  -9   9 3043.54 937.224   3
  15   9   9 5775.50 1184.71   3
 -24  16  -7 396.087 507.017   2
 -16  24  -7 306.186 368.655   4
 -24  16  -7 961.903 582.478   4
 -16  24  -4 2994.09 586.040   4
 -24  16  -4 4286.59 768.052   4
  -8 -16  -4 3529.57 542.019   1
   8 -24  -4 2994.15 607.773   1
 -16  24  -4 2970.54 365.111   2
 -24  16  -4 2700.49 614.004   2
  16   8  -1 1695.12 469.285   3
  -8 -16  -1 2018.63 559.965   2
 -16  24  -1 1615.63 556.360   4
 -24  16  -1 1373.81 513.289   4
 -16  24  -1 1604.35 378.942   2
  -8 -16  -1 1887.39 570.329   1
 -24  16  -1 966.400 502.400   2
   8 -24  -1 947.752 486.466   1
  -8 -16   2 3777.36 543.326   2
 -16  24   2 4084.75 635.567   3
 -16  24   2 3213.45 745.084   4
 -24  16   2 3433.24 703.421   4
 -16  24   2 2750.30 615.375   2
   8 -24   2 3650.32 779.338   1
 -24  16   2 3015.21 654.891   2
  -8 -16   2 3486.44 664.898   1
  24  -8   2 2988.04 487.688   3
  16   8   2 3016.60 629.748   3
  16   8   5 1172.65 531.218   3
  -8 -16   5 959.178 330.829   2
 -16  24   5 2534.06 653.076   3
 -16  24   5 1716.97 655.771   4
 -16  24   5 773.166 605.120   2
 -24  16   5 2786.18 686.465   4
   8 -24   5-307.781 633.556   1
 -24  16   5 870.790 593.627   2
  -8 -16   5 3756.76 895.744   1
  24  -8   5 1567.53 588.461   3
 -16  24   8 3824.43 812.709   3
 -16  24   8 5006.80 964.300   4
 -16  24   8 3324.09 900.273   2
 -24  16   8 3668.74 835.660   4
   8 -24   8 3805.05 1039.00   1
 -24  16   8 2938.08 885.492   2
  -8 -16   8 2429.64 888.661   1
  24  -8   8 4632.84 1008.55   3
  16   8   8 3088.24 974.046   3
 -24  17  -8 2364.48 689.726   2
 -24  17  -8 2265.88 681.638   4
   7 -24  -5 4567.51 639.854   1
 -17  24  -5 4660.73 699.504   4
 -24  17  -5 4306.30 768.497   4
  -7 -17  -5 4460.36 502.139   1
 -24  17  -5 5023.32 786.834   2
 -17  24  -5 4173.59 413.825   2
  17   7  -2 1180.28 402.667   3
 -17  24  -2 230.256 429.288   4
 -24  17  -2-34.2443 440.106   4
 -17  24  -2 904.073 344.943   2
 -24  17  -2 789.629 417.696   2
  -7 -17  -2 1866.25 495.744   1
   7 -24  -2 697.178 505.597   1
 -17  24   1 1059.64 554.142   4
  17   7   1 2861.71 558.428   3
  -7 -17   1 2103.87 476.976   2
 -17  24   1 1687.94 497.989   3
 -24  17   1 2177.11 661.972   4
 -17  24   1 1080.97 444.064   2
   7 -24   1 3148.40 728.513   1
 -24  17   1 2910.02 660.404   2
  -7 -17   1 1407.41 555.593   1
  24  -7   1 2458.17 372.259   3
  17   7   4 531.941 442.476   3
  -7 -17   4 436.591 329.388   2
 -17  24   4 166.878 396.712   3
 -17  24   4-323.696 484.290   4
   7 -24   4-600.552 678.307   1
 -17  24   4 1584.97 587.868   2
 -24  17   4 282.613 494.133   4
 -24  17   4 245.886 507.632   2
  -7 -17   4 358.513 533.555   1
  24  -7   4 1134.41 506.890   3
 -17  24   7 2573.45 664.453   3
 -17  24   7 2459.18 731.836   4
 -24  17   7 4353.86 860.893   4
   7 -24   7 3521.33 904.417   1
 -17  24   7 1678.59 744.794   2
 -24  17   7 3579.58 869.497   2
  -7 -17   7 3780.22 996.837   1
  24  -7   7 2405.02 792.559   3
  17   7   7 4196.65 904.066   3
 -18  24  -6 3613.99 639.903   4
 -24  18  -6 4523.28 824.253   4
   6 -24  -6 2876.14 476.326   1
 -24  18  -6 4909.25 784.125   2
   6 -24  -3 5436.34 757.172   1
 -18  24  -3 5402.03 769.363   4
 -24  18  -3 4771.85 746.409   4
 -18  24  -3 5700.94 569.966   2
  -6 -18  -3 6116.30 704.942   1
 -24  18  -3 4707.99 728.817   2
  24  -6   0 1692.91 210.590   3
  18   6   0 2447.70 494.396   3
 -18  24   0 1328.47 529.364   4
 -18  24   0 2811.75 543.324   2
 -24  18   0 2550.39 654.854   4
   6 -24   0 2478.96 668.505   1
 -24  18   0 2201.02 583.750   2
  -6 -18   0 2064.22 587.290   1
  -6 -18   3 2969.71 484.014   2
 -18  24   3 3226.16 627.608   3
 -18  24   3 2238.34 661.048   4
   6 -24   3 2370.40 681.095   1
 -24  18   3 1996.14 658.073   4
 -18  24   3 3189.74 657.931   2
 -24  18   3 4040.54 810.734   2
  -6 -18   3 4156.34 835.533   1
  24  -6   3 4682.06 650.507   3
  18   6   3 4416.06 703.129   3
 -18  24   6 5529.43 797.655   3
 -18  24   6 5126.40 930.741   4
 -18  24   6 5184.67 950.203   2
   6 -24   6 4739.70 991.894   1
 -24  18   6 6853.71 962.539   4
 -24  18   6 5448.65 966.871   2
  24  -6   6 7681.34 1030.82   3
  -6 -18   6 4516.84 930.820   1
  18   6   6 6715.40 1003.90   3
 -24  19  -7 2434.94 657.348   2
 -19  24  -7 2612.59 591.387   4
 -24  19  -7 2475.45 725.025   4
  -5 -19  -4 2036.31 469.471   1
   5 -24  -4 1479.20 516.214   1
 -19  24  -4 1572.48 530.552   4
 -24  19  -4 1666.92 555.497   4
 -19  24  -4 690.382 316.454   2
 -24  19  -4 1492.94 515.056   2
  19   5  -1 3518.14 515.137   3
 -19  24  -1 2597.76 627.859   4
 -24  19  -1 2810.21 661.905   4
 -19  24  -1 3237.63 553.862   2
   5 -24  -1 3237.29 666.733   1
  -5 -19  -1 3553.05 690.459   1
 -24  19  -1 2524.17 576.106   2
 -19  24   2 5315.78 702.560   3
 -19  24   2 5015.12 868.818   4
 -24  19   2 7088.23 949.147   4
 -19  24   2 5414.86 780.987   2
 -24  19   2 7474.67 921.379   2
  -5 -19   2 7236.86 992.983   1
  24  -5   2 6641.58 661.156   3
   5 -24   2 6614.91 977.237   1
  19   5   2 6012.56 723.656   3
 -19  24   5 2808.16 596.048   3
   5 -24   5 2905.73 849.366   1
 -19  24   5 3042.36 749.968   4
 -24  19   5 2893.41 726.311   4
 -19  24   5 2471.29 663.163   2
 -24  19   5 3156.00 784.881   2
  -5 -19   5 3238.97 872.125   1
  24  -5   5 1891.59 564.680   3
  19   5   5 3851.35 777.159   3
 -19  24   8 491.423 543.973   3
   5 -24   8 1611.38 926.042   1
 -19  24   8 1766.70 745.248   4
 -19  24   8 624.262 741.496   2
 -24  19   8-246.606 594.303   4
 -24  19   8 771.380 734.494   2
  24  -5   8 698.106 700.577   3
  -5 -19   8 1124.51 793.010   1
  19   5   8 1093.67 793.742   3
 -24  20  -8 893.746 550.068   2
 -20  24  -8 390.613 445.179   4
 -24  20  -8 764.505 576.142   4
  -4 -20  -5 4064.97 528.237   1
 -20  24  -5 4885.33 754.041   4
 -24  20  -5 5765.96 850.850   4
   4 -24  -5 3698.01 573.107   1
 -24  20  -5 4538.49 711.704   2
 -20  24  -5 4352.45 567.031   2
  -4 -20  -2-205.205 424.595   1
 -20  24  -2-238.683 431.442   4
 -24  20  -2 37.2340 438.144   4
   4 -24  -2 71.8880 469.261   1
 -20  24  -2 1005.80 416.309   2
 -24  20  -2 111.618 421.098   2
  20   4   1 5357.25 679.304   3
 -20  24   1 5423.54 859.727   4
   4 -24   1 3187.84 788.141   1
 -24  20   1 4572.36 800.291   4
 -20  24   1 4514.42 721.405   2
 -24  20   1 5559.59 803.769   2
  -4 -20   1 4762.88 874.746   1
  24  -4   1 4504.78 491.298   3
  20   4   4 3600.34 701.225   3
 -20  24   4 2644.90 558.671   3
   4 -24   4 4110.89 903.761   1
 -24  20   4 3788.13 823.090   4
 -20  24   4 3394.65 750.224   4
 -24  20   4 4195.89 867.583   2
 -20  24   4 2903.56 687.256   2
  24  -4   4 3809.04 710.883   3
  -4 -20   4 2694.14 784.083   1
 -20  24   7 1717.25 609.949   3
   4 -24   7 2361.70 930.916   1
 -20  24   7 2220.00 722.051   4
 -24  20   7 1235.50 643.356   4
 -20  24   7 1972.40 754.784   2
 -24  20   7 2087.23 805.580   2
  24  -4   7 2545.51 808.133   3
  -4 -20   7 1926.49 850.072   1
  20   4   7 2197.11 796.513   3
 -24  21  -6 1988.38 610.849   2
 -21  24  -6 1511.21 425.490   2
 -21  24  -6 1594.61 565.587   4
 -24  21  -6 2625.62 693.299   4
  -3 -21  -3 1774.86 491.896   1
 -21  24  -3 967.252 536.522   4
 -24  21  -3 1434.93 539.093   4
   3 -24  -3 1272.48 487.735   1
 -21  24  -3 1119.83 405.567   2
 -24  21  -3 871.680 462.274   2
  24  -3   0 8222.83 513.305   3
  21   3   0 8701.46 720.761   3
 -21  24   0 9685.54 1060.24   4
 -24  21   0 10875.5 1151.59   4
 -21  24   0 9529.30 896.833   2
 -24  21   0 8195.15 939.964   2
  -3 -21   0 8186.51 961.562   1
   3 -24   0 9422.69 1037.51   1
  21   3   3 180.843 419.137   3
   3 -24   3 321.382 659.246   1
 -21  24   3 383.622 381.093   3
 -21  24   3 802.517 560.295   4
 -24  21   3 504.188 524.071   4
 -21  24   3 911.778 563.891   2
 -24  21   3 625.265 488.467   2
  -3 -21   3 1262.45 659.736   1
  24  -3   3 986.843 422.618   3
 -21  24   6 2427.60 574.369   3
   3 -24   6 566.085 652.422   1
 -21  24   6 2246.39 716.988   4
 -24  21   6 2447.50 734.919   4
 -21  24   6 1708.19 730.277   2
 -24  21   6 2047.67 763.891   2
  24  -3   6 1356.94 681.490   3
  21   3   6 1134.64 618.529   3
  -3 -21   6 2692.88 906.418   1
 -22  24  -7 5327.53 821.040   4
 -24  22  -7 4647.54 804.781   4
 -24  22  -7 6335.24 816.318   2
 -22  24  -4 699.821 466.811   4
 -24  22  -4-138.353 450.069   4
  -2 -22  -4-53.3711 370.275   1
 -22  24  -4-75.7044 342.187   2
 -24  22  -4 15.1784 391.676   2
   2 -24  -4 196.736 440.144   1
  22   2  -1 4512.36 507.042   3
 -22  24  -1 3644.44 739.232   4
 -24  22  -1 3160.59 699.798   4
 -22  24  -1 5910.43 733.076   2
 -24  22  -1 5056.47 737.965   2
  -2 -22  -1 6451.21 845.966   1
   2 -24  -1 3753.59 744.555   1
  24  -2   2 1272.37 428.544   3
  -2 -22   2 1293.63 607.517   1
  22   2   2 2232.37 524.243   3
   2 -24   2 1166.77 638.294   1
 -22  24   2 1573.46 610.979   4
 -24  22   2 2896.70 740.321   4
 -22  24   2 2116.28 624.346   2
 -24  22   2 1322.01 575.254   2
  -2 -22   5 2116.92 727.778   1
 -22  24   5 3175.79 614.710   3
   2 -24   5 2436.29 825.836   1
 -24  22   5 2002.78 475.265   3
 -22  24   5 2191.00 709.640   4
 -24  22   5 2618.45 745.314   4
 -22  24   5 2347.23 744.054   2
 -24  22   5 3104.27 799.924   2
  24  -2   5 4094.37 804.478   3
  22   2   5 3100.10 705.369   3
  -2 -22   8 2332.04 920.969   1
 -24  22   8 2919.94 839.482   4
   2 -24   8 1994.20 1010.20   1
 -22  24   8 2899.70 851.848   4
 -22  24   8 1586.73 821.524   2
 -24  22   8 2743.68 914.199   2
  24  -2   8 2971.02 913.926   3
  22   2   8 3503.17 968.061   3
 -23  24  -8 1453.79 612.888   4
 -24  23  -8 1273.83 629.596   4
   1 -24  -5 2811.53 513.726   1
  -1 -23  -5 2608.44 524.258   1
 -23  24  -5 3737.15 754.449   4
 -24  23  -5 2765.31 688.526   4
 -24  23  -5 2952.97 622.395   2
 -23  24  -5 3207.12 588.768   2
  -1 -23  -2 86.4480 445.078   1
 -23  24  -2 739.828 505.840   4
 -24  23  -2 1504.73 620.971   4
   1 -24  -2 1456.09 604.158   1
 -23  24  -2 968.803 464.072   2
 -24  23  -2 500.564 454.354   2
  23   1   1 3120.48 512.922   3
  -1 -23   1 2584.74 701.006   1
   1 -24   1 3291.05 753.484   1
 -23  24   1 4261.83 866.806   4
 -24  23   1 3321.49 748.496   4
 -23  24   1 3148.27 664.138   2
 -24  23   1 3743.72 708.928   2
  24  -1   1 4356.70 547.421   3
  -1 -23   4 1586.96 693.007   1
   1 -24   4 898.901 698.156   1
 -23  24   4 1221.78 463.662   3
 -23  24   4 1173.44 611.206   4
 -24  23   4 531.740 553.580   4
 -23  24   4 1470.22 619.912   2
 -24  23   4 1403.63 652.798   2
  24  -1   4 1580.16 574.605   3
  23   1   4 1446.86 550.762   3
  -1 -23   7 1967.39 873.972   1
   1 -24   7 1211.85 834.329   1
 -23  24   7 2403.84 837.213   4
 -24  23   7 3028.11 814.831   4
 -23  24   7 1684.45 848.182   2
 -24  23   7 2279.30 817.898   2
  24  -1   7 2373.98 818.766   3
  23   1   7 2905.98 837.842   3
 -24  24  -6 83.6711 429.121   2
 -24  24  -6-360.565 499.409   4
 -24  24  -3 119.752 493.894   4
   0 -24  -3-144.823 466.209   1
 -24  24  -3 242.251 404.572   2
  24   0   0 6102.46 565.083   3
 -24  24   0 6991.53 953.680   4
 -24  24   0 6187.15 857.200   2
   0 -24   0 7307.02 993.716   1
  24   0   3-752.135 485.971   3
   0 -24   3 333.051 643.890   1
 -24  24   3-538.346 603.167   4
 -24  24   3-507.794 536.786   2
   0 -24   6 3072.85 953.799   1
 -24  24   6 3863.14 926.536   4
 -24  24   6 4297.01 957.519   2
  24   0   6 3648.86 846.453   3
 -25   0  -7 979.934 854.487   2
 -25   0  -7 101.033 722.025   4
 -25   0  -4 4468.46 929.940   2
 -25   0  -4 2716.09 794.340   4
   0  25  -1 524.008 559.523   3
  25 -25  -1 845.804 755.836   1
 -25   0  -1-660.418 658.346   4
 -25   0  -1-390.426 581.820   2
   0  25   2 8115.32 1160.77   3
  25 -25   2 9331.46 1342.79   1
 -25   0   2 9569.84 1139.33   4
 -25   0   2 9388.56 1096.79   2
   0  25   5 613.858 639.647   3
  25 -25   5 916.593 755.698   1
 -25   0   5-118.001 463.692   4
 -25   0   5-303.116 529.562   2
 -25   1  -5 2920.80 882.716   2
 -24  -1  -5 2194.95 796.633   2
 -25   1  -5 3058.86 820.295   4
 -24  -1  -5 1961.03 817.195   4
 -25   1  -2 1811.36 762.766   2
 -24  -1  -2 2199.36 711.606   2
   1  24  -2 1909.15 682.938   3
  -1  25  -2 1952.53 654.922   3
  25 -24  -2 2219.04 812.160   1
 -25   1  -2 1393.37 710.390   4
 -24  -1  -2 2863.71 840.622   4
  24 -25  -2 1744.24 700.991   1
   1  24   1 4092.64 893.132   3
  -1  25   1 3058.42 847.412   3
  25 -24   1 6140.79 1060.18   1
 -25   1   1 4471.34 865.418   4
 -24  -1   1 4314.21 852.525   4
  24 -25   1 4426.78 1010.28   1
 -25   1   1 4125.24 848.931   2
 -24  -1   1 5377.17 860.241   2
  24 -25   4 4011.17 996.514   1
   1  24   4 1566.20 736.528   3
  -1  25   4 3319.14 871.892   3
  25 -24   4 2060.07 852.105   1
 -25   1   4 2445.42 711.980   4
 -24  -1   4 3550.71 791.188   4
 -25   1   4 2617.87 688.285   2
 -24  -1   4 2930.61 783.418   2
   1  24   7 4670.23 1049.16   3
  -1  25   7 2700.53 901.602   3
  25 -24   7 2763.64 979.769   1
 -24  -1   7 4401.30 1113.51   1
 -25   1   7 4700.30 937.326   2
 -25   1   7 2715.26 718.056   4
 -24  -1   7 2503.90 715.161   4
 -24  -1   7 3060.88 822.348   2
  24 -25   7 1971.32 916.744   1
 -25   2  -6 351.441 649.060   2
 -23  -2  -6 333.227 665.914   2
 -25   2  -6 461.140 711.853   4
 -23  -2  -6 2122.13 867.843   4
 -25   2  -3 3616.40 876.560   2
 -23  -2  -3 2706.83 764.574   2
  23 -25  -3 3078.82 899.727   1
  25 -23  -3 2598.44 831.858   1
 -25   2  -3 3695.90 890.093   4
 -23  -2  -3 2807.68 801.284   4
   2  23   0 2707.76 773.773   3
  -2  25   0 2075.58 711.256   3
  25 -23   0 1786.10 820.493   1
 -25   2   0 1392.23 609.221   4
 -23  -2   0 648.535 518.826   4
  23 -25   0 2228.91 810.767   1
 -25   2   0 2368.93 688.116   2
 -23  -2   0 1305.79 653.638   2
  23 -25   3 3808.78 949.061   1
   2  23   3 2875.14 803.839   3
  -2  25   3 3697.23 832.661   3
 -23  -2   3 4303.76 838.279   4
 -25   2   3 3938.05 756.930   4
 -25   2   3 4061.20 827.125   2
  25 -23   3 3554.73 925.284   1
 -23  -2   3 3221.53 773.218   2
   2  23   6-549.917 639.817   3
  -2  25   6-88.8462 669.941   3
  25 -23   6 406.579 808.203   1
 -25   2   6 92.6841 552.485   4
 -23  -2   6 744.267 535.483   4
 -25   2   6 312.175 520.229   2
  23 -25   6 343.348 734.615   1
 -23  -2   6-478.810 576.786   2
 -25   3  -7 1091.37 713.780   2
 -22  -3  -7-7.24513 625.816   2
 -25   3  -7 188.042 780.384   4
 -22  -3  -7 545.805 755.739   4
  22 -25  -4 3792.89 836.568   1
 -25   3  -4 3081.75 792.648   2
 -22  -3  -4 3911.89 907.720   2
 -25   3  -4 4111.59 949.377   4
 -22  -3  -4 4262.02 964.212   4
 -22  -3  -1 1451.79 600.978   2
  25 -22  -1 1001.17 746.262   1
   3  22  -1 685.735 555.090   3
  -3  25  -1 277.356 512.432   3
 -25   3  -1 491.840 569.528   4
 -22  -3  -1 1795.70 700.300   4
  22 -25  -1 1821.94 733.731   1
 -25   3  -1 1345.31 674.608   2
  22 -25   2 3042.77 838.304   1
   3  22   2 1460.34 624.571   3
  -3  25   2 1689.40 695.774   3
 -25   3   2 2306.71 697.888   4
 -22  -3   2 1458.90 568.141   4
 -25   3   2 1778.45 585.255   2
 -22  -3   2 1754.59 662.538   2
  25 -22   2 1138.36 647.282   1
   3  22   5 220.603 604.132   3
  -3  25   5 878.372 697.370   3
  25 -22   5-528.719 686.427   1
 -25   3   5 522.153 467.409   4
 -22  -3   5-403.802 505.874   4
  22 -25   5 484.848 695.349   1
 -25   3   5 83.0399 558.076   2
 -22  -3   5 624.552 505.641   2
 -25   4  -8 399.961 698.877   2
 -25   4  -8 1359.51 842.689   4
 -21  -4  -8 1118.61 785.057   4
 -25   4  -5 4479.10 922.385   2
 -21  -4  -5 3854.97 879.894   2
  -4  25  -5 3464.28 618.144   4
 -25   4  -5 4324.89 950.719   4
 -21  -4  -5 4453.77 995.424   4
  21 -25  -2 578.482 613.581   1
 -21  -4  -2 663.542 546.934   2
   4  21  -2 735.353 584.000   3
  -4  25  -2 519.345 233.015   2
 -25   4  -2 162.837 508.353   4
 -21  -4  -2 491.555 585.195   4
  25 -21  -2 252.032 595.790   1
 -25   4  -2 200.391 538.707   2
   4  21   1 5649.08 895.328   3
  -4  25   1 4496.12 845.420   3
  25 -21   1 3570.75 892.721   1
 -25   4   1 5308.49 887.982   4
 -21  -4   1 5365.81 845.931   4
 -25   4   1 5853.36 871.681   2
 -21  -4   1 4219.99 813.293   2
  21 -25   1 5170.46 1019.47   1
   4  21   4 1672.63 709.765   3
  -4  25   4 1371.72 614.313   3
 -25   4   4 1529.54 569.203   4
  21 -25   4 2562.08 914.501   1
 -21  -4   4 2119.96 639.040   4
 -25   4   4 2104.21 631.074   2
  25 -21   4 2942.91 886.485   1
 -21  -4   4 1669.74 593.497   2
   4  21   7 1685.18 842.306   3
  -4  25   7 2426.00 816.758   3
 -21  -4   7 3742.84 948.289   1
  21 -25   7 2330.32 873.586   1
  25 -21   7 2242.01 931.281   1
 -25   4   7 1491.16 630.541   4
 -21  -4   7 3209.82 685.732   4
 -25   4   7 2990.11 815.923   2
  25 -21   7-369.021 1948.00   3
 -21  -4   7 1582.98 603.085   2
 -25   5  -6 395.210 569.950   2
  -5  25  -6 631.013 403.312   4
 -25   5  -6 277.449 592.656   4
 -20  -5  -6 284.196 626.221   4
 -25   5  -3 4294.42 822.437   2
 -25   5  -3 2848.96 741.888   4
 -20  -5  -3 4577.97 897.142   4
  20 -25  -3 5271.05 948.642   1
 -20  -5  -3 4455.73 858.347   2
 -20  -5   0 46.2794 529.728   2
  20 -25   0 2404.65 821.646   1
   5  20   0 1211.35 558.531   3
  -5  25   0-628.860 560.081   3
 -25   5   0 556.169 537.521   4
 -20  -5   0 238.558 459.860   4
 -25   5   0 829.827 552.837   2
  25 -20   0 1043.63 720.052   1
   5  20   3 7233.68 1012.42   3
  -5  25   3 5703.26 950.482   3
 -25   5   3 6202.82 923.614   4
  25 -20   3 5589.12 1045.82   1
 -20  -5   3 7420.32 938.080   4
 -25   5   3 6076.30 933.081   2
  20 -25   3 4324.74 974.940   1
 -20  -5   3 5255.68 781.329   2
   5  20   6 861.863 655.500   3
  -5  25   6 945.974 660.985   3
  20 -25   6 1363.86 782.187   1
 -20  -5   6 1324.99 728.498   1
 -25   5   6 672.235 544.372   4
 -20  -5   6 1900.36 617.533   4
 -25   5   6 1335.23 589.035   2
  25 -20   6 1231.32 639.330   1
  25 -20   6 1026.29 1757.72   3
 -20  -5   6 1464.87 580.237   2
 -25   6  -7 511.532 607.459   2
 -19  -6  -7 484.199 696.643   2
 -25   6  -7 1146.02 745.803   4
 -19  -6  -7-256.607 692.410   4
 -19  -6  -4 5296.89 924.458   2
  19 -25  -4 5454.23 893.321   1
 -25   6  -4 4741.93 830.246   2
  -6  25  -4 4260.29 671.272   4
 -25   6  -4 5556.95 921.058   4
 -19  -6  -4 4574.70 920.729   4
  25 -19  -1 312.313 294.042   3
 -19  -6  -1 331.074 454.775   2
  -6  25  -1-51.0460 316.002   2
   6  19  -1 466.486 522.447   3
  -6  25  -1-525.534 500.792   3
  19 -25  -1 597.201 616.003   1
  25 -19  -1 812.048 707.638   1
 -25   6  -1-129.595 488.051   4
 -19  -6  -1-167.987 533.764   4
 -25   6  -1-308.383 642.391   2
   6  19   2 1059.00 601.510   3
  -6  25   2 638.190 552.146   3
  25 -19   2 925.806 642.101   1
 -25   6   2 1094.50 549.901   4
  19 -25   2-1.96178 587.683   1
 -19  -6   2 414.581 554.795   4
 -25   6   2 449.795 548.016   2
 -19  -6   2 377.190 509.591   2
   6  19   5-284.356 572.394   3
  -6  25   5 1329.37 661.440   3
  19 -25   5-58.2354 635.481   1
 -19  -6   5 495.163 628.365   1
 -25   6   5 333.645 432.618   4
 -19  -6   5 276.894 442.590   4
 -25   6   5-262.237 472.040   2
  25 -19   5-1145.54 1568.50   3
 -19  -6   5 240.161 492.623   2
   6  19   8 2634.06 897.243   3
  -6  25   8 1163.03 775.163   3
  19 -25   8 2597.62 948.391   1
 -19  -6   8 460.390 834.328   1
 -25   6   8 2512.82 676.793   4
 -25   6   8 2178.36 792.581   2
  25 -19   8 2821.50 888.573   1
 -19  -6   8 1312.51 596.831   2
 -25   7  -8 781.477 660.244   2
 -25   7  -8 426.491 671.160   4
 -18  -7  -5 5005.38 937.014   2
 -25   7  -5 3895.63 819.680   2
  -7  25  -5 2744.28 564.412   4
  18 -25  -5 4374.09 794.102   1
 -25   7  -5 5295.60 907.270   4
 -18  -7  -5 3923.43 905.192   4
  -7  25  -2 105.016 221.738   2
 -18  -7  -2 416.645 463.320   2
   7  18  -2-620.403 522.833   3
  -7  25  -2 545.831 213.304   2
 -25   7  -2-314.965 578.496   4
  18 -25  -2 1260.66 644.379   1
 -18  -7  -2 641.145 510.386   4
  25 -18  -2 117.864 176.318   3
 -25   7  -2-299.772 491.675   2
   7  18   1 4615.33 807.747   3
  25 -18   1 3399.82 530.335   3
  -7  25   1 2914.77 685.447   3
 -25   7   1 4857.58 784.667   4
 -25   7   1 3779.63 754.934   2
 -18  -7   1 4582.38 765.836   4
  18 -25   1 4916.96 934.810   1
 -18  -7   1 4212.25 738.241   2
  25 -18   1 4389.85 857.172   1
  25 -18   4 1961.56 737.923   1
   7  18   4 544.310 532.948   3
  -7  25   4 245.629 501.008   3
  18 -25   4 187.079 573.222   1
 -18  -7   4 1080.50 704.344   1
 -25   7   4 986.607 577.683   4
 -18  -7   4 360.536 416.630   4
 -25   7   4 643.439 447.278   2
  25 -18   4 661.858 1451.73   3
 -18  -7   4 741.678 450.357   2
   7  18   7 2385.91 928.644   3
  -7  25   7 4577.20 931.156   3
  18 -25   7 2787.92 924.709   1
 -18  -7   7 2321.57 806.993   1
 -25   7   7 1714.24 622.369   4
 -25   7   7 3808.73 853.654   2
 -18  -7   7 2360.61 606.652   4
 -18  -7   7 2855.82 645.404   2
  25 -18   7 2898.36 964.780   1
 -25   8  -6 1128.92 618.182   2
 -17  -8  -6 808.465 621.460   2
  -8  25  -6 688.028 344.154   4
 -17  -8  -6 1827.85 460.648   1
 -25   8  -6 1829.01 703.837   4
 -17  -8  -6 1540.17 742.947   4
  -8  25  -3 5429.79 761.836   4
  17 -25  -3 6804.65 954.254   1
 -25   8  -3 7732.10 1026.05   4
 -17  -8  -3 8655.09 1148.27   4
 -25   8  -3 8517.93 1044.69   2
 -17  -8  -3 6950.03 965.160   2
 -17  -8   0 208.204 408.575   2
  25 -17   0 285.798 279.805   3
   8  17   0 875.599 539.778   3
  -8  25   0 391.613 509.154   3
  -8  25   0 332.534 342.409   2
  25 -17   0 1154.31 644.598   1
 -25   8   0 148.394 455.997   4
  17 -25   0 855.724 567.696   1
 -17  -8   0 585.707 509.724   4
 -25   8   0 927.972 536.728   2
   8  17   3 6512.17 948.748   3
  -8  25   3 5016.25 866.042   3
  17 -25   3 4490.48 961.242   1
 -17  -8   3 6445.68 974.515   1
 -25   8   3 5583.41 861.260   4
  25 -17   3 4488.35 894.160   1
 -25   8   3 5619.35 878.216   2
 -17  -8   3 6235.97 845.651   4
 -17  -8   3 5812.13 799.233   2
  25 -17   6 834.526 714.255   1
   8  17   6 1900.83 794.717   3
  17 -25   6 604.174 734.952   1
  -8  25   6 1788.81 758.128   3
 -17  -8   6 682.733 719.694   1
 -25   8   6 1389.76 562.899   4
 -25   8   6 1339.88 594.125   2
 -17  -8   6 231.145 444.052   4
 -17  -8   6 1270.94 543.030   2
 -25   9  -7 230.626 578.382   2
 -25   9  -7 993.783 635.256   4
 -25   9  -4 1039.88 589.619   2
  16 -25  -4 459.739 488.839   1
 -16  -9  -4 910.784 584.986   2
  -9  25  -4 502.769 407.670   4
 -16  -9  -4 1327.24 487.962   1
 -25   9  -4 1441.69 638.956   4
 -16  -9  -4 688.043 594.162   4
 -16  -9  -1-47.6724 441.672   2
  -9  25  -1 628.069 345.648   2
   9  16  -1 535.726 450.557   3
  -9  25  -1 963.626 551.860   3
 -16  -9  -1 763.320 529.680   1
  -9  25  -1 758.106 311.253   2
 -25   9  -1 570.007 481.530   4
 -16  -9  -1 1091.56 618.819   4
  16 -25  -1 1470.24 723.469   1
  25 -16  -1 250.039 456.527   3
 -25   9  -1-606.147 483.051   2
  25 -16  -1 366.830 146.787   3
   9  16   2 2459.90 684.661   3
  16 -25   2 2894.83 776.648   1
  25 -16   2 4354.90 939.242   1
  -9  25   2 3171.55 690.925   3
 -16  -9   2 2964.40 715.560   1
 -25   9   2 3508.66 729.859   4
 -16  -9   2 3359.44 729.401   4
 -25   9   2 3158.27 714.218   2
 -16  -9   2 4179.72 693.069   2
   9  16   5-407.885 565.053   3
  -9  25   5 148.571 565.129   3
  25 -16   5-511.110 695.724   1
 -25   9   5-888.162 541.447   4
 -16  -9   5-467.094 557.588   1
 -25   9   5-23.2506 474.900   2
 -16  -9   5 1432.37 500.730   4
  25 -16   5 3088.64 1944.38   3
 -16  -9   5 609.049 416.008   2
  16 -25   5 1591.05 852.337   1
   9  16   8 599.921 725.644   3
  -9  25   8 1096.72 707.826   3
  25 -16   8 1238.18 723.288   1
 -25   9   8 1039.63 554.146   4
 -16  -9   8 2316.76 892.792   1
 -25   9   8 1438.14 820.911   2
  25 -16   8-589.171 1651.54   3
 -16  -9   8 1119.26 512.222   2
  16 -25   8 92.3013 725.252   1
 -25  10  -8 806.835 684.405   2
 -25  10  -8 1925.06 783.287   4
  15 -25  -5 4299.88 747.060   1
 -25  10  -5 2803.75 737.981   2
 -15 -10  -5 3765.19 883.547   2
 -10  25  -5 2646.61 558.208   4
 -15 -10  -5 3009.19 536.480   1
 -25  10  -5 1932.02 720.441   4
 -15 -10  -5 4089.31 837.885   4
 -15 -10  -2 1103.71 501.463   2
 -10  25  -2 98.5410 247.268   2
  10  15  -2 550.317 445.080   3
 -10  25  -2 325.786 470.984   4
 -15 -10  -2-134.823 433.640   1
 -10  25  -2 721.975 243.857   2
 -25  10  -2 901.684 533.193   4
 -15 -10  -2 655.293 594.971   4
 -25  10  -2 1151.83 549.883   2
  15 -25  -2 579.755 495.664   1
 -15 -10   1 1864.96 529.830   2
  10  15   1 734.039 508.224   3
  15 -25   1 1543.32 586.548   1
  25 -15   1 1743.20 365.389   3
 -10  25   1 1972.74 572.733   3
 -10  25   1 1971.09 493.827   2
 -15 -10   1 1445.03 571.286   1
 -25  10   1 1701.13 547.284   4
 -15 -10   1 2467.74 680.732   4
 -25  10   1 2584.99 668.777   2
  25 -15   1 840.866 988.179   3
  25 -15   1 1030.95 627.431   1
  10  15   4 694.693 556.937   3
 -10  25   4 1794.40 639.642   3
 -25  10   4 3622.31 732.447   4
 -15 -10   4 1889.98 725.937   1
 -25  10   4 1667.76 572.593   2
 -15 -10   4 1917.53 569.241   4
  25 -15   4-309.246 1402.78   3
  25 -15   4 1672.33 717.297   1
  15 -25   4 923.601 624.076   1
 -15 -10   4 2148.27 529.776   2
  10  15   7 1049.67 744.275   3
 -10  25   7 1589.17 723.701   3
  25 -15   7 709.727 611.635   1
 -25  10   7 181.352 460.131   4
 -15 -10   7 1260.40 686.419   1
 -25  10   7 542.629 621.622   2
  25 -15   7 1143.49 1432.55   3
 -15 -10   7 589.337 473.863   2
  15 -25   7 721.172 730.686   1
  14 -25  -6 2122.53 561.092   1
 -25  11  -6 2339.14 719.135   2
 -11  25  -6 1981.28 480.142   4
 -25  11  -6 2063.53 703.488   4
  14 -25  -3 9782.30 1062.81   1
 -14 -11  -3 8832.01 1074.28   2
 -11  25  -3 7263.69 828.304   4
 -14 -11  -3 13516.9 1021.81   1
 -25  11  -3 10182.3 1080.78   4
 -14 -11  -3 10194.3 1173.95   4
 -25  11  -3 10191.7 1086.62   2
  25 -14   0 4635.09 356.997   3
  11  14   0 5313.15 768.008   3
 -11  25   0 4740.43 816.206   3
 -11  25   0 4834.41 778.216   4
 -11  25   0 4510.88 602.283   2
 -14 -11   0 4564.85 764.092   1
 -25  11   0 5150.68 813.315   4
  14 -25   0 4837.76 944.834   1
 -14 -11   0 5895.71 864.196   4
 -25  11   0 5634.73 842.694   2
  25 -14   0 4735.39 384.654   3
 -14 -11   0 3888.87 759.513   2
  11  14   3 3777.38 743.178   3
 -11  25   3 3293.26 733.505   3
 -14 -11   3 5101.54 871.244   1
 -25  11   3 3748.33 676.866   4
 -25  11   3 4433.62 815.652   2
 -14 -11   3 3610.05 697.662   4
  25 -14   3 4437.23 842.284   1
 -14 -11   3 3792.17 625.544   2
  14 -25   3 2819.38 861.160   1
  11  14   6 2448.93 820.371   3
 -11  25   6 2608.87 746.655   3
 -25  11   6 3199.10 753.526   4
 -14 -11   6 3665.20 879.336   1
 -25  11   6 2826.41 785.321   2
  25 -14   6 3325.86 815.383   1
  25 -14   6 1661.69 1134.01   3
  14 -25   6 1293.41 755.762   1
 -14 -11   6 2345.05 554.758   2
 -25  12  -7 1115.04 650.602   2
 -12  25  -7 549.686 368.925   4
 -25  12  -7 1056.89 624.311   4
 -13 -12  -4 1110.56 631.407   2
 -12  25  -4 1165.79 466.993   4
 -25  12  -4 572.474 512.905   4
 -13 -12  -4 1032.72 429.726   1
  13 -25  -4 1898.80 618.759   1
 -13 -12  -4-191.006 574.567   4
 -25  12  -4 508.427 484.470   2
 -13 -12  -1 1484.79 551.798   2
  12  13  -1 2698.30 565.773   3
 -12  25  -1 1914.80 607.883   4
 -12  25  -1 1834.58 383.596   2
 -13 -12  -1 2396.45 579.714   1
  13 -25  -1 3273.98 774.999   1
 -25  12  -1 1683.02 553.265   4
 -13 -12  -1 1803.96 668.427   4
 -25  12  -1 2646.73 596.704   2
  12  13   2 2163.83 614.164   3
 -12  25   2 3016.80 680.457   3
 -12  25   2 3289.02 608.487   2
 -13 -12   2 4029.05 833.166   1
 -25  12   2 4390.41 787.720   4
  25 -13   2 3046.58 755.191   1
 -25  12   2 4763.00 794.563   2
 -13 -12   2 2931.94 645.479   4
  25 -13   2 4177.04 613.826   3
 -13 -12   2 3481.74 630.461   2
  13 -25   2 3782.74 805.883   1
  12  13   5 385.206 569.166   3
 -12  25   5-228.789 501.394   3
  25 -13   5 148.503 586.210   1
 -25  12   5 295.571 432.930   4
 -13 -12   5-412.865 576.380   1
 -25  12   5 419.829 505.590   2
  13 -25   5 1106.65 713.564   1
  25 -13   5 22.8866 730.310   3
 -13 -12   5-118.683 386.206   2
  12  13   8 1976.66 831.079   3
 -12  25   8 2593.18 800.622   3
 -25  12   8 1733.73 617.413   4
 -25  12   8 2016.65 857.964   2
 -13 -12   8 1412.79 780.835   1
  13 -25   8 802.393 783.433   1
  25 -13   8 1928.31 948.266   3
  25 -13   8 2060.53 761.339   1
 -25  13  -8 1856.83 701.391   2
 -25  13  -8 2569.72 812.298   4
 -25  13  -5 175.291 501.635   2
  12 -25  -5-231.820 433.017   1
 -13  25  -5 143.895 362.866   4
 -25  13  -5-533.099 556.118   4
 -12 -13  -5-203.357 337.587   1
 -12 -13  -2 4410.14 764.452   2
  13  12  -2 3419.78 647.278   3
 -13  25  -2 2851.50 659.084   4
 -12 -13  -2 4102.25 668.057   1
 -13  25  -2 3171.29 397.214   2
 -25  13  -2 3770.73 712.523   4
  12 -25  -2 5069.38 806.619   1
 -12 -13  -2 2901.09 782.076   4
 -25  13  -2 4288.16 724.958   2
 -12 -13   1 1335.80 488.244   2
  13  12   1 1720.36 523.385   3
 -13  25   1 2250.43 583.243   3
  25 -12   1 1831.04 332.803   3
 -13  25   1 1531.84 585.275   4
 -13  25   1 929.416 426.795   2
 -25  13   1 1207.97 487.572   4
 -12 -13   1 3143.21 733.424   1
 -12 -13   1 1419.97 511.637   4
 -25  13   1 2700.19 591.427   2
  25 -12   1 1430.90 341.375   3
  12 -25   1 2139.03 737.115   1
 -12 -13   4 1264.35 438.385   2
  13  12   4 1918.63 609.496   3
 -13  25   4 1374.89 555.386   3
 -13  25   4 1272.17 564.817   2
 -25  13   4 1131.67 566.155   4
 -12 -13   4 664.356 651.328   1
 -25  13   4 704.343 510.604   2
  12 -25   4 2418.81 795.470   1
  25 -12   4 1417.30 662.333   1
  25 -12   4 433.611 506.483   3
  13  12   7 2598.55 788.613   3
 -13  25   7 1209.75 635.196   3
 -13  25   7 802.617 725.210   4
 -13  25   7 1520.80 743.500   2
 -25  13   7 1275.44 588.599   4
  25 -12   7 2124.65 751.629   1
 -25  13   7 2195.26 758.092   2
  12 -25   7 37.6823 708.033   1
 -12 -13   7 1080.88 711.622   1
  25 -12   7 941.429 722.831   3
 -25  14  -6 3038.46 701.053   2
  11 -25  -6 1986.90 507.728   1
 -14  25  -6 2040.64 507.548   4
 -25  14  -6 2937.96 746.205   4
 -11 -14  -3 3405.15 803.410   2
 -14  25  -3 4296.16 698.127   4
 -11 -14  -3 5680.34 716.017   1
 -25  14  -3 5877.04 889.154   4
 -14  25  -3 3112.94 343.649   2
 -25  14  -3 5322.48 823.266   2
  11 -25  -3 4248.66 786.316   1
 -11 -14   0 4662.63 730.785   2
  25 -11   0 3588.82 208.913   3
  14  11   0 5306.26 730.103   3
 -14  25   0 5817.59 839.405   3
 -14  25   0 3871.67 735.141   4
 -11 -14   0 5833.17 809.496   1
 -25  14   0 5463.56 816.528   4
 -14  25   0 3381.68 535.153   2
 -25  14   0 5001.93 777.169   2
  11 -25   0 3319.53 777.725   1
 -14  25   3 9887.46 1025.87   3
  11 -25   3 9601.14 1210.81   1
 -14  25   3 7579.52 1007.46   4
 -14  25   3 8164.13 927.802   2
 -11 -14   3 11411.3 1218.92   1
 -25  14   3 10799.1 1100.86   4
 -25  14   3 10617.2 1114.55   2
  25 -11   3 10468.6 899.669   3
 -11 -14   3 7574.78 742.035   2
  14  11   3 11173.9 1108.15   3
  14  11   6 3240.49 787.133   3
 -14  25   6 2916.23 706.623   3
 -14  25   6 2130.66 737.956   4
 -14  25   6 1961.34 687.744   2
 -25  14   6 2672.40 740.402   4
 -25  14   6 2593.45 808.901   2
  11 -25   6 2671.10 840.510   1
 -11 -14   6 2027.70 806.654   1
  25 -11   6 3340.35 761.318   1
 -11 -14   6 3122.18 534.961   2
  25 -11   6 2575.18 761.097   3
 -25  15  -7 943.838 597.868   2
 -15  25  -7 465.854 379.805   4
 -25  15  -7 1376.24 645.727   4
 -15  25  -4 1221.63 478.674   4
 -25  15  -4 2552.98 684.921   4
 -10 -15  -4 1326.83 443.240   1
 -25  15  -4 1107.50 562.639   2
 -15  25  -4 638.320 188.575   2
  10 -25  -4 1922.32 589.297   1
  15  10  -1 1339.90 444.678   3
 -10 -15  -1 551.002 424.221   2
 -15  25  -1 1510.02 562.690   4
 -25  15  -1 1682.49 588.079   4
 -15  25  -1 846.703 366.723   2
 -10 -15  -1 1855.06 558.726   1
 -25  15  -1 2171.47 569.018   2
  10 -25  -1 1303.36 580.848   1
  15  10   2 692.701 463.901   3
 -10 -15   2 301.131 396.719   2
 -15  25   2 711.155 436.000   3
 -15  25   2 134.032 442.786   4
 -15  25   2 210.045 398.344   2
 -25  15   2 952.647 490.293   4
 -10 -15   2-60.2862 489.669   1
 -25  15   2 625.941 464.242   2
  10 -25   2 454.489 575.692   1
  25 -10   2 353.904 314.923   3
 -15  25   5 3043.98 661.063   3
 -15  25   5 2618.88 750.999   4
 -10 -15   5 5023.28 958.014   1
 -25  15   5 2737.65 687.223   4
 -15  25   5 1948.31 659.482   2
  10 -25   5 1141.87 697.289   1
 -25  15   5 3055.66 788.556   2
  25 -10   5 3334.50 716.752   3
 -10 -15   5 2454.77 473.772   2
  15  10   5 4223.74 870.393   3
 -15  25   8 1299.11 677.360   3
 -15  25   8 1284.66 686.160   4
 -15  25   8-160.847 657.958   2
 -25  15   8 1032.71 619.159   4
 -25  15   8 1464.85 759.877   2
  10 -25   8 604.617 792.415   1
 -10 -15   8 237.623 725.943   1
  25 -10   8 261.830 699.941   3
  15  10   8 1543.17 778.251   3
 -25  16  -8 1207.48 687.255   2
 -25  16  -8 220.410 572.684   4
 -25  16  -5 134.341 531.888   2
  -9 -16  -5-79.0616 308.663   1
 -16  25  -5 272.388 380.337   4
 -25  16  -5-43.8465 449.125   4
   9 -25  -5-17.1454 421.223   1
   9 -25  -2 2757.51 708.801   1
  16   9  -2 3757.59 599.318   3
 -16  25  -2 4511.35 761.600   4
 -25  16  -2 3835.43 741.633   4
  -9 -16  -2 5219.80 750.394   1
 -16  25  -2 2873.47 442.421   2
 -25  16  -2 3947.66 671.450   2
  16   9   1 689.617 431.639   3
  -9 -16   1 670.745 400.464   2
 -16  25   1 52.6973 396.237   3
 -16  25   1 1527.08 592.978   4
 -16  25   1 294.785 364.162   2
 -25  16   1 1349.92 521.104   4
   9 -25   1 658.800 553.213   1
 -25  16   1 425.744 432.533   2
  -9 -16   1 634.682 509.653   1
  25  -9   1 799.601 292.880   3
  16   9   4 971.528 586.101   3
  -9 -16   4 808.193 355.206   2
 -16  25   4 1175.92 497.549   3
 -16  25   4 893.746 600.555   4
 -16  25   4 1561.45 596.792   2
 -25  16   4 1090.82 587.309   4
   9 -25   4 1321.25 733.466   1
 -25  16   4 55.4006 494.653   2
  -9 -16   4 716.834 627.715   1
  25  -9   4 1211.61 512.193   3
 -16  25   7 657.958 566.158   3
 -16  25   7-332.213 615.387   4
 -16  25   7-493.841 615.927   2
 -25  16   7 126.235 488.856   4
   9 -25   7 835.035 726.581   1
 -25  16   7 984.351 659.947   2
  -9 -16   7 267.143 695.946   1
  25  -9   7-203.708 632.691   3
  16   9   7-167.528 623.956   3
 -25  17  -6 2357.95 678.595   2
 -17  25  -6 1810.77 540.882   4
   8 -25  -6 485.213 373.411   1
 -25  17  -6 1655.04 637.832   4
 -17  25  -3 4238.57 706.139   4
 -25  17  -3 4167.90 791.046   4
   8 -25  -3 4811.09 732.494   1
  -8 -17  -3 3786.52 626.795   1
 -17  25  -3 4983.80 521.427   2
 -25  17  -3 4283.66 726.347   2
  25  -8   0 232.274 81.0036   3
  17   8   0-261.485 382.384   3
  25  -8   0 165.862 73.4389   3
  -8 -17   0-183.961 375.980   2
 -17  25   0-28.3032 522.884   4
 -25  17   0 453.822 475.800   4
 -17  25   0 77.0640 346.398   2
   8 -25   0 685.926 531.703   1
 -25  17   0 299.142 464.069   2
  -8 -17   0 117.036 502.172   1
   8 -25   3 7195.43 1065.00   1
  -8 -17   3 7477.81 699.394   2
 -17  25   3 6862.31 861.386   3
 -17  25   3 7692.48 1033.16   4
 -17  25   3 8477.18 964.489   2
 -25  17   3 7229.92 956.061   4
 -25  17   3 8463.28 1005.58   2
  -8 -17   3 7542.22 979.487   1
  25  -8   3 8147.58 787.812   3
  17   8   3 7709.27 919.251   3
  17   8   6 2099.49 724.536   3
 -17  25   6 795.898 494.168   3
 -17  25   6 1122.17 634.068   4
 -17  25   6 571.682 544.313   2
 -25  17   6 1621.26 641.299   4
   8 -25   6 1505.09 769.807   1
 -25  17   6 450.880 593.281   2
  -8 -17   6 1671.15 748.689   1
  25  -8   6 1575.75 717.623   3
 -25  18  -7 2635.81 725.014   2
 -18  25  -7 1482.92 520.951   4
 -25  18  -7 3441.84 766.510   4
  -7 -18  -4 471.647 349.907   1
 -18  25  -4 524.576 491.934   4
 -25  18  -4-68.1722 501.368   4
   7 -25  -4 623.415 433.004   1
 -18  25  -4 469.756 274.680   2
 -25  18  -4 351.046 436.034   2
  18   7  -1 3325.81 532.179   3
 -18  25  -1 2832.39 627.852   4
 -25  18  -1 3254.25 731.031   4
 -18  25  -1 3366.81 534.521   2
  -7 -18  -1 4631.78 737.302   1
   7 -25  -1 3803.43 769.744   1
 -25  18  -1 3495.95 687.544   2
  18   7   2 579.688 460.631   3
  -7 -18   2 1098.51 419.857   2
 -18  25   2 100.764 403.426   3
 -18  25   2 57.5243 464.804   4
 -25  18   2 478.849 525.079   4
 -18  25   2-638.837 409.423   2
   7 -25   2 174.683 617.837   1
 -25  18   2 675.716 506.808   2
  -7 -18   2-121.477 540.472   1
  25  -7   2 465.682 336.985   3
  18   7   5 3629.24 808.895   3
 -18  25   5 3758.07 671.736   3
 -18  25   5 4601.40 845.063   2
 -18  25   5 3004.15 791.601   4
 -25  18   5 4416.27 835.928   4
   7 -25   5 3120.42 913.661   1
 -25  18   5 3523.55 827.095   2
  25  -7   5 4588.00 773.908   3
  -7 -18   5 1942.28 742.427   1
 -18  25   8-242.282 568.208   3
 -18  25   8-621.586 790.655   4
 -18  25   8-123.493 654.080   2
   7 -25   8 573.260 850.447   1
 -25  18   8 790.547 645.131   4
 -25  18   8 2547.62 847.900   2
  25  -7   8 798.246 668.828   3
  -7 -18   8 272.916 764.272   1
  18   7   8-1088.00 814.104   3
 -25  19  -8 569.054 582.752   2
 -25  19  -8 1650.55 678.758   4
 -25  19  -5 1034.44 554.754   2
 -19  25  -5 662.763 309.536   2
  -6 -19  -5 185.665 311.281   1
 -19  25  -5 386.336 422.158   4
 -25  19  -5 185.917 519.955   4
   6 -25  -5 328.240 385.380   1
  19   6  -2 281.741 350.015   3
 -19  25  -2 924.670 455.752   4
 -25  19  -2 157.118 509.370   4
 -19  25  -2 428.556 349.628   2
 -25  19  -2 1043.86 487.929   2
   6 -25  -2 599.786 488.516   1
  -6 -19  -2 679.325 439.676   1
  25  -6   1 121.401 284.955   3
  19   6   1-60.7962 367.299   3
 -19  25   1 194.179 464.708   4
 -25  19   1 121.482 572.435   4
   6 -25   1 22.5636 565.369   1
 -19  25   1 221.704 349.840   2
 -25  19   1-355.754 459.016   2
  -6 -19   1-35.5070 501.282   1
 -19  25   4 4008.61 666.188   3
 -19  25   4 4437.60 873.970   4
   6 -25   4 2726.00 835.641   1
 -25  19   4 5022.78 922.412   4
 -19  25   4 3266.53 771.993   2
 -25  19   4 4158.24 880.086   2
  -6 -19   4 4641.67 975.387   1
  25  -6   4 4365.67 694.733   3
  19   6   4 5497.52 854.365   3
 -19  25   7 2904.65 716.475   3
 -19  25   7 773.286 609.291   4
   6 -25   7 2513.26 911.047   1
 -19  25   7 633.113 672.542   2
 -25  19   7 1257.90 639.587   4
 -25  19   7 224.807 624.353   2
  25  -6   7-199.929 636.772   3
  -6 -19   7 91.3123 663.385   1
  19   6   7 181.191 630.997   3
 -25  20  -6 492.841 486.661   2
 -20  25  -6 704.934 461.636   4
 -25  20  -6 807.696 565.637   4
   5 -25  -3 6378.66 816.769   1
 -20  25  -3 5898.30 840.699   4
 -25  20  -3 5752.51 874.200   4
 -20  25  -3 6261.77 639.779   2
 -25  20  -3 7089.76 844.847   2
  -5 -20  -3 6486.65 752.388   1
  25  -5   0 139.671 143.142   3
  20   5   0 451.487 397.190   3
 -20  25   0 263.023 452.752   4
 -25  20   0 437.574 499.604   4
   5 -25   0 979.393 568.330   1
 -20  25   0 430.786 433.091   2
 -25  20   0 974.047 516.886   2
  -5 -20   0 250.163 500.844   1
 -20  25   3 4575.70 696.895   3
 -20  25   3 4129.17 790.692   2
 -20  25   3 3737.49 822.042   4
 -25  20   3 6185.46 956.815   4
 -25  20   3 4932.61 882.126   2
  25  -5   3 4379.62 670.582   3
  -5 -20   3 3135.65 861.793   1
   5 -25   3 5720.55 1035.08   1
  20   5   3 4435.67 706.742   3
 -20  25   6 766.943 516.179   3
   5 -25   6 1509.33 869.661   1
 -20  25   6 1543.80 715.717   4
 -25  20   6 1251.01 602.795   4
 -20  25   6 1251.36 685.801   2
 -25  20   6 945.975 651.259   2
  25  -5   6 243.898 587.544   3
  -5 -20   6 544.664 686.265   1
  20   5   6 759.506 676.772   3
 -25  21  -7 2213.03 649.833   2
 -21  25  -7 2827.89 668.382   4
 -25  21  -7 2268.44 672.595   4
   4 -25  -4 1141.97 510.152   1
  -4 -21  -4 1054.73 415.933   1
 -21  25  -4 1368.92 564.729   4
 -25  21  -4 827.848 500.513   4
 -21  25  -4 1814.09 447.680   2
 -25  21  -4 1222.19 516.300   2
   4 -25  -1 5033.02 867.120   1
  21   4  -1 4587.68 592.832   3
 -25  21  -1 4469.46 826.571   4
 -21  25  -1 4090.54 747.999   4
 -21  25  -1 3974.16 634.141   2
 -25  21  -1 4910.00 741.758   2
  -4 -21  -1 5825.23 813.509   1
  25  -4   2 277.284 338.841   3
  21   4   2-140.785 405.851   3
   4 -25   2 553.996 551.958   1
 -21  25   2 380.721 552.293   4
 -25  21   2 284.223 536.241   4
 -21  25   2 644.156 462.418   2
 -25  21   2 1132.22 522.845   2
  -4 -21   2-731.890 608.132   1
 -21  25   5 4021.35 669.190   3
 -21  25   5 2470.22 765.660   4
 -25  21   5 4684.14 875.961   4
 -21  25   5 3677.58 808.779   2
 -25  21   5 4919.52 959.405   2
   4 -25   5 4956.29 1070.50   1
  25  -4   5 4959.13 832.518   3
  -4 -21   5 4216.79 994.885   1
  21   4   5 3890.16 783.587   3
  -4 -21   8 839.177 857.138   1
 -21  25   8 1844.60 687.241   3
   4 -25   8 418.753 824.163   1
 -21  25   8 1702.18 833.332   4
 -25  21   8 1875.28 722.350   4
 -21  25   8-57.4000 667.810   2
 -25  21   8 1139.87 749.204   2
  25  -4   8 1802.56 753.692   3
  21   4   8 1172.07 802.590   3
 -22  25  -5 418.574 372.154   2
 -22  25  -5 54.8914 449.222   4
 -25  22  -5 1133.54 578.753   4
   3 -25  -5 417.113 417.375   1
  -3 -22  -5 398.727 368.614   1
 -25  22  -5 641.950 456.736   2
  -3 -22  -2 964.978 506.563   1
 -22  25  -2 1050.06 558.393   4
 -25  22  -2 1750.09 644.207   4
   3 -25  -2 734.034 526.513   1
 -22  25  -2 1783.94 489.296   2
 -25  22  -2 2006.21 600.571   2
  -3 -22   1 288.446 519.832   1
  25  -3   1 845.023 343.037   3
  22   3   1 714.984 392.478   3
   3 -25   1 1254.81 619.390   1
 -22  25   1 128.635 474.846   4
 -22  25   1 510.233 448.196   2
 -25  22   1 1307.31 531.042   2
  22   3   4 1845.95 571.618   3
 -22  25   4 2572.23 544.807   3
   3 -25   4 1912.52 826.483   1
 -22  25   4 2423.67 760.996   4
 -25  22   4 3280.65 835.726   4
 -22  25   4 666.998 543.971   2
 -25  22   4 3234.48 804.690   2
  25  -3   4 2297.47 676.424   3
  -3 -22   4 2386.24 803.096   1
  -3 -22   7-602.084 702.464   1
 -22  25   7 315.641 547.702   3
   3 -25   7-569.955 782.297   1
 -22  25   7-1155.48 698.337   4
 -25  22   7 553.882 614.612   4
 -22  25   7-133.110 641.802   2
 -25  22   7-1023.85 738.530   2
  25  -3   7-595.783 663.905   3
  22   3   7-347.251 643.901   3
 -25  23  -6 370.184 453.937   2
 -23  25  -6 852.540 530.450   4
 -25  23  -6 679.000 513.694   4
  -2 -23  -3 2920.03 652.485   1
 -23  25  -3 3842.24 764.623   4
 -25  23  -3 3022.77 700.756   4
 -23  25  -3 3413.10 587.862   2
   2 -25  -3 3204.41 684.922   1
 -25  23  -3 2979.02 649.169   2
  -2 -23   0 1261.09 626.085   1
  25  -2   0 1351.50 306.694   3
  23   2   0 1442.83 404.082   3
   2 -25   0 1343.56 590.876   1
 -23  25   0 1235.07 599.552   4
 -25  23   0 2951.63 717.120   4
 -23  25   0 1661.52 524.414   2
 -25  23   0 1334.51 517.947   2
  -2 -23   3 3111.87 785.182   1
   2 -25   3 2829.40 860.200   1
 -23  25   3 2772.69 737.350   4
 -25  23   3 2834.80 719.023   4
 -23  25   3 2056.10 706.423   2
 -25  23   3 3362.90 752.909   2
  25  -2   3 3575.93 625.032   3
  23   2   3 4048.48 708.947   3
  -2 -23   6-181.193 736.948   1
   2 -25   6-36.0387 755.000   1
 -23  25   6 139.629 416.324   3
 -23  25   6 875.540 672.743   4
 -23  25   6 1246.46 711.075   2
 -25  23   6 906.759 611.527   2
 -25  23   6 500.142 650.403   4
  25  -2   6 151.995 644.434   3
  23   2   6 1108.93 668.921   3
 -24  25  -7 1656.76 633.236   4
 -25  24  -7 3303.79 771.639   4
 -24  25  -4 2664.69 700.758   4
 -25  24  -4 1404.98 642.619   4
  -1 -24  -4 1817.47 549.847   1
   1 -25  -4 2273.72 598.730   1
 -24  25  -4 1934.48 553.492   2
 -25  24  -4 2067.79 584.050   2
  24   1  -1 3720.01 433.643   3
  -1 -24  -1 3901.61 744.431   1
 -24  25  -1 4786.99 897.513   4
   1 -25  -1 2768.01 716.990   1
 -25  24  -1 3782.95 787.208   4
 -24  25  -1 4299.41 756.368   2
 -25  24  -1 2707.12 623.906   2
  25  -1   2 1360.61 457.668   3
  24   1   2 1600.79 501.348   3
  -1 -24   2 1309.15 685.956   1
   1 -25   2 1146.36 671.688   1
 -24  25   2 1047.67 613.291   4
 -25  24   2 1756.03 640.973   4
 -24  25   2 1482.12 611.373   2
 -25  24   2 1477.29 613.753   2
  -1 -24   5 2996.17 943.623   1
   1 -25   5 1462.29 748.109   1
 -24  25   5 1652.84 534.240   3
 -24  25   5 1595.47 755.869   4
 -25  24   5 1570.25 642.310   4
 -24  25   5 3177.90 815.114   2
  25  -1   5 2625.91 687.524   3
  24   1   5 2543.18 786.398   3
 -25  25  -5 424.169 546.497   4
 -25  25  -5 219.564 420.700   2
 -25  25  -2 8738.44 1135.80   4
 -25  25  -2 8364.23 910.582   2
   0 -25  -2 9071.57 1052.46   1
  25   0   1-96.6438 357.017   3
   0 -25   1-617.747 570.226   1
 -25  25   1-170.701 515.578   4
 -25  25   1 56.9586 469.376   2
  25   0   4 3246.95 725.447   3
   0 -25   4 2586.43 840.160   1
 -25  25   4 2496.03 757.576   4
 -25  25   4 3924.47 839.270   2
   0 -25   7 150.316 721.978   1
 -25  25   7-373.743 666.146   4
 -25  25   7 304.225 698.343   2
  25   0   7-781.054 663.364   3
 -26   0  -5 172.107 648.199   2
 -26   0  -5 142.345 733.725   4
  26 -26  -2 8863.61 1234.64   1
   0  26  -2 6299.89 1079.79   3
 -26   0  -2 7714.69 1141.34   4
 -26   0  -2 6780.94 1092.33   2
   0  26   1-637.019 660.923   3
 -26   0   1-120.481 568.320   4
 -26   0   1 749.288 588.240   2
  26 -26   1 805.784 754.348   1
   0  26   4 6637.75 1135.42   3
  26 -26   4 5688.65 1165.77   1
 -26   0   4 5508.45 961.690   4
 -26   0   4 6130.53 990.461   2
 -26   1  -6 36.0244 638.494   2
 -25  -1  -6 1600.50 822.518   2
 -26   1  -6-352.977 728.661   4
 -25  -1  -6 1632.04 821.673   4
  26 -25  -3 2371.54 786.240   1
 -26   1  -3 2125.54 720.701   2
 -25  -1  -3 1197.70 657.963   2
 -26   1  -3 1591.55 761.306   4
 -25  -1  -3 1470.34 733.292   4
  25 -26  -3 641.242 659.996   1
  25 -26   0 1115.74 737.980   1
   1  25   0 2032.79 763.986   3
  -1  26   0 1429.24 736.266   3
  26 -25   0 2372.60 865.298   1
 -26   1   0 1674.46 688.911   4
 -25  -1   0 1546.61 710.801   4
 -26   1   0 1369.44 674.430   2
 -25  -1   0 1300.78 597.625   2
   1  25   3 2396.88 815.303   3
  -1  26   3 1521.48 729.774   3
  25 -26   3 2699.84 964.474   1
 -26   1   3 1663.79 664.198   4
 -25  -1   3 2987.40 790.805   4
  26 -25   3 3151.55 976.213   1
 -26   1   3 2915.78 789.128   2
 -25  -1   3 2765.88 745.681   2
   1  25   6-252.203 653.465   3
  -1  26   6 1155.16 804.500   3
  26 -25   6 866.380 918.967   1
 -26   1   6 1297.35 705.968   4
 -25  -1   6 195.279 559.763   4
 -26   1   6-357.665 606.757   2
 -25  -1   6 388.470 656.033   2
  25 -26   6 2518.32 910.592   1
 -26   2  -7 869.297 744.574   2
 -24  -2  -7 386.391 818.936   2
 -26   2  -7-618.550 809.014   4
 -24  -2  -7 115.342 768.564   4
 -26   2  -4 1921.45 711.827   2
 -24  -2  -4 2166.22 804.944   2
  24 -26  -4 1182.13 659.884   1
 -26   2  -4 2320.03 818.501   4
 -24  -2  -4 1598.64 828.922   4
 -24  -2  -1 1210.10 652.383   2
  24 -26  -1 749.967 662.608   1
   2  24  -1 2055.32 698.391   3
  -2  26  -1 1080.14 635.708   3
 -26   2  -1 1035.35 576.897   4
 -24  -2  -1 965.770 666.576   4
  26 -24  -1 1145.60 682.007   1
 -26   2  -1 1228.19 621.048   2
   2  24   2 1340.35 688.520   3
  -2  26   2 2223.19 734.137   3
  24 -26   2 912.668 735.359   1
 -26   2   2 2173.44 624.341   4
 -24  -2   2 1303.34 600.380   4
 -26   2   2 1481.73 660.325   2
 -24  -2   2 1686.96 611.314   2
  26 -24   2 1544.58 816.335   1
   2  24   5 1796.63 819.827   3
  -2  26   5 1485.47 767.104   3
  26 -24   5 2504.42 1014.70   1
 -26   2   5 924.180 572.064   4
 -24  -2   5 2408.21 716.626   4
 -26   2   5 1183.46 571.318   2
 -24  -2   5 1592.26 611.247   2
  24 -26   5 853.320 777.593   1
 -26   3  -5 308.946 652.598   2
 -23  -3  -5-111.230 575.656   2
  -3  26  -5-126.103 407.921   4
 -26   3  -5-214.294 663.794   4
 -23  -3  -5 1772.94 812.969   4
   3  23  -2 8146.63 1081.91   3
  26 -23  -2 8955.72 1223.73   1
 -26   3  -2 8019.64 1067.48   4
 -23  -3  -2 9019.20 1208.92   4
  23 -26  -2 8784.84 1185.65   1
 -26   3  -2 7343.08 1048.76   2
 -23  -3  -2 8005.01 1081.23   2
   3  23   1 1046.23 618.358   3
  -3  26   1 657.826 590.341   3
  26 -23   1 510.027 615.991   1
  23 -26   1 857.240 640.634   1
 -26   3   1-1008.38 651.865   4
 -23  -3   1 1139.80 617.686   4
 -26   3   1 1497.28 611.386   2
 -23  -3   1-226.872 575.774   2
   3  23   4 4235.98 911.351   3
  -3  26   4 4849.85 946.675   3
  26 -23   4 6137.82 1161.49   1
 -26   3   4 4830.64 854.207   4
 -23  -3   4 4880.41 838.303   4
 -23  -3   4 5374.75 875.534   2
 -26   3   4 4071.13 827.226   2
  23 -26   4 5135.41 1094.53   1
   3  23   7 631.651 775.414   3
  -3  26   7 1476.81 819.043   3
 -23  -3   7-518.073 701.954   1
  26 -23   7 843.620 832.412   1
 -26   3   7 537.533 543.949   4
 -23  -3   7 928.815 603.605   4
  23 -26   7 1005.59 899.565   1
 -26   3   7 444.138 620.305   2
 -23  -3   7 902.417 670.823   2
 -26   4  -6 1003.66 715.245   2
 -22  -4  -6 1622.86 835.366   2
 -26   4  -6 2250.31 887.810   4
 -22  -4  -6 2985.08 969.367   4
 -26   4  -3 740.755 610.843   2
 -22  -4  -3 902.146 657.447   2
 -26   4  -3 1440.63 701.748   4
 -22  -4  -3 199.191 572.768   4
  22 -26  -3 973.314 717.074   1
   4  22   0 3727.28 790.297   3
  -4  26   0 3474.72 782.299   3
  22 -26   0 3032.14 896.619   1
 -26   4   0 3921.07 819.581   4
 -22  -4   0 4178.74 845.297   4
 -26   4   0 3843.55 858.666   2
 -22  -4   0 4241.08 837.819   2
  26 -22   0 5466.42 1026.17   1
   4  22   3 1308.34 640.999   3
  -4  26   3 2072.36 699.000   3
 -26   4   3 1434.79 622.930   4
 -22  -4   3 1394.71 594.526   4
 -26   4   3 1904.99 594.620   2
  22 -26   3 658.105 692.253   1
 -22  -4   3 882.606 538.222   2
  26 -22   3 1260.01 795.981   1
   4  22   6 1969.33 813.174   3
  -4  26   6 2172.41 837.484   3
 -22  -4   6 536.864 665.187   1
 -26   4   6 1185.33 584.975   4
  22 -26   6 1594.63 870.510   1
 -22  -4   6 2589.60 702.644   4
  26 -22   6 1486.91 871.214   1
 -26   4   6 2289.20 777.950   2
  26 -22   6 1497.81 1975.00   3
 -22  -4   6 1587.22 605.865   2
 -26   5  -7 673.927 716.438   2
 -21  -5  -7 1090.50 765.971   2
 -26   5  -7 1991.08 937.709   4
 -21  -5  -7 883.283 845.206   4
 -26   5  -4 495.305 597.424   2
 -21  -5  -4 1204.87 654.634   2
  21 -26  -4 691.948 582.836   1
 -26   5  -4 1328.63 705.448   4
 -21  -5  -4-270.840 628.156   4
 -21  -5  -1 1849.31 631.119   2
   5  21  -1 548.062 503.741   3
  -5  26  -1 2336.02 689.333   3
 -26   5  -1 1027.49 537.581   4
 -21  -5  -1 669.266 537.711   4
  21 -26  -1 1241.64 660.307   1
  26 -21  -1 2291.41 748.784   1
 -26   5  -1 2625.48 742.708   2
   5  21   2-975.385 604.451   3
  -5  26   2 822.194 643.230   3
  26 -21   2 23.3355 591.580   1
 -26   5   2-178.885 532.924   4
 -21  -5   2-431.733 550.974   4
 -26   5   2-191.995 527.197   2
  21 -26   2-270.279 638.678   1
 -21  -5   2-270.416 427.456   2
   5  21   5 3247.80 945.667   3
  -5  26   5 4521.33 954.907   3
  26 -21   5 5509.58 1120.17   1
 -21  -5   5 5200.28 1027.55   1
  21 -26   5 2558.66 933.324   1
 -26   5   5 4378.05 847.793   4
 -21  -5   5 3091.33 719.256   4
 -21  -5   5 3890.55 789.354   2
 -26   5   5 3271.65 801.285   2
 -26   6  -8 488.495 707.655   2
 -26   6  -8 2199.38 843.291   4
 -20  -6  -8 2629.29 937.429   4
 -26   6  -5 758.743 641.922   2
 -20  -6  -5-316.396 619.762   2
  -6  26  -5 321.428 408.543   4
 -26   6  -5 657.319 682.748   4
 -20  -6  -5 1160.99 775.746   4
  20 -26  -5 39.3931 523.647   1
   6  20  -2 8525.45 1057.39   3
  20 -26  -2 5447.52 1032.84   1
 -26   6  -2 6514.10 1010.86   4
 -20  -6  -2 6294.31 1069.28   4
 -26   6  -2 6690.65 1016.29   2
 -20  -6  -2 8117.39 1062.53   2
   6  20   1 696.200 559.948   3
  -6  26   1 1267.62 626.647   3
 -26   6   1 850.181 571.155   4
 -20  -6   1 561.750 533.524   4
 -26   6   1 1123.40 598.323   2
  26 -20   1 1140.20 654.469   1
  20 -26   1 859.896 627.713   1
 -20  -6   1 1351.45 572.974   2
   6  20   4 6408.49 993.731   3
  -6  26   4 6197.70 1010.11   3
 -20  -6   4 5243.82 1020.01   1
 -26   6   4 5752.06 909.285   4
  26 -20   4 5904.34 1062.49   1
 -20  -6   4 6125.55 897.749   4
 -26   6   4 4908.03 880.184   2
  20 -26   4 5243.78 1044.02   1
 -20  -6   4 4828.25 784.123   2
   6  20   7 1098.77 819.390   3
  -6  26   7 1574.90 796.599   3
  20 -26   7 1324.40 842.385   1
 -20  -6   7 866.146 739.337   1
 -26   6   7 839.256 580.613   4
 -26   6   7 973.981 623.523   2
  26 -20   7-2132.04 2385.64   3
 -20  -6   7 731.225 573.162   2
  26 -20   7 1327.61 824.082   1
 -19  -7  -6 4130.65 1023.35   2
 -19  -7  -6 5709.79 731.527   1
  -7  26  -6 2770.52 566.371   4
 -26   7  -6 5816.59 1010.11   4
 -19  -7  -6 5534.25 1067.69   4
 -26   7  -6 6386.53 1129.02   2
  19 -26  -3 1967.05 761.609   1
 -19  -7  -3 476.906 533.574   2
 -26   7  -3 1825.22 717.276   4
 -19  -7  -3 1117.86 621.160   4
 -26   7  -3 616.211 631.877   2
   7  19   0 6066.32 929.964   3
  -7  26   0 4512.48 818.072   3
  26 -19   0 6437.28 1050.19   1
 -26   7   0 5567.54 863.328   4
 -19  -7   0 5889.92 948.963   4
 -26   7   0 5014.74 837.368   2
  19 -26   0 6359.12 1054.21   1
 -19  -7   0 6510.00 930.231   2
   7  19   3 1701.46 625.526   3
  -7  26   3 1918.11 630.338   3
 -19  -7   3 2414.36 850.615   1
  26 -19   3 2590.54 778.604   1
  19 -26   3 2869.89 866.004   1
 -26   7   3 1980.37 609.462   4
 -19  -7   3 2241.99 623.829   4
 -26   7   3 2642.18 731.778   2
 -19  -7   3 2113.25 567.441   2
  -7  26   6 6960.45 1081.62   3
 -19  -7   6 6623.66 1164.02   1
 -26   7   6 6058.50 897.032   4
  19 -26   6 5519.82 1142.14   1
 -26   7   6 5785.51 974.614   2
 -19  -7   6 7266.94 892.505   4
 -19  -7   6 6671.45 895.264   2
   7  19   6 6303.08 1089.72   3
  26 -19   6 4607.47 1079.70   1
 -26   8  -7 2053.86 762.368   2
 -26   8  -7 1874.47 829.112   4
 -18  -8  -7 2535.80 922.351   4
 -26   8  -4 1695.97 675.807   2
 -18  -8  -4 593.517 565.756   2
  18 -26  -4 881.556 602.019   1
  -8  26  -4 136.191 393.923   4
 -26   8  -4 989.955 551.484   4
 -18  -8  -4 1601.80 700.062   4
  18 -26  -1 959.751 642.245   1
 -18  -8  -1 2778.01 686.288   2
   8  18  -1 1178.96 563.770   3
  -8  26  -1 1757.55 617.495   3
  -8  26  -1 1364.00 355.588   2
 -26   8  -1 2422.36 708.450   4
 -18  -8  -1 625.658 537.231   4
 -26   8  -1 2294.41 709.764   2
   8  18   2-164.397 507.276   3
  -8  26   2 795.175 531.097   3
  18 -26   2 520.750 585.541   1
 -18  -8   2 404.124 549.935   1
 -26   8   2 1043.04 599.675   4
 -18  -8   2 842.214 530.819   4
  26 -18   2-74.7656 1084.64   3
 -26   8   2 1104.99 503.909   2
  26 -18   2 943.653 691.865   1
 -18  -8   2 1797.28 594.627   2
   8  18   5 4100.55 905.434   3
  -8  26   5 3767.91 826.459   3
  18 -26   5 3366.38 952.423   1
  26 -18   5 3465.48 919.468   1
 -18  -8   5 2996.09 869.126   1
 -26   8   5 3132.43 684.291   4
 -18  -8   5 2822.35 628.079   4
 -26   8   5 2621.67 700.978   2
 -18  -8   5 2611.15 623.628   2
  26 -18   8 450.507 752.009   1
   8  18   8 874.245 782.740   3
  -8  26   8 577.651 745.309   3
  18 -26   8-613.141 830.557   1
 -26   8   8 129.842 505.597   4
 -18  -8   8 754.856 829.684   1
 -26   8   8 401.788 669.993   2
  26 -18   8-399.440 2268.07   3
 -18  -8   8 885.137 544.446   2
 -26   9  -8 1135.80 732.154   2
 -26   9  -8 1277.94 711.682   4
 -26   9  -5 1380.76 707.312   2
 -17  -9  -5 1702.02 755.791   2
  17 -26  -5 2515.38 668.821   1
  -9  26  -5 1156.41 474.273   4
 -17  -9  -5 1072.69 437.905   1
 -26   9  -5 1019.87 589.456   4
 -17  -9  -5 2428.66 803.137   4
  17 -26  -2 6427.31 936.115   1
   9  17  -2 4298.89 753.620   3
 -17  -9  -2 5696.00 830.282   1
  -9  26  -2 5224.85 809.611   4
  -9  26  -2 3579.87 363.620   2
 -26   9  -2 7093.64 1006.03   4
 -17  -9  -2 4292.18 915.641   4
 -26   9  -2 6359.04 925.668   2
 -17  -9  -2 5560.54 945.970   2
  26 -17   1 766.120 611.260   1
 -17  -9   1 34.2365 395.973   2
   9  17   1 91.3595 475.844   3
  -9  26   1 479.990 518.039   3
 -17  -9   1 447.952 560.822   1
  17 -26   1-71.2053 564.122   1
 -26   9   1 817.109 489.467   4
 -17  -9   1 991.367 529.201   4
  26 -17   1 558.124 956.659   3
 -26   9   1 532.343 452.846   2
   9  17   4 1545.82 672.029   3
  17 -26   4 2298.32 834.641   1
  -9  26   4 1200.82 645.892   3
 -17  -9   4 1311.85 641.903   1
 -26   9   4 1099.51 539.959   4
  26 -17   4 1696.73 775.357   1
 -17  -9   4 1032.71 534.945   4
 -26   9   4 993.006 618.574   2
  26 -17   4-1420.20 1938.56   3
 -17  -9   4 755.181 536.000   2
  17 -26   7 1219.52 903.395   1
   9  17   7 1709.48 774.689   3
  -9  26   7 2371.47 787.909   3
  26 -17   7 1424.70 747.172   1
 -26   9   7 2148.28 698.439   4
 -17  -9   7 1917.38 840.531   1
 -26   9   7 490.863 560.527   2
  26 -17   7 1124.74 2009.75   3
 -17  -9   7 411.291 488.035   2
 -10  26  -6 5700.50 694.917   4
 -26  10  -6 6627.37 1064.07   4
 -16 -10  -6 6656.59 1136.40   4
 -16 -10  -3 2663.12 711.358   2
 -10  26  -3 2118.52 610.446   4
 -16 -10  -3 3575.00 633.003   1
 -26  10  -3 3354.22 767.163   4
  16 -26  -3 2491.13 690.302   1
 -16 -10  -3 5201.48 965.648   4
 -26  10  -3 3182.71 784.557   2
  26 -16   0 11370.3 584.305   3
  10  16   0 13706.9 1195.43   3
 -10  26   0 13369.5 1248.88   3
 -10  26   0 10173.2 825.210   2
 -16 -10   0 15222.6 1263.70   1
 -26  10   0 14488.8 1267.30   4
 -16 -10   0 11790.8 1232.54   4
  16 -26   0 12226.5 1294.50   1
 -26  10   0 13049.4 1211.19   2
 -16 -10   0 13213.8 1184.68   2
  16 -26   3-561.627 659.064   1
  10  16   3-576.799 594.450   3
 -10  26   3 717.897 530.276   3
  26 -16   3 1397.48 671.081   1
 -16 -10   3 827.979 612.100   1
 -26  10   3 639.778 507.738   4
 -16 -10   3 335.964 511.417   4
 -26  10   3 1073.25 594.202   2
  26 -16   3 446.273 1328.83   3
 -16 -10   3 1456.06 531.471   2
 -10  26   6 9711.41 1186.04   3
 -16 -10   6 11548.1 1379.88   1
  16 -26   6 8658.36 1396.48   1
 -26  10   6 8936.47 1113.48   4
 -26  10   6 10269.8 1174.02   2
 -16 -10   6 10296.9 990.129   4
 -16 -10   6 8670.85 913.196   2
  26 -16   6 10806.7 1300.47   1
  10  16   6 10206.4 1257.08   3
 -26  11  -7 1656.22 745.162   2
 -26  11  -7 2859.05 815.791   4
 -15 -11  -4 374.149 652.202   2
 -11  26  -4 1332.76 526.375   4
 -15 -11  -4 734.307 440.389   1
 -26  11  -4 1685.05 583.124   4
 -15 -11  -4 1543.12 693.434   4
  15 -26  -4 1920.58 621.038   1
 -26  11  -4 2940.05 703.341   2
  11  15  -1 5492.69 783.470   3
 -15 -11  -1 5110.09 769.244   1
 -11  26  -1 3906.10 730.819   4
 -11  26  -1 4545.62 517.734   2
 -26  11  -1 6761.40 991.201   4
 -15 -11  -1 4491.14 895.040   4
 -26  11  -1 6378.32 918.037   2
  15 -26  -1 6640.76 1026.14   1
 -15 -11  -1 4467.95 785.279   2
 -15 -11   2 2740.39 578.013   2
  15 -26   2 3191.17 838.840   1
 -11  26   2 3343.68 754.982   3
  11  15   2 1503.37 599.313   3
 -11  26   2 1264.21 519.768   2
 -15 -11   2 3068.28 728.043   1
 -26  11   2 2412.18 670.855   4
  26 -15   2 3124.65 803.130   1
 -15 -11   2 3136.41 701.730   4
 -26  11   2 2690.47 713.453   2
  11  15   5 1124.12 617.573   3
 -11  26   5 1213.14 624.942   3
 -26  11   5 18.3628 439.100   4
 -15 -11   5 1031.68 683.134   1
 -26  11   5 570.429 554.813   2
 -15 -11   5 626.565 486.027   4
  26 -15   5-1461.54 1265.71   3
  15 -26   5 2311.95 839.384   1
 -15 -11   5 729.168 435.706   2
  26 -15   5-878.361 649.942   1
  11  15   8 2245.19 971.432   3
 -11  26   8 261.191 610.624   3
 -26  11   8 1165.17 634.813   4
 -26  11   8 1410.77 732.683   2
 -15 -11   8 257.247 719.603   1
  26 -15   8 235.646 700.490   1
  26 -15   8 357.305 983.531   3
  15 -26   8 337.115 821.674   1
 -26  12  -8 1488.57 716.846   2
 -26  12  -8 1429.51 800.321   4
 -26  12  -5 2179.15 676.193   2
 -12  26  -5 2028.72 523.139   4
 -14 -12  -5 2978.13 534.676   1
  14 -26  -5 2576.65 654.749   1
 -26  12  -5 3235.98 814.585   4
 -14 -12  -2-134.634 436.216   2
  12  14  -2-76.0222 416.566   3
 -12  26  -2 177.140 449.065   4
 -14 -12  -2 121.916 447.747   1
 -26  12  -2 844.140 530.452   4
 -12  26  -2-257.205 223.349   2
 -14 -12  -2 103.405 560.183   4
  14 -26  -2-459.289 577.886   1
 -26  12  -2 281.391 491.657   2
  14 -26   1 798.419 634.933   1
 -14 -12   1 1947.20 596.996   2
  12  14   1 1475.76 566.556   3
  26 -14   1 889.824 307.965   3
 -12  26   1 1831.13 621.450   3
 -12  26   1 1014.56 554.546   4
 -12  26   1 1844.37 517.909   2
 -26  12   1 3027.31 704.113   4
 -14 -12   1 2209.28 672.222   1
 -14 -12   1 2531.44 679.857   4
 -26  12   1 1754.30 615.502   2
  26 -14   1 1603.04 371.241   3
  12  14   4 1349.12 672.073   3
 -12  26   4 2138.71 693.225   3
 -26  12   4 607.236 473.281   4
 -14 -12   4 1343.58 631.725   1
 -26  12   4 627.377 578.171   2
 -14 -12   4 1169.85 516.965   4
  26 -14   4 312.056 683.561   3
  26 -14   4 1714.71 687.133   1
  14 -26   4 1786.47 788.279   1
 -14 -12   4 130.707 388.498   2
  12  14   7 904.460 759.907   3
  26 -14   7 913.042 632.536   1
 -12  26   7 664.301 646.792   3
 -26  12   7 995.485 556.632   4
 -26  12   7 671.881 669.816   2
 -14 -12   7-233.537 725.220   1
  14 -26   7 636.757 782.043   1
  26 -14   7 101.135 755.751   3
 -14 -12   7 123.598 395.375   2
 -13  26  -6 6354.31 730.482   4
  13 -26  -6 6504.60 832.709   1
 -26  13  -6 7334.51 1060.30   4
 -26  13  -6 8761.95 1085.24   2
 -13 -13  -3 1668.28 674.942   2
 -13  26  -3-229.974 446.724   4
 -26  13  -3 63.2621 499.784   4
 -13 -13  -3 989.256 491.726   1
 -13 -13  -3 1532.37 688.135   4
 -13  26  -3 321.270 170.231   2
 -26  13  -3 218.321 447.212   2
  13 -26  -3 284.094 553.170   1
  26 -13   0 6933.15 326.249   3
  13  13   0 9653.07 979.812   3
 -13  26   0 7955.85 961.849   3
 -13  26   0 6761.04 909.629   4
 -13  26   0 8555.63 767.808   2
 -13 -13   0 8128.33 956.161   1
 -26  13   0 8312.97 1014.85   4
  13 -26   0 8452.29 1080.77   1
 -26  13   0 9479.56 1018.36   2
 -13 -13   0 9640.66 1101.61   4
 -13 -13   0 8137.12 907.124   2
  26 -13   3 973.916 650.428   1
 -13 -13   3 732.882 427.692   2
  13  13   3-90.0228 513.731   3
 -13  26   3 76.2611 443.529   3
 -13  26   3-508.456 564.979   4
 -13  26   3 1113.55 505.273   2
 -26  13   3 366.525 521.675   4
 -13 -13   3 151.712 577.053   1
 -26  13   3 524.666 480.377   2
 -13 -13   3 1078.04 489.661   4
  26 -13   3 796.007 474.522   3
  13 -26   3 1013.35 735.669   1
 -13  26   6 9792.65 1172.01   3
  13 -26   6 10335.1 1337.01   1
 -13  26   6 7271.80 1068.17   2
 -13 -13   6 11895.6 1386.30   1
 -26  13   6 9077.22 1059.21   4
  26 -13   6 10522.7 1260.12   1
 -26  13   6 10897.8 1253.88   2
  26 -13   6 13186.4 1432.87   3
 -13 -13   6 10098.8 882.150   2
  13  13   6 10574.7 1275.22   3
 -26  14  -7 782.845 651.184   2
 -14  26  -7 33.4271 360.457   4
 -26  14  -7 1543.92 673.154   4
  12 -26  -4 1191.93 583.671   1
 -14  26  -4 615.830 438.950   4
 -26  14  -4 1501.36 619.181   4
 -12 -14  -4 589.536 385.390   1
 -26  14  -4-188.399 515.262   2
  12 -26  -1 2144.05 679.091   1
 -12 -14  -1 1722.92 594.112   2
  14  12  -1 1747.64 525.649   3
 -14  26  -1 2477.57 609.639   4
 -26  14  -1 2516.70 711.127   4
 -14  26  -1 1862.79 406.505   2
 -12 -14  -1 2196.67 586.311   1
 -26  14  -1 1917.79 579.968   2
  14  12   2 213.186 464.658   3
 -12 -14   2 16.7403 391.759   2
 -14  26   2 556.763 519.153   3
 -14  26   2-740.049 537.700   4
 -14  26   2-111.468 394.232   2
 -26  14   2 484.945 525.889   4
 -12 -14   2-456.793 538.550   1
 -26  14   2 156.558 434.861   2
  12 -26   2 989.108 628.344   1
  26 -12   2 202.119 368.420   3
 -12 -14   5 2843.38 523.225   2
  14  12   5 2443.29 721.535   3
 -14  26   5 2982.57 723.020   3
 -14  26   5 3037.17 795.290   4
 -14  26   5 2967.11 760.372   2
 -26  14   5 3711.02 786.082   4
  26 -12   5 4225.98 857.490   1
 -26  14   5 4054.50 846.092   2
 -12 -14   5 3894.14 948.645   1
  12 -26   5 3717.65 920.266   1
  26 -12   5 3076.21 724.025   3
  14  12   8 1318.45 801.390   3
 -14  26   8 2158.57 839.066   3
 -14  26   8 319.600 596.662   4
  26 -12   8 1021.72 647.412   1
 -14  26   8 758.660 705.762   2
 -26  14   8 572.246 566.282   4
 -26  14   8-820.727 693.717   2
  12 -26   8 1398.73 939.087   1
 -12 -14   8 788.503 837.621   1
  26 -12   8 40.5339 692.614   3
 -26  15  -8-95.4440 620.724   2
 -26  15  -8 1414.49 747.165   4
 -26  15  -5 143.666 516.488   2
 -15  26  -5 111.725 381.661   4
 -26  15  -5 892.774 571.438   4
  11 -26  -5 853.223 501.858   1
 -11 -15  -5 741.304 362.794   1
 -11 -15  -2 1864.86 648.166   2
  15  11  -2 2436.63 572.976   3
  11 -26  -2 1561.61 592.435   1
 -15  26  -2 3004.68 663.258   4
 -15  26  -2 2164.19 390.645   2
 -26  15  -2 2950.81 712.327   4
 -11 -15  -2 1944.00 564.391   1
 -26  15  -2 2834.02 674.837   2
 -11 -15   1 4646.11 668.366   2
  15  11   1 4520.90 724.709   3
 -15  26   1 3760.60 713.098   3
 -15  26   1 4224.64 817.156   4
 -15  26   1 3715.57 606.586   2
 -11 -15   1 5178.11 844.673   1
 -26  15   1 5065.67 820.442   4
 -26  15   1 5767.44 872.164   2
  11 -26   1 4246.95 832.503   1
  26 -11   1 4959.84 441.214   3
  15  11   4 325.903 529.908   3
 -11 -15   4 980.232 418.727   2
 -15  26   4 1218.55 542.551   3
 -15  26   4 1636.73 670.837   4
 -15  26   4 2087.70 645.760   2
 -26  15   4 803.975 516.581   4
 -26  15   4 1298.41 620.003   2
  11 -26   4 521.599 642.904   1
 -11 -15   4 497.894 619.965   1
  26 -11   4 1124.58 559.604   3
  15  11   7 2185.67 829.878   3
 -15  26   7 2719.02 770.303   3
 -15  26   7 1989.07 793.218   4
 -15  26   7 3508.03 886.767   2
 -26  15   7 3013.36 685.448   4
 -26  15   7 2720.32 824.316   2
  11 -26   7 1966.14 855.549   1
 -11 -15   7 4065.08 1009.70   1
  26 -11   7 2019.33 785.156   3
 -16  26  -6 8688.67 874.823   4
 -26  16  -6 9969.38 1213.17   4
 -26  16  -6 8662.05 1050.81   2
  10 -26  -6 7357.62 774.183   1
 -16  26  -3 606.131 447.755   4
  10 -26  -3 445.469 533.241   1
 -26  16  -3 175.828 455.808   4
 -16  26  -3 542.102 264.041   2
 -10 -16  -3-101.735 426.026   1
 -26  16  -3 1043.51 542.780   2
 -10 -16   0 11760.6 1052.52   2
  16  10   0 13369.7 1063.08   3
  10 -26   0 13591.9 1284.72   1
 -16  26   0 11589.8 1145.66   4
 -16  26   0 10300.7 881.884   2
 -26  16   0 15137.0 1309.85   4
 -10 -16   0 13901.3 1193.97   1
 -26  16   0 13274.0 1165.12   2
  16  10   3 3881.43 737.765   3
 -16  26   3 3600.49 699.257   3
 -10 -16   3 2910.75 533.342   2
 -16  26   3 1498.74 621.945   4
 -26  16   3 2488.35 679.333   4
 -26  16   3 3718.64 788.262   2
  10 -26   3 3944.27 922.395   1
 -10 -16   3 4306.75 862.480   1
  26 -10   3 3831.44 599.504   3
 -16  26   3 2214.12 624.291   2
 -16  26   6 8716.42 1030.55   3
  10 -26   6 8045.89 1253.79   1
 -16  26   6 6424.08 1059.12   4
 -16  26   6 7103.37 1050.73   2
 -26  16   6 9235.61 1098.94   4
 -26  16   6 9270.85 1231.35   2
 -10 -16   6 8329.11 1215.76   1
  26 -10   6 9252.06 1131.22   3
  16  10   6 9358.06 1162.26   3
 -26  17  -7 1717.67 685.718   2
 -17  26  -7 525.518 411.774   4
 -26  17  -7 2214.80 733.458   4
 -17  26  -4 1648.39 563.331   4
 -26  17  -4 1118.19 524.606   4
   9 -26  -4 1356.60 539.747   1
 -17  26  -4 887.282 262.352   2
  -9 -17  -4 1250.26 450.909   1
 -26  17  -4 1365.10 547.308   2
  17   9  -1 503.630 404.225   3
  -9 -17  -1 958.656 490.156   2
 -17  26  -1 649.626 507.310   4
 -26  17  -1 804.683 573.466   4
 -17  26  -1 417.121 331.005   2
  -9 -17  -1 2.08314 454.397   1
 -26  17  -1 126.473 429.916   2
   9 -26  -1-237.847 524.086   1
  17   9   2 5825.97 794.101   3
  -9 -17   2 4727.95 660.301   2
   9 -26   2 7299.46 1086.95   1
 -17  26   2 3949.74 702.676   3
 -17  26   2 3657.13 819.433   4
 -17  26   2 5011.73 761.590   2
 -26  17   2 4931.33 831.170   4
  -9 -17   2 5039.58 943.081   1
 -26  17   2 5878.69 886.638   2
  26  -9   2 4908.53 556.595   3
  17   9   5 1294.15 597.952   3
  -9 -17   5 1799.44 422.709   2
 -17  26   5 1352.57 570.579   3
 -17  26   5 2327.36 709.254   4
 -17  26   5 1925.81 649.925   2
 -26  17   5 1806.13 707.388   4
   9 -26   5 1193.13 844.400   1
 -26  17   5 2537.51 762.843   2
  -9 -17   5 803.999 747.848   1
  26  -9   5 2634.06 649.510   3
 -17  26   8 10.7296 577.442   3
 -17  26   8-200.889 638.328   4
 -17  26   8 1196.47 786.845   2
 -26  17   8 609.421 590.926   4
   9 -26   8 508.801 722.864   1
 -26  17   8-606.529 712.407   2
  -9 -17   8 454.305 787.257   1
  26  -9   8 1582.01 815.097   3
  17   9   8 100.313 709.674   3
 -26  18  -8 112.595 540.834   2
 -26  18  -8 538.167 604.783   4
  -8 -18  -5 2362.14 475.337   1
   8 -26  -5 1923.57 524.188   1
 -18  26  -5 1900.99 559.561   4
 -26  18  -5 2512.46 689.588   4
 -26  18  -5 3957.20 771.033   2
  18   8  -2 1559.05 449.752   3
 -18  26  -2 1449.27 586.923   4
 -26  18  -2 1301.42 556.030   4
 -18  26  -2 614.687 324.973   2
 -26  18  -2 607.735 437.894   2
  -8 -18  -2 820.188 510.585   1
   8 -26  -2 1366.72 598.860   1
  18   8   1 1182.76 463.135   3
  -8 -18   1 2060.13 517.615   2
 -18  26   1 1625.97 517.324   3
 -18  26   1 1466.97 597.637   4
 -26  18   1 2689.14 677.370   4
 -18  26   1 436.743 374.447   2
   8 -26   1 780.701 586.545   1
 -26  18   1 1639.94 533.967   2
  -8 -18   1 1851.21 598.015   1
  26  -8   1 1344.25 280.855   3
  18   8   4 763.231 558.296   3
  -8 -18   4 718.244 331.666   2
 -18  26   4 478.855 455.618   3
 -18  26   4 722.714 564.772   4
 -18  26   4 656.920 579.438   2
 -26  18   4 964.809 577.230   4
   8 -26   4 487.708 652.325   1
 -26  18   4 420.284 514.198   2
  -8 -18   4 375.209 587.180   1
  26  -8   4 842.363 502.047   3
 -18  26   7 2558.73 725.581   3
 -18  26   7 2538.94 828.853   4
 -18  26   7 1584.18 747.360   2
 -26  18   7 2306.10 696.174   4
   8 -26   7 1961.18 893.446   1
 -26  18   7 2831.88 861.109   2
  -8 -18   7 2573.10 878.783   1
  26  -8   7 2462.05 769.744   3
  18   8   7 2878.02 855.902   3
 -19  26  -6 4934.25 763.595   4
 -26  19  -6 7084.01 991.517   4
 -26  19  -6 5309.57 841.175   2
   7 -26  -3 2353.08 686.784   1
 -19  26  -3 1071.86 557.428   4
 -26  19  -3 3144.39 694.074   4
 -19  26  -3 1951.35 428.725   2
 -26  19  -3 2322.46 622.665   2
  -7 -19  -3 1599.85 512.175   1
  19   7   0 6303.92 737.118   3
   7 -26   0 6772.08 943.271   1
 -19  26   0 5132.37 848.623   4
 -26  19   0 5401.67 827.352   4
 -19  26   0 5786.05 751.130   2
  -7 -19   0 6835.86 963.320   1
 -26  19   0 6268.23 882.346   2
  19   7   3 1868.95 605.231   3
 -19  26   3 773.790 479.871   3
 -19  26   3 859.828 586.195   4
 -26  19   3 1722.47 619.952   4
   7 -26   3 602.220 647.297   1
 -19  26   3 813.674 563.345   2
 -26  19   3 930.793 582.873   2
  -7 -19   3 699.069 633.754   1
  26  -7   3 1048.32 457.030   3
 -19  26   6 5113.59 827.092   3
 -19  26   6 4725.77 953.640   4
 -19  26   6 5999.63 1005.52   2
 -26  19   6 5258.76 956.429   4
   7 -26   6 3981.76 1016.86   1
 -26  19   6 5616.17 1047.69   2
  26  -7   6 6198.85 960.079   3
  -7 -19   6 4546.75 1054.97   1
  19   7   6 6973.16 1014.80   3
 -26  20  -7 1047.36 602.158   2
 -20  26  -7 798.229 510.435   4
 -26  20  -7 2049.09 700.390   4
 -20  26  -4 4474.67 812.358   4
 -26  20  -4 5323.85 914.822   4
   6 -26  -4 3206.68 659.426   1
 -20  26  -4 3938.51 531.678   2
 -26  20  -4 4749.25 787.006   2
  -6 -20  -4 4201.38 646.491   1
  20   6  -1 1186.05 437.632   3
 -20  26  -1-995.743 554.913   4
 -26  20  -1 924.839 537.127   4
 -20  26  -1 522.753 375.212   2
   6 -26  -1 654.516 585.458   1
 -26  20  -1 1174.98 488.428   2
  -6 -20  -1 1304.89 538.399   1
 -20  26   2 5794.26 799.805   3
 -20  26   2 3469.42 796.689   4
 -20  26   2 5396.00 785.553   2
 -26  20   2 6585.59 983.217   4
 -26  20   2 4589.35 856.662   2
  -6 -20   2 5063.74 938.835   1
  26  -6   2 6002.10 643.601   3
   6 -26   2 4878.78 956.260   1
  20   6   2 5340.49 789.331   3
  20   6   5 323.213 546.548   3
 -20  26   5 1531.57 602.676   3
 -20  26   5 50.0432 525.623   4
   6 -26   5-10.0274 682.873   1
 -26  20   5 358.063 588.332   4
 -20  26   5-296.501 556.242   2
 -26  20   5 228.530 593.346   2
  -6 -20   5 1107.54 725.380   1
  26  -6   5 1650.06 627.347   3
 -20  26   8 2694.15 857.051   4
   6 -26   8 1045.57 867.579   1
 -20  26   8 2853.55 915.069   2
 -26  20   8 2436.07 803.738   4
 -26  20   8 1927.33 839.578   2
  -6 -20   8 2933.60 1032.30   1
 -21  26  -5 3636.47 731.869   4
 -26  21  -5 2961.13 737.747   4
   5 -26  -5 1925.23 537.808   1
 -21  26  -5 3043.12 497.221   2
 -26  21  -5 3529.51 718.081   2
  -5 -21  -2-48.4515 447.120   1
 -21  26  -2-625.835 484.068   4
 -26  21  -2 511.500 512.543   4
 -21  26  -2-354.765 350.263   2
   5 -26  -2 791.700 539.007   1
 -26  21  -2 659.461 505.856   2
  26  -5   1 1483.77 355.134   3
  21   5   1 1442.17 494.431   3
 -21  26   1 1328.92 590.431   4
 -26  21   1 1112.26 623.144   4
   5 -26   1 2243.46 796.825   1
 -21  26   1 876.772 471.938   2
 -26  21   1 1534.47 619.075   2
  -5 -21   1 1249.22 648.800   1
  21   5   4-228.493 491.451   3
 -21  26   4 1024.50 484.320   3
   5 -26   4 1597.19 809.976   1
 -21  26   4-395.109 521.816   4
 -26  21   4 1520.20 675.003   4
 -21  26   4 780.292 571.676   2
 -26  21   4 31.7074 518.714   2
  -5 -21   4 570.004 664.530   1
  26  -5   4 968.983 513.336   3
 -21  26   7-242.815 563.117   3
   5 -26   7 331.765 774.407   1
 -21  26   7-111.358 665.265   4
 -26  21   7 732.178 620.344   4
 -21  26   7 539.239 685.830   2
 -26  21   7-120.739 636.869   2
  26  -5   7 455.724 683.795   3
  -5 -21   7-267.949 707.396   1
  21   5   7 1139.86 756.073   3
 -26  22  -6 441.086 522.547   2
 -22  26  -6 1743.12 630.899   4
 -26  22  -6 535.827 533.867   4
  -4 -22  -3 1180.44 564.314   1
 -22  26  -3 1476.13 613.887   4
 -26  22  -3 1688.99 628.708   4
 -22  26  -3 1135.75 432.878   2
 -26  22  -3 1000.45 557.525   2
   4 -26  -3 763.399 471.907   1
  22   4   0 4323.90 604.017   3
  26  -4   0 3512.56 333.823   3
 -22  26   0 4293.64 818.454   4
 -26  22   0 3961.62 802.233   4
   4 -26   0 3000.63 824.595   1
 -22  26   0 3057.17 624.366   2
  -4 -22   0 4168.64 817.926   1
 -26  22   0 3575.71 690.426   2
  22   4   3 961.081 516.504   3
 -22  26   3 384.868 390.257   3
   4 -26   3 1580.20 753.490   1
 -22  26   3 26.6316 522.674   4
 -26  22   3 462.533 545.408   4
 -22  26   3 1168.06 557.534   2
 -26  22   3 1269.70 591.754   2
  -4 -22   3 488.507 588.026   1
  26  -4   3 238.012 403.565   3
 -22  26   6 2950.01 673.323   3
   4 -26   6 2125.59 881.530   1
 -22  26   6 3245.73 860.032   4
 -26  22   6 2179.07 744.222   4
 -22  26   6 1989.85 783.843   2
 -26  22   6 1593.21 784.631   2
  26  -4   6 2107.48 698.108   3
  -4 -22   6-195.397 762.177   1
  22   4   6 1669.93 709.455   3
 -26  23  -7 876.177 561.879   2
 -23  26  -7 394.345 549.986   4
 -26  23  -7 958.729 559.633   4
  -3 -23  -4 4166.46 681.841   1
 -23  26  -4 4805.32 826.136   4
 -26  23  -4 5942.76 925.172   4
   3 -26  -4 3591.24 686.578   1
 -23  26  -4 4548.37 649.352   2
 -26  23  -4 4381.90 776.935   2
  -3 -23  -1 730.675 628.740   1
  23   3  -1 196.222 319.856   3
 -23  26  -1 1390.36 604.132   4
 -26  23  -1 169.224 508.786   4
   3 -26  -1 1193.94 607.894   1
 -23  26  -1 143.359 396.877   2
 -26  23  -1 685.192 548.463   2
 -23  26   2 7496.94 1019.24   4
 -26  23   2 8819.10 1137.35   4
 -23  26   2 8357.12 1020.11   2
 -26  23   2 9220.39 1061.47   2
  -3 -23   2 8260.97 1099.17   1
   3 -26   2 7370.77 1105.66   1
  26  -3   2 7760.03 721.566   3
  23   3   2 7529.97 858.878   3
  23   3   5-249.614 567.349   3
  -3 -23   5 362.812 654.191   1
 -23  26   5 510.283 460.159   3
   3 -26   5-413.017 732.281   1
 -23  26   5 311.502 602.855   4
 -26  23   5 1813.37 706.505   4
 -23  26   5 196.622 566.449   2
 -26  23   5 69.5660 548.363   2
  26  -3   5-9.91160 493.482   3
 -24  26  -5 1756.95 603.758   4
 -26  24  -5 510.430 536.316   4
 -26  24  -5 1969.13 588.838   2
 -24  26  -5 1741.18 503.560   2
  -2 -24  -2 1277.48 563.846   1
 -24  26  -2 712.668 591.534   4
 -26  24  -2 2149.64 659.678   4
   2 -26  -2 1110.35 602.602   1
 -24  26  -2 1363.33 523.394   2
 -26  24  -2 1090.76 556.694   2
  -2 -24   1 150.368 533.637   1
  26  -2   1 926.341 348.987   3
  24   2   1 1539.38 516.763   3
   2 -26   1 154.523 640.972   1
 -24  26   1 135.454 516.203   4
 -26  24   1 463.526 591.230   4
 -24  26   1 882.529 533.844   2
 -26  24   1 1139.54 561.457   2
  24   2   4 2116.06 640.918   3
  -2 -24   4 1312.73 762.950   1
   2 -26   4 1988.03 798.222   1
 -24  26   4 1943.58 544.037   3
 -24  26   4 1050.61 639.336   4
 -26  24   4 2118.44 702.024   4
 -24  26   4 865.501 596.368   2
 -26  24   4 2426.66 837.068   2
  26  -2   4 2119.40 630.419   3
  -2 -24   7 1402.02 807.689   1
   2 -26   7-159.054 771.151   1
 -24  26   7-47.4393 619.422   4
 -26  24   7 167.211 704.430   4
 -24  26   7 636.697 734.999   2
 -26  24   7 1338.88 786.854   2
  26  -2   7 464.334 694.738   3
  24   2   7-686.127 770.638   3
 -26  25  -6 1073.62 556.730   2
 -25  26  -6 830.446 608.854   4
 -26  25  -6 430.642 555.329   4
 -25  26  -3 1343.14 629.150   4
 -26  25  -3 1474.36 622.621   4
  -1 -25  -3 266.034 473.226   1
   1 -26  -3 1321.30 584.995   1
 -25  26  -3 1972.07 553.348   2
 -26  25  -3 2131.87 620.270   2
  25   1   0 936.528 363.241   3
  26  -1   0 1491.84 336.856   3
  -1 -25   0 1430.70 725.498   1
   1 -26   0 1274.13 680.212   1
 -25  26   0 1948.31 707.348   4
 -26  25   0 583.005 541.794   4
 -25  26   0 1503.84 538.316   2
 -26  25   0 241.539 486.497   2
  26  -1   3 2475.62 626.387   3
  25   1   3 1433.03 549.316   3
  -1 -25   3 2488.94 808.847   1
   1 -26   3 2365.58 781.633   1
 -25  26   3 2246.05 805.063   4
 -26  25   3 2667.30 812.167   4
 -25  26   3 2336.21 725.798   2
 -26  25   3 35.4542 517.891   2
  -1 -25   6 1337.90 857.141   1
   1 -26   6-542.870 756.715   1
 -25  26   6 7.73034 615.863   4
 -26  25   6 1057.99 678.582   4
 -25  26   6-669.061 649.792   2
 -26  25   6 511.797 766.362   2
  26  -1   6-124.697 669.242   3
  25   1   6-380.339 636.653   3
 -26  26  -4 4380.50 740.924   2
   0 -26  -4 3562.21 697.112   1
   0 -26  -1-640.290 633.614   1
 -26  26  -1-224.967 585.140   4
 -26  26  -1 760.688 464.304   2
 -26  26   2 5949.54 1034.06   4
 -26  26   2 7610.37 1049.83   2
   0 -26   2 6140.91 1042.55   1
  26   0   2 8544.27 823.247   3
   0 -26   5 1347.18 877.711   1
 -26  26   5-323.602 626.732   4
 -26  26   5 562.401 645.556   2
  26   0   5 402.382 558.547   3
 -27   0  -3-1224.15 778.413   2
 -27   0  -3 1043.73 750.177   4
  27 -27  -3-220.414 682.206   1
   0  27   0 3331.93 871.989   3
  27 -27   0 2229.84 890.040   1
 -27   0   0 3842.36 850.744   4
 -27   0   0 4125.62 864.888   2
   0  27   3 1213.11 652.876   3
 -27   0   3 1037.62 658.212   4
  27 -27   3-1022.96 825.924   1
 -27   0   3 461.340 621.671   2
 -27   1  -4-34.1349 653.746   2
 -26  -1  -4 559.070 624.707   2
 -27   1  -4-154.350 729.294   4
 -26  -1  -4 903.549 723.309   4
 -26  -1  -1 1496.08 675.628   2
   1  26  -1 683.389 607.469   3
  -1  27  -1 679.193 610.028   3
  26 -27  -1 2199.88 870.521   1
 -27   1  -1 3650.22 886.596   4
 -26  -1  -1 1886.20 748.402   4
  27 -26  -1 898.774 697.880   1
 -27   1  -1 2000.74 753.615   2
   1  26   2 814.042 652.632   3
  -1  27   2 105.587 620.160   3
 -27   1   2 685.170 539.921   4
 -26  -1   2 881.488 575.607   4
  26 -27   2 13.5274 757.900   1
 -27   1   2 1961.49 702.875   2
 -26  -1   2 759.017 544.696   2
  27 -26   2 615.114 742.072   1
   1  26   5 650.959 703.163   3
  -1  27   5 773.126 733.972   3
  26 -27   5 842.495 705.058   1
  27 -26   5 1666.78 928.844   1
 -27   1   5 1034.42 596.298   4
 -26  -1   5 1023.92 588.879   4
 -27   1   5 1026.29 641.991   2
 -26  -1   5 1639.95 771.686   2
 -27   2  -5 4454.33 998.592   2
 -25  -2  -5 3040.17 950.825   2
 -25  -2  -5 6440.85 1219.02   4
 -27   2  -5 4858.69 1087.41   4
 -27   2  -2 2847.35 789.542   2
 -25  -2  -2 1841.35 728.790   2
   2  25  -2 3185.04 889.860   3
 -27   2  -2 2772.95 839.387   4
 -25  -2  -2 2865.58 834.848   4
  25 -27  -2 2461.56 833.909   1
  27 -25  -2 2320.34 879.152   1
   2  25   1 7031.21 1088.02   3
  -2  27   1 6087.78 1027.78   3
  25 -27   1 6074.12 1156.82   1
 -27   2   1 6170.62 1010.33   4
 -25  -2   1 7409.97 1094.69   4
  27 -25   1 6165.18 1191.37   1
 -27   2   1 7295.79 1048.37   2
 -25  -2   1 6323.80 958.696   2
  25 -27   4 2703.61 1002.97   1
   2  25   4 1242.40 747.831   3
  -2  27   4 1252.87 721.113   3
 -27   2   4 1865.65 709.918   4
 -25  -2   4 1172.41 621.408   4
  27 -25   4 1116.30 827.120   1
 -27   2   4 3172.69 830.978   2
 -25  -2   4 2135.16 676.226   2
 -27   3  -6 170.222 648.341   2
 -24  -3  -6 812.824 781.753   2
 -27   3  -6 375.818 701.923   4
 -24  -3  -6 1778.56 872.870   4
 -27   3  -3 350.431 629.260   2
  24 -27  -3-263.744 621.338   1
 -24  -3  -3 554.352 674.940   2
 -27   3  -3 1295.00 726.650   4
 -24  -3  -3 1914.79 794.065   4
   3  24   0 1859.33 699.902   3
  -3  27   0 2402.77 742.368   3
 -27   3   0 3220.76 814.221   4
 -24  -3   0 3191.38 786.115   4
  27 -24   0 2548.83 856.408   1
  24 -27   0 3447.24 966.491   1
 -27   3   0 2597.10 755.808   2
 -24  -3   0 3334.59 832.472   2
  24 -27   3-499.567 741.730   1
   3  24   3 1594.42 704.775   3
  -3  27   3 1164.62 680.574   3
 -27   3   3 1802.08 683.954   4
 -24  -3   3 1975.15 668.890   4
 -27   3   3 966.563 609.392   2
 -24  -3   3 2122.46 678.443   2
  27 -24   3 1527.68 825.104   1
  -3  27   6 4870.53 1081.38   3
   3  24   6 2565.88 924.668   3
 -24  -3   6 2608.63 920.691   1
 -27   3   6 2573.58 745.307   4
 -24  -3   6 2419.32 732.838   4
  27 -24   6 1484.41 875.549   1
 -27   3   6 2225.67 721.001   2
  24 -27   6 2194.09 1084.17   1
 -24  -3   6 2427.50 758.929   2
 -27   4  -7 2170.64 913.047   2
 -23  -4  -7 1219.11 942.296   2
 -27   4  -7 579.362 829.473   4
 -23  -4  -7-450.088 794.736   4
 -27   4  -4-139.375 611.002   2
 -23  -4  -4 1629.78 712.169   2
 -27   4  -4-683.597 722.113   4
 -23  -4  -4-119.327 637.010   4
  23 -27  -4-546.313 665.587   1
 -23  -4  -1 822.166 666.512   2
   4  23  -1 1771.73 677.748   3
  -4  27  -1 3063.57 810.216   3
  27 -23  -1 1368.65 756.979   1
 -27   4  -1 3120.36 806.839   4
 -23  -4  -1 3603.99 848.110   4
  23 -27  -1 2006.38 815.840   1
 -27   4  -1 2672.32 798.461   2
  23 -27   2 606.192 736.507   1
   4  23   2 1117.69 722.390   3
  -4  27   2 1312.10 680.217   3
  27 -23   2 783.013 649.612   1
 -27   4   2 1636.83 659.877   4
 -23  -4   2 529.952 535.686   4
 -27   4   2 154.919 559.438   2
 -23  -4   2-99.7156 543.512   2
   4  23   5 1370.58 723.077   3
  -4  27   5 1078.84 733.574   3
 -23  -4   5 996.123 760.677   1
 -27   4   5 1464.39 693.190   4
 -23  -4   5 1207.24 644.328   4
  23 -27   5 1767.81 957.025   1
 -27   4   5 594.432 563.393   2
  27 -23   5 929.375 813.676   1
 -23  -4   5 974.284 562.192   2
 -27   5  -5 1196.70 708.180   2
 -22  -5  -5 1775.48 829.521   2
  -5  27  -5 551.974 438.731   4
 -27   5  -5 1671.68 768.428   4
 -22  -5  -5 1178.07 771.684   4
  22 -27  -2 4287.05 961.844   1
 -22  -5  -2 3092.74 814.387   2
   5  22  -2 2608.35 732.755   3
  -5  27  -2 1394.01 274.785   2
 -27   5  -2 3003.05 766.563   4
 -22  -5  -2 3047.10 841.926   4
 -27   5  -2 2988.66 792.551   2
   5  22   1 5698.00 987.640   3
  -5  27   1 4688.66 927.101   3
 -27   5   1 5400.32 923.773   4
 -22  -5   1 6567.54 1013.49   4
 -27   5   1 4575.02 923.425   2
  27 -22   1 4745.62 1000.19   1
 -22  -5   1 4943.05 844.891   2
  22 -27   1 6036.37 1112.23   1
   5  22   4 1157.73 690.870   3
  -5  27   4 1428.12 773.234   3
 -27   5   4 873.483 537.592   4
 -22  -5   4 1500.73 636.202   4
  22 -27   4 2271.12 938.664   1
 -27   5   4 1527.15 623.546   2
 -22  -5   4 2015.41 611.380   2
  27 -22   4 1553.26 825.262   1
   5  22   7 1963.16 895.280   3
  -5  27   7 1849.72 947.190   3
 -22  -5   7 3128.81 993.799   1
  22 -27   7 1239.62 834.287   1
 -27   5   7 3818.59 882.459   4
 -27   5   7 3405.53 864.177   2
  27 -22   7 1596.40 895.963   1
 -22  -5   7 2237.88 748.578   2
 -27   6  -6 3451.75 960.292   2
 -21  -6  -6 2645.63 933.946   2
 -27   6  -6 2797.45 916.581   4
 -21  -6  -6 3292.19 954.691   4
 -27   6  -3 3059.52 739.121   2
 -21  -6  -3 2640.58 858.819   2
  21 -27  -3 2084.39 746.451   1
 -27   6  -3 2537.14 783.073   4
 -21  -6  -3 2369.12 801.659   4
 -21  -6   0 3398.87 761.370   2
  21 -27   0 2371.21 807.905   1
   6  21   0 1860.81 646.545   3
  -6  27   0 2835.50 748.863   3
  27 -21   0 2401.65 870.890   1
 -27   6   0 2765.10 737.281   4
 -21  -6   0 3086.34 747.185   4
 -27   6   0 2967.56 759.992   2
   6  21   3 3007.59 821.560   3
  -6  27   3 1940.52 724.229   3
  27 -21   3 2091.63 825.085   1
 -27   6   3 2450.86 761.094   4
  21 -27   3 659.724 783.465   1
 -21  -6   3 2029.47 681.817   4
 -27   6   3 721.609 538.936   2
 -21  -6   3 1102.55 564.321   2
   6  21   6 248.307 673.880   3
  -6  27   6 777.733 652.741   3
  21 -27   6 443.546 767.136   1
 -21  -6   6 1437.83 849.084   1
 -27   6   6 888.095 590.243   4
 -21  -6   6 1373.47 607.071   4
 -27   6   6 2516.23 797.113   2
  27 -21   6 249.098 1812.27   3
 -21  -6   6 985.741 552.424   2
  27 -21   6 2258.13 883.392   1
 -27   7  -7 1015.85 711.453   2
 -20  -7  -7 2396.68 988.231   2
 -27   7  -7 2075.25 845.541   4
 -20  -7  -7 542.809 736.022   4
 -27   7  -4 2066.88 807.404   2
 -20  -7  -4-498.484 566.622   2
  -7  27  -4 1322.22 533.606   4
 -27   7  -4 1782.84 713.200   4
 -20  -7  -4 590.352 606.003   4
  20 -27  -4 730.417 643.398   1
  27 -20  -1 3846.60 845.985   1
 -20  -7  -1 2200.66 656.278   2
   7  20  -1 2812.37 679.837   3
  -7  27  -1 1896.03 727.580   3
  20 -27  -1 4458.74 907.972   1
  -7  27  -1 1563.36 372.239   2
 -27   7  -1 3951.51 873.780   4
 -20  -7  -1 3194.01 763.097   4
 -27   7  -1 3036.54 740.132   2
   7  20   2 2263.56 703.541   3
  -7  27   2 1502.46 686.723   3
 -27   7   2 1483.68 593.842   4
  20 -27   2 2249.75 868.928   1
 -20  -7   2 2287.45 665.467   4
  27 -20   2 988.386 649.198   1
 -27   7   2 1718.13 645.084   2
 -20  -7   2 2197.34 632.894   2
   7  20   5 2575.27 831.943   3
  27 -20   5 2538.46 845.099   1
  -7  27   5 1134.41 667.662   3
  20 -27   5 2866.29 984.277   1
 -20  -7   5 2823.51 896.149   1
 -27   7   5 3279.96 764.169   4
 -20  -7   5 2832.65 680.313   4
 -27   7   5 1332.12 590.244   2
  27 -20   5-118.268 1624.72   3
 -20  -7   5 2110.57 630.492   2
 -27   8  -5 753.159 651.429   2
 -19  -8  -5 738.369 663.038   2
  -8  27  -5 848.826 495.904   4
 -19  -8  -5 1368.32 516.205   1
 -27   8  -5 453.949 582.563   4
 -19  -8  -5 501.683 637.057   4
  19 -27  -5 2004.76 663.144   1
 -19  -8  -2 1701.53 657.585   2
   8  19  -2 1459.17 593.886   3
  -8  27  -2 837.728 244.799   2
 -27   8  -2 3370.15 784.362   4
  19 -27  -2 1287.41 658.697   1
 -19  -8  -2 1398.88 604.892   4
 -27   8  -2 1848.02 749.362   2
 -19  -8   1 2248.65 632.159   2
   8  19   1 2233.94 674.424   3
  -8  27   1 2670.67 747.216   3
  27 -19   1 3365.74 901.560   1
 -27   8   1 2037.43 623.699   4
  19 -27   1 2414.31 836.091   1
 -19  -8   1 2340.20 748.383   4
 -27   8   1 1992.62 652.633   2
   8  19   4 2894.60 770.302   3
  -8  27   4 1262.09 650.115   3
  19 -27   4 2038.67 757.018   1
 -19  -8   4 3767.04 911.103   1
  27 -19   4 4601.71 1022.35   1
 -27   8   4 2209.79 660.981   4
 -19  -8   4 2781.14 682.500   4
 -27   8   4 2078.04 670.690   2
 -19  -8   4 3040.99 731.729   2
   8  19   7 1665.79 875.410   3
  27 -19   7 2871.08 939.798   1
  -8  27   7 1984.42 854.871   3
  19 -27   7 2319.14 931.813   1
 -27   8   7 2621.21 715.551   4
 -19  -8   7 4144.69 1076.69   1
 -27   8   7 3089.04 877.596   2
  27 -19   7-396.892 2366.96   3
 -19  -8   7 1642.41 626.163   2
 -27   9  -6 444.757 577.692   2
 -18  -9  -6 1223.23 861.668   2
  -9  27  -6 292.476 399.911   4
 -27   9  -6 1265.47 699.354   4
 -18  -9  -6 801.311 710.876   4
 -18  -9  -3 4458.15 880.433   2
  18 -27  -3 5439.59 1001.77   1
 -18  -9  -3 5192.38 782.468   1
  -9  27  -3 2663.40 635.308   4
 -27   9  -3 4456.79 922.355   4
 -18  -9  -3 4072.28 961.683   4
 -27   9  -3 6561.57 994.687   2
 -18  -9   0 2740.59 696.891   2
   9  18   0 3773.57 763.047   3
  -9  27   0 3031.73 738.579   3
  -9  27   0 2441.07 485.126   2
 -18  -9   0 2363.58 637.153   1
  27 -18   0 3664.19 910.153   1
 -27   9   0 2507.84 717.072   4
 -18  -9   0 3578.83 820.480   4
  18 -27   0 3428.69 929.080   1
 -27   9   0 2462.25 677.048   2
   9  18   3 4976.18 886.266   3
  -9  27   3 5066.54 912.669   3
  18 -27   3 3811.66 961.684   1
 -18  -9   3 2903.90 817.382   1
 -27   9   3 2868.29 738.321   4
 -18  -9   3 4265.41 770.246   4
 -27   9   3 3727.32 796.246   2
 -18  -9   3 4758.79 777.526   2
  27 -18   3 4946.10 987.746   1
   9  18   6 1669.02 796.702   3
  18 -27   6 3878.23 968.621   1
  -9  27   6 2921.24 891.043   3
  27 -18   6 3598.94 917.923   1
 -27   9   6 3521.73 804.479   4
 -27   9   6 4729.73 980.328   2
 -18  -9   6 3322.21 969.856   1
 -18  -9   6 3487.47 704.926   4
 -18  -9   6 3624.30 691.280   2
 -27  10  -7 1307.09 698.262   2
 -27  10  -7 2079.94 852.935   4
 -27  10  -4 570.978 576.493   2
  17 -27  -4 657.996 568.848   1
 -17 -10  -4 673.393 639.760   2
 -10  27  -4 1504.06 533.739   4
 -17 -10  -4 1551.06 546.120   1
 -27  10  -4 1198.59 656.729   4
 -17 -10  -4 809.750 639.500   4
 -17 -10  -1 3010.10 725.071   2
  10  17  -1 4021.82 793.893   3
 -10  27  -1 3887.79 800.737   3
 -10  27  -1 2434.28 425.701   2
 -17 -10  -1 3135.43 711.565   1
 -27  10  -1 3023.05 765.206   4
 -17 -10  -1 4167.89 855.601   4
  17 -27  -1 4398.84 917.389   1
 -27  10  -1 3182.31 782.702   2
 -17 -10   2-466.817 494.073   2
  10  17   2 849.465 622.852   3
 -10  27   2 1304.45 622.287   3
  17 -27   2 650.221 660.238   1
 -17 -10   2 323.388 521.732   1
 -27  10   2 636.923 472.407   4
 -17 -10   2 94.0721 520.869   4
 -27  10   2 2354.29 711.175   2
  27 -17   2 431.773 1250.20   3
  27 -17   2 1968.72 758.116   1
  17 -27   5-246.475 714.036   1
  10  17   5 1025.62 644.034   3
 -10  27   5 710.656 644.129   3
 -27  10   5 271.599 503.083   4
 -17 -10   5 1954.89 779.979   1
 -27  10   5 1060.07 634.882   2
 -17 -10   5 968.536 565.843   4
  27 -17   5 1552.93 838.258   1
  27 -17   5-282.942 1623.95   3
 -17 -10   5 937.852 452.223   2
 -27  11  -8 463.452 638.280   2
 -27  11  -8 297.644 657.857   4
 -27  11  -5 1092.74 665.718   2
 -16 -11  -5 2231.48 800.157   2
 -11  27  -5 297.905 416.409   4
 -16 -11  -5 592.177 409.054   1
 -27  11  -5 1131.42 659.439   4
 -16 -11  -5-277.415 597.415   4
  16 -27  -5 142.386 566.710   1
 -16 -11  -2 2797.46 750.579   2
  11  16  -2 1462.43 575.299   3
 -11  27  -2 3929.04 723.598   4
 -16 -11  -2 2849.79 620.762   1
 -27  11  -2 2639.26 702.074   4
 -11  27  -2 1306.50 285.883   2
 -16 -11  -2 3841.04 823.152   4
  16 -27  -2 3950.31 863.428   1
 -27  11  -2 1845.09 659.981   2
 -16 -11   1 418.826 417.264   2
  11  16   1 1450.62 602.159   3
 -11  27   1 929.395 532.795   3
  16 -27   1 1073.38 673.803   1
 -11  27   1 655.808 426.173   2
 -16 -11   1 1502.18 639.361   1
 -27  11   1 1420.31 681.550   4
 -16 -11   1 1338.61 609.043   4
 -27  11   1 719.093 562.755   2
  27 -16   1 287.229 515.922   3
  16 -27   4 975.266 724.499   1
  11  16   4 412.628 540.215   3
 -11  27   4 933.303 599.132   3
  27 -16   4 666.375 629.334   1
 -27  11   4 1514.21 611.065   4
 -16 -11   4 3037.95 811.117   1
 -27  11   4 880.955 581.827   2
 -16 -11   4 1881.81 566.410   4
  27 -16   4-86.6652 1274.27   3
 -16 -11   4 1114.95 506.733   2
  11  16   7 158.608 673.011   3
 -11  27   7 1008.55 690.085   3
 -27  11   7 273.878 528.688   4
 -16 -11   7-320.297 758.385   1
 -27  11   7 681.447 631.663   2
  27 -16   7 512.359 1209.01   3
  27 -16   7 785.877 706.248   1
 -16 -11   7 751.441 489.008   2
  16 -27   7 1983.50 933.897   1
 -27  12  -6 2022.95 731.763   2
 -12  27  -6 228.263 391.187   4
  15 -27  -6 1623.47 586.681   1
 -27  12  -6 1281.00 714.295   4
 -15 -12  -3 2769.97 726.161   2
  15 -27  -3 3926.55 804.729   1
 -12  27  -3 3483.81 679.900   4
 -15 -12  -3 4416.36 687.251   1
 -27  12  -3 4662.11 863.290   4
 -15 -12  -3 3852.04 874.779   4
 -27  12  -3 3816.81 781.650   2
 -15 -12   0 324.105 471.915   2
  12  15   0 299.375 485.377   3
 -12  27   0 180.001 453.398   3
 -12  27   0 629.448 553.799   4
  15 -27   0 768.961 625.563   1
 -12  27   0-33.1281 356.185   2
 -15 -12   0-103.075 538.459   1
 -27  12   0 501.197 472.025   4
 -15 -12   0 1289.40 592.194   4
 -27  12   0 839.243 614.488   2
  27 -15   0 937.426 199.249   3
  12  15   3 8787.86 1072.62   3
 -12  27   3 9323.40 1096.90   3
 -12  27   3 7043.64 922.287   2
 -15 -12   3 10158.0 1224.93   1
  15 -27   3 10535.5 1324.72   1
 -27  12   3 9607.44 1097.48   4
 -27  12   3 8616.13 1080.68   2
  27 -15   3 7574.35 1103.33   1
 -15 -12   3 8267.99 971.757   4
  27 -15   3 10324.0 1189.20   3
 -15 -12   3 10176.6 988.174   2
  12  15   6 2967.24 870.704   3
 -12  27   6 3880.93 816.194   3
  27 -15   6 3361.50 895.749   1
 -27  12   6 3613.91 767.911   4
 -15 -12   6 3109.30 909.776   1
 -27  12   6 3644.96 915.008   2
 -15 -12   6 3425.04 646.341   2
  27 -15   6 3853.97 1282.45   3
  15 -27   6 4753.81 1050.97   1
 -27  13  -7 183.472 625.662   2
 -27  13  -7 387.377 651.621   4
 -14 -13  -4 1572.06 699.393   2
 -13  27  -4 1404.35 518.462   4
 -27  13  -4 1825.79 750.611   4
 -14 -13  -4 1489.87 489.225   1
  14 -27  -4 1136.96 554.984   1
 -27  13  -4 1700.58 657.145   2
 -14 -13  -1 233.165 474.825   2
  13  14  -1 420.001 462.027   3
 -13  27  -1 830.537 521.197   4
  14 -27  -1 845.672 584.143   1
 -13  27  -1 396.395 303.210   2
 -27  13  -1 599.255 551.218   4
 -14 -13  -1 195.248 489.093   1
 -14 -13  -1 842.502 575.389   4
 -27  13  -1 281.749 494.575   2
 -14 -13   2-139.397 471.420   2
  13  14   2-629.139 538.164   3
 -13  27   2 597.810 506.125   3
 -13  27   2 683.283 505.762   4
 -13  27   2-190.585 435.906   2
 -27  13   2 993.014 552.440   4
 -14 -13   2 604.993 587.479   1
 -14 -13   2-376.412 445.108   4
 -27  13   2 141.002 527.779   2
  27 -14   2 390.897 379.539   3
  14 -27   2 700.369 648.653   1
 -14 -13   5 347.934 438.928   2
  27 -14   5 1358.54 696.674   1
  13  14   5-133.262 611.939   3
 -13  27   5 1339.00 664.358   3
 -13  27   5 334.876 523.194   2
 -27  13   5 432.210 501.808   4
 -14 -13   5 750.467 667.860   1
 -27  13   5 404.958 609.075   2
  27 -14   5 288.706 570.024   3
  14 -27   5 555.004 720.686   1
  13  14   8 891.402 793.739   3
 -13  27   8 838.972 702.048   3
 -13  27   8 1165.26 745.177   4
 -13  27   8 1593.03 856.331   2
 -27  13   8 1015.69 621.495   4
 -27  13   8-856.828 676.227   2
  27 -14   8 182.179 674.719   1
 -14 -13   8 401.964 715.442   1
  14 -27   8 1307.48 947.550   1
  27 -14   8 1395.06 915.537   3
 -27  14  -8 1013.77 703.380   2
 -27  14  -8 883.351 717.196   4
 -27  14  -5-46.2378 507.438   2
  13 -27  -5-986.758 557.887   1
 -14  27  -5 538.167 413.286   4
 -27  14  -5-448.064 638.012   4
 -13 -14  -5 357.173 376.694   1
 -13 -14  -2 265.652 516.003   2
  14  13  -2 461.891 525.143   3
 -14  27  -2 160.121 415.841   4
 -27  14  -2 466.429 553.180   4
  13 -27  -2 816.696 580.634   1
 -13 -14  -2 834.548 461.201   1
 -14  27  -2 190.486 231.037   2
 -27  14  -2-367.498 512.125   2
 -13 -14   1 624.434 429.697   2
  14  13   1 485.884 508.273   3
 -14  27   1 406.727 500.852   3
 -14  27   1 1137.77 554.201   4
 -14  27   1 670.452 423.482   2
 -27  14   1 423.126 489.168   4
 -13 -14   1 1457.61 669.666   1
 -13 -14   1 620.747 464.697   4
 -27  14   1 374.937 497.533   2
  27 -13   1 688.042 291.926   3
  13 -27   1 210.128 594.612   1
 -13 -14   4 2010.11 501.231   2
  14  13   4 553.505 611.030   3
 -14  27   4 1218.62 569.553   3
 -14  27   4 1113.76 612.142   4
 -14  27   4 700.160 599.984   2
 -27  14   4 700.365 512.540   4
 -13 -14   4-455.422 730.474   1
 -27  14   4 371.704 518.626   2
  13 -27   4 1127.32 798.578   1
  27 -13   4 1829.40 605.777   3
  14  13   7 1648.29 767.434   3
 -14  27   7-177.870 590.810   3
 -14  27   7-268.935 645.124   4
 -14  27   7 703.717 660.870   2
  27 -13   7 495.850 673.806   1
 -27  14   7 689.299 563.540   4
 -27  14   7 28.2403 559.874   2
 -13 -14   7 1115.74 832.807   1
  13 -27   7 25.5206 782.139   1
  27 -13   7 633.672 740.900   3
 -27  15  -6 3945.79 838.390   2
  12 -27  -6 1588.11 544.312   1
 -15  27  -6 1445.86 526.582   4
 -27  15  -6 2994.30 769.261   4
 -12 -15  -3 8139.13 1084.15   2
 -15  27  -3 6956.97 907.175   4
 -12 -15  -3 9342.58 912.593   1
 -27  15  -3 9110.06 1103.29   4
 -15  27  -3 6205.28 471.160   2
 -27  15  -3 9312.67 1072.42   2
  12 -27  -3 7955.45 1007.67   1
  12 -27   0 1641.44 652.359   1
 -12 -15   0 673.991 440.867   2
  15  12   0 1148.32 516.882   3
 -15  27   0 96.3191 449.965   3
 -15  27   0 50.6308 454.099   4
 -15  27   0 897.458 382.142   2
 -27  15   0 976.036 510.760   4
 -12 -15   0 939.370 521.376   1
 -27  15   0 640.377 542.731   2
  15  12   3 5472.51 865.209   3
 -15  27   3 4856.13 815.940   3
  12 -27   3 5430.26 996.249   1
 -15  27   3 3314.99 795.348   4
 -15  27   3 3277.05 743.208   2
 -12 -15   3 5654.38 968.162   1
 -27  15   3 5338.11 884.997   4
 -27  15   3 3842.31 814.464   2
  27 -12   3 3858.67 613.886   3
 -12 -15   3 4492.31 658.662   2
  15  12   6 797.874 733.235   3
 -15  27   6 2106.66 714.880   3
 -15  27   6 1576.98 796.588   4
 -15  27   6 874.987 628.278   2
 -27  15   6 1519.53 608.384   4
 -27  15   6 2669.77 821.711   2
  12 -27   6 1232.48 862.193   1
 -12 -15   6 1654.49 799.466   1
  27 -12   6 2277.43 727.343   3
 -27  16  -7-270.229 604.228   2
 -16  27  -7-189.812 402.709   4
 -27  16  -7 360.793 669.551   4
  11 -27  -4 1330.98 568.390   1
 -16  27  -4 610.269 449.450   4
 -27  16  -4 1447.60 647.910   4
 -11 -16  -4 1808.60 498.283   1
 -27  16  -4 816.964 574.221   2
  11 -27  -1 1263.08 665.157   1
  16  11  -1 471.175 458.998   3
 -11 -16  -1 862.664 530.137   2
 -16  27  -1 172.714 476.006   4
 -27  16  -1 1132.01 595.979   4
 -16  27  -1 849.370 387.980   2
 -11 -16  -1 1361.84 545.562   1
 -27  16  -1 1568.24 608.044   2
 -11 -16   2 2986.15 636.752   2
  16  11   2 1805.09 575.125   3
 -16  27   2 1906.98 619.499   3
 -16  27   2 1459.85 661.479   4
 -16  27   2 2346.64 584.409   2
 -27  16   2 3256.09 708.083   4
 -11 -16   2 3397.07 780.306   1
 -27  16   2 3126.91 726.931   2
  11 -27   2 3171.53 841.973   1
  27 -11   2 1710.89 396.404   3
  16  11   5 1349.20 710.180   3
 -11 -16   5 987.464 402.035   2
 -16  27   5 1399.91 632.617   3
 -16  27   5 528.662 584.694   4
 -16  27   5 704.551 539.146   2
 -27  16   5 570.930 574.975   4
 -27  16   5 1710.93 699.048   2
  11 -27   5 1194.70 686.538   1
 -11 -16   5 677.557 701.247   1
  27 -11   5 1811.80 649.885   3
  16  11   8 784.720 796.785   3
 -16  27   8 266.015 615.674   3
 -16  27   8 345.349 651.016   4
 -16  27   8-501.672 692.758   2
 -27  16   8 852.795 591.624   4
 -27  16   8 525.315 630.435   2
  11 -27   8 2041.70 920.208   1
 -11 -16   8-464.716 754.224   1
  27 -11   8 587.099 790.314   3
 -27  17  -5 418.828 557.409   2
 -10 -17  -5 353.472 376.927   1
 -17  27  -5-138.012 445.133   4
 -27  17  -5-36.8444 490.297   4
  10 -27  -5 415.586 460.767   1
  10 -27  -2 620.834 560.106   1
  17  10  -2 1030.32 499.880   3
 -17  27  -2 1216.12 560.659   4
 -27  17  -2 76.0157 470.181   4
 -17  27  -2 529.401 327.075   2
 -10 -17  -2 1033.46 528.150   1
 -27  17  -2-176.821 473.537   2
  17  10   1 2495.94 621.976   3
 -10 -17   1 2601.15 588.415   2
 -17  27   1 2994.13 688.706   3
 -17  27   1 3556.69 806.957   4
 -27  17   1 2428.79 658.648   4
 -17  27   1 2420.48 577.841   2
 -27  17   1 2877.40 744.417   2
 -10 -17   1 3783.04 825.414   1
  10 -27   1 4578.60 862.477   1
  27 -10   1 2677.88 342.509   3
  17  10   4 768.463 517.763   3
 -10 -17   4 937.603 410.361   2
 -17  27   4 1187.73 567.740   3
 -17  27   4 645.762 569.557   4
 -17  27   4 552.244 523.722   2
 -27  17   4 1223.16 639.296   4
  10 -27   4 64.2826 644.576   1
 -27  17   4 1696.95 669.913   2
 -10 -17   4 715.639 598.412   1
  27 -10   4 194.976 451.253   3
  17  10   7-323.922 718.605   3
 -17  27   7 511.381 558.968   3
 -17  27   7 1184.93 759.912   4
 -17  27   7-399.061 680.341   2
 -27  17   7 25.0072 503.273   4
  10 -27   7 1121.18 841.048   1
 -27  17   7 1167.51 716.628   2
 -10 -17   7 1216.85 846.340   1
  27 -10   7 1215.44 704.864   3
 -27  18  -6 2154.82 708.881   2
 -18  27  -6 3516.99 663.903   4
 -27  18  -6 3923.39 817.618   4
   9 -27  -3 3245.82 691.548   1
 -18  27  -3 3741.27 705.290   4
 -27  18  -3 2996.96 753.868   4
  -9 -18  -3 3644.28 650.519   1
 -18  27  -3 2789.44 427.435   2
 -27  18  -3 3486.90 713.066   2
  18   9   0 2599.05 590.324   3
  -9 -18   0 2908.31 641.679   2
 -18  27   0 2040.66 662.489   4
 -18  27   0 2786.80 570.703   2
 -27  18   0 4185.50 811.873   4
 -27  18   0 3371.28 728.410   2
  -9 -18   0 2358.15 627.825   1
   9 -27   0 3646.81 851.298   1
  -9 -18   3 4150.89 602.624   2
 -18  27   3 4393.08 760.371   3
 -18  27   3 4436.55 878.171   4
 -18  27   3 3727.57 756.832   2
 -27  18   3 3712.30 824.634   4
  -9 -18   3 5599.21 986.254   1
   9 -27   3 4761.92 922.353   1
 -27  18   3 3487.77 788.488   2
  27  -9   3 5051.67 651.721   3
  18   9   3 5190.66 856.382   3
  18   9   6 1836.35 688.828   3
 -18  27   6 1785.41 631.800   3
 -18  27   6 650.339 624.636   4
 -18  27   6 514.878 627.818   2
 -27  18   6 1424.24 682.730   4
   9 -27   6 2343.72 936.518   1
 -27  18   6 2432.75 833.897   2
  -9 -18   6 1390.07 885.470   1
  27  -9   6 2740.36 783.265   3
 -27  19  -7 3121.52 784.139   2
 -19  27  -7 2246.29 601.208   4
 -27  19  -7 1617.70 700.619   4
  -8 -19  -4 2224.03 535.659   1
 -19  27  -4 1240.98 551.018   4
 -27  19  -4 1356.15 603.151   4
   8 -27  -4 1855.14 594.808   1
 -19  27  -4 2082.56 402.198   2
 -27  19  -4 373.692 475.108   2
  19   8  -1 3120.16 572.572   3
 -19  27  -1 2757.87 737.056   4
 -27  19  -1 4143.75 798.804   4
 -19  27  -1 3298.74 559.718   2
  -8 -19  -1 3685.42 735.799   1
 -27  19  -1 2327.71 617.519   2
   8 -27  -1 2845.76 725.641   1
  19   8   2 2520.19 641.252   3
  -8 -19   2 1912.73 486.739   2
 -19  27   2 793.080 505.503   3
 -19  27   2 1102.38 639.974   4
 -27  19   2 2015.27 660.979   4
 -19  27   2 1524.48 560.203   2
   8 -27   2 2061.38 812.827   1
 -27  19   2 1476.66 640.295   2
  -8 -19   2 1607.93 685.718   1
  27  -8   2 1444.92 398.193   3
  19   8   5 1123.92 615.548   3
 -19  27   5 675.992 552.906   3
 -19  27   5 1557.39 671.319   4
 -19  27   5 648.123 577.432   2
 -27  19   5 1005.27 568.659   4
   8 -27   5 809.630 719.515   1
 -27  19   5 1361.13 621.682   2
  -8 -19   5 1469.12 783.530   1
  27  -8   5 842.928 539.020   3
   7 -27  -5 1196.39 507.344   1
 -20  27  -5 2625.48 631.580   4
 -27  20  -5 1382.44 642.268   4
 -27  20  -5 2200.68 670.638   2
 -20  27  -2 1545.73 611.437   4
 -27  20  -2 1534.99 585.961   4
 -20  27  -2 1366.09 440.877   2
 -27  20  -2 597.718 485.468   2
   7 -27  -2 1877.55 697.649   1
  -7 -20  -2 512.500 469.824   1
  20   7   1 2360.30 557.796   3
 -20  27   1 3229.14 764.312   4
 -27  20   1 2220.58 638.167   4
 -20  27   1 2091.58 592.442   2
   7 -27   1 4201.82 825.187   1
  -7 -20   1 4298.67 851.976   1
 -27  20   1 3436.45 748.659   2
  27  -7   1 3406.42 404.323   3
  20   7   4 964.310 590.068   3
 -20  27   4 630.656 478.892   3
 -20  27   4 262.441 541.944   4
 -27  20   4 799.602 564.900   4
   7 -27   4 1190.95 727.086   1
 -20  27   4 91.8284 528.573   2
 -27  20   4 2285.23 740.141   2
  -7 -20   4 1358.86 740.060   1
  27  -7   4 889.662 495.979   3
  20   7   7 749.171 757.900   3
 -20  27   7 1491.86 648.174   3
 -20  27   7-76.7594 646.166   4
 -20  27   7 874.844 729.302   2
   7 -27   7 2326.74 1020.84   1
 -27  20   7 1331.54 745.975   4
 -27  20   7 1944.32 763.652   2
  27  -7   7 1982.59 787.872   3
  -7 -20   7 1180.22 851.669   1
 -27  21  -6 747.361 557.262   2
 -21  27  -6 847.129 511.232   4
 -27  21  -6 1489.82 659.543   4
   6 -27  -3 1779.27 625.146   1
  -6 -21  -3 1727.14 564.434   1
 -21  27  -3 1537.35 597.470   4
 -27  21  -3 1689.26 619.852   4
 -21  27  -3 516.601 343.821   2
 -27  21  -3 2428.77 690.429   2
  21   6   0 3143.77 582.474   3
 -21  27   0 2839.92 768.684   4
 -27  21   0 4322.39 840.444   4
 -21  27   0 3606.23 642.694   2
   6 -27   0 1969.38 681.756   1
 -27  21   0 3071.50 722.330   2
  -6 -21   0 3090.87 745.216   1
  21   6   3 1970.08 590.499   3
 -21  27   3 2231.95 623.404   3
 -21  27   3 1803.79 709.703   4
   6 -27   3 1757.11 779.478   1
 -27  21   3 793.570 593.794   4
 -21  27   3 2031.47 658.333   2
 -27  21   3 1430.99 651.918   2
  -6 -21   3 925.711 626.863   1
  27  -6   3 1491.62 533.417   3
  21   6   6 2554.06 853.363   3
 -21  27   6 3238.57 769.945   3
 -21  27   6 2376.90 855.439   4
   6 -27   6 1852.88 892.611   1
 -27  21   6 4135.35 934.284   4
 -21  27   6 1352.83 706.518   2
 -27  21   6 2986.04 864.637   2
  27  -6   6 3631.85 861.867   3
  -6 -21   6 1526.79 842.150   1
 -27  22  -7 3038.48 756.623   2
 -22  27  -7 2458.88 700.404   4
 -27  22  -7 2935.93 806.804   4
   5 -27  -4 700.320 475.558   1
  -5 -22  -4 370.926 425.851   1
 -22  27  -4 1089.17 600.406   4
 -27  22  -4 467.185 543.304   4
 -22  27  -4 1589.60 463.291   2
 -27  22  -4 1382.18 604.519   2
   5 -27  -1 5396.73 901.899   1
  22   5  -1 5851.61 649.932   3
 -22  27  -1 3855.37 844.402   4
 -27  22  -1 4420.61 839.556   4
 -22  27  -1 4704.36 685.473   2
 -27  22  -1 6396.98 868.055   2
  -5 -22  -1 5675.35 887.373   1
  22   5   2 4113.64 705.514   3
 -22  27   2 2777.83 734.059   4
   5 -27   2 2745.73 923.537   1
 -27  22   2 2359.13 707.023   4
 -22  27   2 3629.06 704.260   2
 -27  22   2 3337.77 758.836   2
  27  -5   2 3278.60 546.591   3
  -5 -22   2 3092.84 811.510   1
  22   5   5 1799.17 681.378   3
 -22  27   5 1896.61 599.578   3
   5 -27   5 1908.59 855.607   1
 -22  27   5 1906.71 730.032   4
 -27  22   5 896.729 623.381   4
 -22  27   5 2751.76 805.345   2
 -27  22   5 1511.58 702.444   2
  27  -5   5 2244.32 685.531   3
  -5 -22   5 2912.82 932.312   1
 -23  27  -5 720.438 507.940   4
 -27  23  -5 1972.67 751.103   4
 -27  23  -5 543.617 543.732   2
  -4 -23  -2 1412.33 585.110   1
 -23  27  -2 300.136 466.053   4
 -27  23  -2 401.544 599.008   4
   4 -27  -2 1502.84 604.903   1
 -23  27  -2 914.245 476.310   2
 -27  23  -2 504.611 502.569   2
  -4 -23   1 2664.66 804.219   1
  27  -4   1 1934.14 382.561   3
  23   4   1 1736.66 522.686   3
 -23  27   1 2792.22 744.017   4
   4 -27   1 2321.78 775.087   1
 -27  23   1 1885.34 727.613   4
 -23  27   1 2789.75 674.885   2
 -27  23   1 968.258 557.369   2
  23   4   4 525.755 640.675   3
 -23  27   4-90.3463 437.409   3
   4 -27   4-316.462 691.194   1
 -23  27   4-216.181 576.639   4
 -27  23   4 516.677 614.481   4
 -23  27   4-483.837 605.452   2
 -27  23   4 180.962 650.595   2
  27  -4   4 327.534 505.258   3
  -4 -23   4-457.231 613.876   1
  -4 -23   7-296.531 763.908   1
   4 -27   7 92.4177 787.794   1
 -23  27   7-328.389 658.310   4
 -27  23   7-58.4079 639.176   4
 -23  27   7 1042.89 758.331   2
 -27  23   7-334.788 672.254   2
  27  -4   7 1155.94 726.003   3
  23   4   7 644.451 707.774   3
 -27  24  -6 1833.06 620.771   2
 -24  27  -6 1506.24 614.785   4
 -27  24  -6 1328.83 684.101   4
  -3 -24  -3 1295.84 593.389   1
 -24  27  -3 781.120 578.471   4
 -27  24  -3 387.522 522.198   4
   3 -27  -3 220.265 520.728   1
 -24  27  -3 964.378 467.875   2
 -27  24  -3 966.953 492.669   2
  24   3   0 2601.94 535.541   3
  -3 -24   0 2212.17 706.845   1
 -24  27   0 2029.82 748.914   4
   3 -27   0 2434.45 783.135   1
 -27  24   0 2662.12 731.324   4
 -24  27   0 3294.19 685.958   2
 -27  24   0 3117.39 692.851   2
  27  -3   3 736.273 462.366   3
  -3 -24   3 1641.99 719.863   1
  24   3   3 1120.17 555.278   3
   3 -27   3 38.9170 635.890   1
 -24  27   3 164.428 567.666   4
 -27  24   3 457.630 573.845   4
 -24  27   3 289.983 546.856   2
 -27  24   3 1536.87 707.183   2
  -3 -24   6 104.925 707.890   1
 -24  27   6 1013.22 477.338   3
   3 -27   6-326.803 807.360   1
 -24  27   6 812.681 694.762   4
 -27  24   6 1141.13 670.334   4
 -24  27   6 670.448 791.776   2
 -27  24   6 366.108 685.795   2
  27  -3   6 1457.61 713.770   3
  24   3   6 736.990 673.381   3
 -25  27  -4 1421.97 671.167   4
 -27  25  -4 1477.36 672.025   4
  -2 -25  -4 1384.89 556.684   1
 -25  27  -4 1344.66 519.398   2
 -27  25  -4 1779.91 621.849   2
   2 -27  -4 1019.55 586.427   1
  25   2  -1 5864.29 566.792   3
 -25  27  -1 7296.21 1084.81   4
 -27  25  -1 4967.33 948.442   4
 -25  27  -1 6674.22 863.517   2
 -27  25  -1 6879.36 903.586   2
  -2 -25  -1 6126.92 946.890   1
   2 -27  -1 5969.84 959.778   1
  27  -2   2 2767.15 563.664   3
  25   2   2 2756.46 612.437   3
  -2 -25   2 2322.01 790.740   1
   2 -27   2 1175.35 710.622   1
 -25  27   2 2619.29 786.638   4
 -27  25   2 3594.16 856.073   4
 -25  27   2 2112.86 688.279   2
 -27  25   2 1110.30 634.710   2
  -2 -25   5 3495.18 1013.85   1
   2 -27   5 3141.55 967.103   1
 -25  27   5 2202.80 579.222   3
 -25  27   5 3518.91 922.316   4
 -27  25   5 2881.16 825.923   4
 -25  27   5 3871.48 917.495   2
 -27  25   5 2464.20 849.472   2
  25   2   5 4651.81 914.721   3
  27  -2   5 3541.04 831.495   3
 -26  27  -5 463.518 545.262   4
 -27  26  -5-413.914 556.619   4
 -27  26  -5 945.094 530.686   2
 -26  27  -5 1436.41 529.719   2
  -1 -26  -2 960.581 644.972   1
 -26  27  -2 181.936 601.708   4
 -27  26  -2 700.739 583.146   4
   1 -27  -2-83.6902 534.796   1
 -26  27  -2 289.425 491.895   2
 -27  26  -2 998.647 522.842   2
  27  -1   1 1652.67 448.465   3
  26   1   1 1870.16 503.428   3
  -1 -26   1 687.992 716.684   1
   1 -27   1 1065.70 733.100   1
 -26  27   1 457.833 564.031   4
 -27  26   1 1138.94 671.826   4
 -26  27   1 2686.68 692.435   2
 -27  26   1 1410.40 590.652   2
  27  -1   4 424.364 512.199   3
  26   1   4 742.880 542.253   3
  -1 -26   4 1025.26 737.191   1
   1 -27   4 47.1925 765.609   1
 -26  27   4 1490.57 816.790   4
 -27  26   4 725.394 635.369   4
 -26  27   4 226.330 567.682   2
 -27  26   4 223.078 560.133   2
 -27  27  -3 725.914 613.069   4
   0 -27  -3 440.593 560.520   1
 -27  27  -3 37.1806 446.197   2
   0 -27   0 1832.60 767.270   1
 -27  27   0 2752.01 790.444   4
 -27  27   0 3489.39 740.722   2
  27   0   3 72.2608 462.863   3
   0 -27   3 495.831 733.643   1
 -27  27   3-833.804 690.185   4
 -27  27   3 341.084 543.620   2
 -28   0  -4 1719.16 791.081   2
 -28   0  -4 510.421 731.136   4
 -28   0  -1-295.830 653.413   2
   0  28  -1 162.021 637.010   3
 -28   0  -1-293.548 642.733   4
  28 -28  -1-203.224 703.718   1
   0  28   2 1263.96 757.214   3
 -28   0   2 333.250 610.679   4
 -28   0   2-562.517 604.118   2
  28 -28   2-248.850 766.032   1
 -28   1  -5 3524.80 1042.91   2
 -27  -1  -5 5688.81 1173.36   2
 -27  -1  -5 6870.92 1242.74   4
 -28   1  -5 2051.05 904.270   4
 -28   1  -2 1300.69 685.542   2
 -27  -1  -2 2337.88 828.913   2
  27 -28  -2 1367.98 825.298   1
   1  27  -2 695.111 665.761   3
 -28   1  -2 1506.62 754.593   4
 -27  -1  -2 552.957 720.963   4
  28 -27  -2 1244.46 763.476   1
  28 -27   1 2078.89 942.413   1
   1  27   1 3230.23 882.087   3
  -1  28   1 4423.30 991.957   3
 -27  -1   1 5169.19 1015.88   4
 -28   1   1 4395.84 924.325   4
 -28   1   1 4668.01 953.474   2
 -27  -1   1 4211.90 915.452   2
  27 -28   1 3243.44 1002.18   1
   1  27   4 1153.02 817.550   3
  -1  28   4-75.3953 657.644   3
  27 -28   4-266.031 781.916   1
 -28   1   4 1442.87 693.943   4
 -27  -1   4 1560.96 720.521   4
  28 -27   4 185.484 830.878   1
 -28   1   4 2207.44 799.254   2
 -27  -1   4 370.201 560.325   2
 -28   2  -3 2998.16 888.978   2
 -26  -2  -3 4067.04 949.095   2
  26 -28  -3 4013.72 980.046   1
 -28   2  -3 1341.79 805.493   4
 -26  -2  -3 3198.43 973.889   4
  26 -28   0 1795.06 853.030   1
   2  26   0 2102.71 784.854   3
  -2  28   0 2730.51 820.596   3
 -28   2   0 267.979 598.804   4
 -26  -2   0 1865.74 813.255   4
  28 -26   0 1542.39 802.211   1
 -28   2   0 979.975 678.533   2
 -26  -2   0 2138.27 774.751   2
   2  26   3 2923.37 883.971   3
  -2  28   3 3118.04 899.535   3
  26 -28   3 3377.63 1030.54   1
 -28   2   3 1811.30 649.115   4
 -26  -2   3 2570.12 733.470   4
 -28   2   3 2160.72 776.529   2
 -26  -2   3 3015.69 789.931   2
  28 -26   3 3886.66 1080.16   1
 -28   3  -4 634.911 751.051   2
 -25  -3  -4 709.196 687.977   2
 -28   3  -4 1429.20 810.158   4
 -25  -3  -4 660.891 764.774   4
  25 -28  -4 1503.06 845.002   1
 -25  -3  -1 801.309 680.172   2
  25 -28  -1 1298.11 763.953   1
   3  25  -1 443.479 605.701   3
  -3  28  -1 6.13290 602.314   3
  28 -25  -1 31.6456 724.142   1
 -28   3  -1-10.5713 602.654   4
 -25  -3  -1-8.71644 651.730   4
 -28   3  -1 648.346 592.980   2
  25 -28   2 2247.48 1228.46   1
  28 -25   2 3956.73 978.906   1
   3  25   2 2322.06 799.421   3
  -3  28   2 3404.77 950.029   3
 -25  -3   2 3374.89 1019.86   4
 -28   3   2 1305.81 698.649   4
 -28   3   2 1865.58 764.045   2
 -25  -3   2 2610.39 764.145   2
   3  25   5 490.713 728.387   3
  -3  28   5 297.324 724.834   3
 -28   3   5 893.980 640.888   4
 -25  -3   5 682.811 564.702   4
 -28   3   5 443.722 641.359   2
  28 -25   5 872.466 899.097   1
 -25  -3   5 1143.54 663.280   2
  25 -28   5 1970.05 927.523   1
 -28   4  -5 2307.14 913.411   2
 -24  -4  -5 1985.20 822.185   2
  -4  28  -5 1564.32 558.111   4
 -28   4  -5 4448.67 1034.75   4
 -24  -4  -5 4380.97 1033.53   4
 -24  -4  -2 1452.85 686.333   2
   4  24  -2 2551.96 744.228   3
  24 -28  -2 4148.46 905.661   1
 -28   4  -2 1058.48 702.097   4
 -24  -4  -2 2943.55 832.044   4
  28 -24  -2 2702.23 920.314   1
 -28   4  -2 1115.38 682.032   2
   4  24   1 7345.67 1083.39   3
  -4  28   1 5930.85 1007.14   3
  24 -28   1 4996.49 1095.77   1
 -28   4   1 5680.24 969.096   4
 -24  -4   1 6140.35 1054.66   4
 -24  -4   1 6227.60 984.778   2
 -28   4   1 4461.56 866.181   2
  28 -24   1 5675.30 1141.84   1
   4  24   4 822.246 689.744   3
  -4  28   4 929.043 637.527   3
 -28   4   4 1151.89 694.850   4
 -24  -4   4 2138.86 700.919   4
 -28   4   4 1286.42 726.231   2
  24 -28   4-41.3175 695.930   1
 -24  -4   4 2344.35 726.108   2
  28 -24   4 1701.39 884.677   1
 -28   5  -6 1056.24 841.458   2
 -23  -5  -6 1788.26 944.381   2
 -28   5  -6 1125.90 728.328   4
 -23  -5  -6 1029.67 857.159   4
 -28   5  -3 3772.96 930.578   2
 -23  -5  -3 4182.17 919.935   2
 -23  -5  -3 5477.10 1038.63   4
 -28   5  -3 3771.60 890.150   4
  23 -28  -3 4400.43 969.851   1
 -23  -5   0 681.369 618.734   2
   5  23   0 359.795 578.781   3
  -5  28   0-1.94175 562.876   3
  28 -23   0 1058.50 774.634   1
  23 -28   0 913.909 745.789   1
 -28   5   0 452.890 520.299   4
 -23  -5   0 462.651 687.074   4
 -28   5   0 1159.74 625.548   2
   5  23   3 5197.59 1009.14   3
  -5  28   3 3408.45 865.046   3
  28 -23   3 4085.90 1030.64   1
 -28   5   3 6062.89 1026.66   4
 -23  -5   3 5056.42 899.377   4
 -28   5   3 4430.82 922.145   2
 -23  -5   3 5119.48 918.286   2
  23 -28   3 5331.27 1157.26   1
   5  23   6 506.942 720.616   3
  -5  28   6 1191.72 775.389   3
 -23  -5   6 979.715 812.332   1
 -28   5   6 1241.54 696.867   4
  23 -28   6 1167.64 913.136   1
 -23  -5   6 882.757 566.805   4
 -28   5   6 831.277 728.642   2
  28 -23   6 1192.56 2076.09   3
 -23  -5   6 586.058 578.608   2
  28 -23   6 1289.58 884.387   1
 -28   6  -4 737.619 725.018   2
 -22  -6  -4 720.180 643.977   2
  22 -28  -4 1951.91 765.600   1
  -6  28  -4 215.299 482.433   4
 -28   6  -4 1380.25 776.574   4
 -22  -6  -4 594.827 714.460   4
 -22  -6  -1 2020.26 722.774   2
   6  22  -1 1911.23 665.403   3
  -6  28  -1 2212.68 748.161   3
  -6  28  -1 940.765 368.797   2
 -28   6  -1 2504.81 783.364   4
 -22  -6  -1 2747.97 803.193   4
  22 -28  -1 2564.82 878.675   1
 -28   6  -1 2125.75 659.453   2
  28 -22  -1 1075.90 796.880   1
   6  22   2 568.345 608.016   3
  -6  28   2 1312.79 657.472   3
 -28   6   2 485.026 521.616   4
  28 -22   2 260.723 669.608   1
 -22  -6   2 867.067 580.432   4
 -28   6   2 323.479 506.171   2
  22 -28   2 1109.09 753.537   1
 -22  -6   2 434.882 521.585   2
  28 -22   5-396.602 871.849   1
   6  22   5 1500.54 734.066   3
  -6  28   5 474.373 695.652   3
 -22  -6   5 900.564 760.873   1
  22 -28   5 742.983 680.196   1
 -28   6   5-109.926 614.194   4
 -22  -6   5 396.106 556.028   4
  28 -22   5 773.758 1836.41   3
 -28   6   5 860.836 606.550   2
 -22  -6   5 655.595 574.352   2
 -28   7  -5 2764.87 808.575   2
 -21  -7  -5 2740.05 846.402   2
  -7  28  -5 1319.92 524.596   4
  21 -28  -5 3159.87 847.158   1
 -28   7  -5 4221.12 992.755   4
 -21  -7  -5 1694.42 769.565   4
 -21  -7  -2 625.199 605.620   2
   7  21  -2 821.441 615.053   3
 -28   7  -2 1413.70 689.702   4
 -21  -7  -2 759.744 653.737   4
  21 -28  -2 173.048 678.831   1
 -28   7  -2 1025.87 571.058   2
   7  21   1 2911.49 776.623   3
  -7  28   1 3774.45 869.766   3
  28 -21   1 4782.67 985.558   1
 -28   7   1 4093.91 852.149   4
 -21  -7   1 4095.34 884.772   4
 -28   7   1 4612.64 900.292   2
 -21  -7   1 4083.26 837.179   2
  21 -28   1 3400.08 1043.72   1
   7  21   4 1936.33 746.026   3
  -7  28   4 1068.36 704.462   3
  28 -21   4 1758.67 795.253   1
 -21  -7   4 1038.27 685.575   1
  21 -28   4 32.4225 663.628   1
 -28   7   4 1899.62 641.750   4
 -21  -7   4 1871.39 661.444   4
  28 -21   4 587.328 1456.39   3
 -28   7   4 1198.54 633.594   2
 -21  -7   4 1316.07 553.039   2
  28 -21   7 1962.43 955.756   1
   7  21   7 2993.88 986.123   3
  -7  28   7 2943.09 896.159   3
  21 -28   7-500.280 838.755   1
 -21  -7   7 1808.44 884.961   1
 -28   7   7 2107.16 786.612   4
 -28   7   7 2325.63 789.604   2
 -21  -7   7 1422.58 637.941   2
 -28   8  -6 881.274 738.431   2
 -20  -8  -6-738.007 764.791   2
 -28   8  -6 584.668 783.952   4
 -20  -8  -6 1379.29 853.369   4
  -8  28  -3 5640.26 846.824   4
  20 -28  -3 7598.51 1075.95   1
 -28   8  -3 8792.14 1164.60   4
 -20  -8  -3 7442.72 1193.01   4
 -28   8  -3 9030.82 1151.63   2
 -20  -8  -3 6524.38 1056.73   2
 -20  -8   0 2318.83 690.138   2
   8  20   0 1121.49 550.942   3
  -8  28   0 2378.75 722.259   3
  -8  28   0 896.743 383.953   2
 -28   8   0 1426.50 683.026   4
 -20  -8   0 1414.20 693.409   4
  28 -20   0 1517.95 705.898   1
 -28   8   0 566.108 548.074   2
  20 -28   0 1586.15 733.893   1
   8  20   3 7264.97 1085.34   3
  -8  28   3 4069.92 908.917   3
 -20  -8   3 6063.96 1063.67   1
  20 -28   3 4225.81 1049.20   1
 -28   8   3 4770.27 863.616   4
 -20  -8   3 6303.55 944.973   4
 -28   8   3 5935.27 963.263   2
  28 -20   3 4579.37 986.804   1
 -20  -8   3 4477.65 766.359   2
   8  20   6-246.529 691.514   3
  -8  28   6 1635.21 762.032   3
  28 -20   6 39.5992 699.155   1
  20 -28   6-38.7279 724.926   1
 -20  -8   6 1748.33 825.196   1
 -28   8   6 1850.60 667.983   4
 -20  -8   6-100.874 512.781   4
 -28   8   6 799.673 678.461   2
 -20  -8   6 1271.14 572.663   2
 -28   9  -7 119.468 730.681   2
 -28   9  -7 129.729 606.309   4
 -19  -9  -7-140.364 713.067   4
 -28   9  -4 1693.29 721.230   2
 -19  -9  -4 1196.38 691.406   2
  -9  28  -4 188.123 431.608   4
 -19  -9  -4 727.130 485.520   1
  19 -28  -4 378.691 676.597   1
 -28   9  -4 1492.67 734.908   4
 -19  -9  -4 964.330 743.817   4
  19 -28  -1 1231.45 693.746   1
 -19  -9  -1 28.8913 508.802   2
   9  19  -1 755.373 566.627   3
  -9  28  -1 1598.89 663.280   3
 -19  -9  -1 351.738 491.212   1
  -9  28  -1 657.531 319.151   2
 -28   9  -1 509.782 581.564   4
 -19  -9  -1 942.254 689.819   4
 -28   9  -1 1374.33 661.214   2
 -19  -9   2 1609.77 561.570   2
   9  19   2 1092.50 629.793   3
  -9  28   2 294.263 551.441   3
 -19  -9   2 776.573 676.257   1
  28 -19   2 1929.53 778.589   1
  19 -28   2 1339.25 743.310   1
 -28   9   2 1179.33 693.483   4
 -19  -9   2 1173.50 665.121   4
  28 -19   2 921.878 1309.60   3
 -28   9   2 1619.22 633.324   2
   9  19   5-36.3681 693.567   3
  -9  28   5-33.1574 590.051   3
  19 -28   5-138.032 703.179   1
 -19  -9   5 141.165 653.790   1
 -28   9   5 364.023 542.236   4
  28 -19   5-286.093 676.639   1
 -19  -9   5 13.9086 491.464   4
 -28   9   5 127.555 580.841   2
  28 -19   5 622.940 1853.34   3
 -19  -9   5 353.057 485.695   2
 -28  10  -5 2430.22 759.327   2
  18 -28  -5 1140.80 591.147   1
 -18 -10  -5 2116.37 796.831   2
 -10  28  -5 1542.63 544.674   4
 -18 -10  -5 1789.01 536.527   1
 -28  10  -5 2024.31 783.471   4
 -18 -10  -5 3058.27 942.502   4
 -18 -10  -2 962.706 588.321   2
  18 -28  -2 45.9129 645.063   1
  10  18  -2 926.067 574.233   3
 -10  28  -2 194.773 473.136   4
 -18 -10  -2 256.518 549.889   1
 -10  28  -2 629.554 240.697   2
 -28  10  -2 1769.10 694.425   4
 -18 -10  -2-436.142 597.937   4
 -28  10  -2 975.749 624.451   2
  10  18   1 3647.84 796.068   3
 -10  28   1 3240.58 740.317   3
  28 -18   1 1517.73 773.566   1
 -10  28   1 1934.57 499.670   2
 -18 -10   1 2926.13 768.835   1
  18 -28   1 2075.07 780.151   1
 -28  10   1 2503.16 736.037   4
 -18 -10   1 2131.37 664.299   4
 -28  10   1 3166.59 730.166   2
 -18 -10   1 3624.25 753.120   2
  28 -18   4-486.141 730.321   1
  10  18   4 716.683 674.605   3
  18 -28   4 121.660 746.374   1
 -10  28   4 1014.04 660.530   3
 -18 -10   4 583.136 641.828   1
 -28  10   4 47.8181 471.661   4
 -18 -10   4-56.3153 507.251   4
 -28  10   4 1022.22 703.703   2
  28 -18   4 190.307 1613.33   3
 -18 -10   4 1436.29 617.817   2
  10  18   7 2275.00 968.453   3
  18 -28   7 549.965 740.519   1
 -10  28   7 1868.86 794.172   3
 -28  10   7 1850.32 704.125   4
 -18 -10   7 781.019 781.775   1
  28 -18   7 1318.51 760.934   1
 -28  10   7 2122.72 776.838   2
  28 -18   7 356.492 1587.99   3
 -18 -10   7 1281.11 551.314   2
 -28  11  -6 2158.80 779.749   2
 -11  28  -6 1741.69 535.534   4
 -28  11  -6 2313.07 847.911   4
  17 -28  -3 4570.04 947.208   1
 -17 -11  -3 4103.56 817.642   2
 -17 -11  -3 4561.78 746.592   1
 -11  28  -3 2558.09 660.806   4
 -28  11  -3 3339.45 839.226   4
 -17 -11  -3 3990.24 953.705   4
 -28  11  -3 6291.31 959.449   2
  11  17   0 3436.17 705.050   3
 -11  28   0 3460.88 761.515   3
 -17 -11   0 4653.70 860.379   1
 -11  28   0 2760.40 500.183   2
 -28  11   0 4981.01 908.190   4
  17 -28   0 4140.05 902.790   1
 -17 -11   0 5391.84 985.087   4
  28 -17   0 3998.74 403.734   3
 -28  11   0 4076.44 796.415   2
 -17 -11   0 4488.51 837.844   2
  11  17   3 6623.50 981.067   3
 -11  28   3 4406.62 867.900   3
 -17 -11   3 5878.94 1046.24   1
  28 -17   3 6292.95 1077.37   1
 -28  11   3 5677.61 903.943   4
  17 -28   3 6697.59 1183.75   1
 -28  11   3 6533.05 999.880   2
 -17 -11   3 5043.90 878.092   4
 -17 -11   3 5842.98 827.590   2
  17 -28   6 2333.33 912.717   1
  11  17   6 1971.33 825.046   3
 -11  28   6 1555.42 720.489   3
 -28  11   6 1033.47 638.903   4
 -17 -11   6 2725.14 946.762   1
 -28  11   6 1874.49 750.849   2
 -17 -11   6 1108.21 572.059   4
  28 -17   6-245.674 1395.25   3
  28 -17   6 597.425 669.395   1
 -17 -11   6 1670.43 588.896   2
 -28  12  -7 393.168 638.257   2
 -28  12  -7 98.5650 649.725   4
 -16 -12  -4 385.146 633.781   2
 -12  28  -4 723.188 477.686   4
 -16 -12  -4 1678.47 559.271   1
 -28  12  -4 747.988 601.946   4
 -16 -12  -4 936.483 663.735   4
  16 -28  -4 766.731 573.126   1
 -28  12  -4 1517.86 695.276   2
 -16 -12  -1-161.968 491.387   2
  12  16  -1 435.360 539.446   3
 -12  28  -1-232.531 519.498   4
 -12  28  -1-70.1519 281.997   2
 -16 -12  -1-563.133 540.641   1
 -28  12  -1 36.4979 517.649   4
  16 -28  -1 73.7365 613.723   1
 -16 -12  -1 753.615 560.888   4
 -28  12  -1 965.578 566.763   2
 -16 -12   2 230.621 470.482   2
  16 -28   2 16.6914 616.485   1
  12  16   2 569.923 516.567   3
 -12  28   2 465.835 560.412   3
 -12  28   2 307.564 435.252   2
 -28  12   2 597.009 501.503   4
 -16 -12   2 76.4103 544.631   1
 -16 -12   2 108.903 506.766   4
  28 -16   2 330.477 604.246   1
 -28  12   2 202.143 504.364   2
  28 -16   2 679.610 530.729   3
  12  16   5 766.235 565.690   3
 -12  28   5 581.091 589.283   3
  28 -16   5-442.296 609.620   1
 -28  12   5 335.039 539.985   4
 -16 -12   5-565.554 786.370   1
 -28  12   5-603.350 545.029   2
 -16 -12   5-105.732 504.981   4
  28 -16   5 169.368 907.741   3
  16 -28   5 82.1579 718.587   1
 -16 -12   5 127.397 450.654   2
 -28  13  -5 1658.48 784.628   2
 -13  28  -5 1324.18 548.680   4
  15 -28  -5 1914.59 646.857   1
 -28  13  -5 1751.94 768.122   4
 -15 -13  -5 1071.30 468.869   1
 -15 -13  -2 723.373 536.393   2
  13  15  -2 612.843 462.812   3
 -13  28  -2 1924.33 608.586   4
 -28  13  -2 951.030 565.717   4
 -15 -13  -2 1639.99 573.973   1
 -13  28  -2 1321.27 311.011   2
 -15 -13  -2 1803.18 740.436   4
  15 -28  -2 1914.32 698.768   1
 -28  13  -2 2261.08 687.951   2
 -15 -13   1 2597.02 639.605   2
  15 -28   1 2740.69 852.924   1
  13  15   1 2915.45 696.544   3
 -13  28   1 960.015 599.064   3
 -13  28   1 677.868 517.161   4
 -13  28   1 727.486 427.698   2
 -28  13   1 2071.21 676.018   4
 -15 -13   1 2433.57 696.533   1
 -15 -13   1 1803.33 646.365   4
  28 -15   1 2301.81 409.637   3
 -28  13   1 3493.20 764.261   2
 -15 -13   4 743.641 467.594   2
  13  15   4 954.990 649.047   3
 -13  28   4 979.949 592.928   3
 -13  28   4 1389.44 584.515   2
 -28  13   4 1269.06 636.678   4
 -15 -13   4 1731.08 734.072   1
 -28  13   4 554.090 529.048   2
 -15 -13   4 271.659 478.121   4
  28 -15   4 827.061 635.232   1
  28 -15   4 1184.01 593.467   3
  15 -28   4 981.394 718.929   1
  13  15   7 1100.44 799.399   3
 -13  28   7 921.223 694.935   3
 -13  28   7 107.383 662.507   2
 -28  13   7 22.6806 554.953   4
 -28  13   7 34.3692 575.936   2
 -15 -13   7 440.811 683.940   1
  28 -15   7 612.833 725.496   1
  28 -15   7-80.2719 726.466   3
  15 -28   7 1185.36 893.448   1
 -14  28  -6 1459.54 546.818   4
  14 -28  -6 1921.58 608.706   1
 -28  14  -6 3159.05 831.927   4
 -14 -14  -3 2800.49 806.783   2
 -14  28  -3 3435.79 738.934   4
 -14 -14  -3 4728.39 761.778   1
 -28  14  -3 4734.89 880.021   4
 -28  14  -3 4298.28 881.443   2
  14 -28  -3 4700.96 910.480   1
  14  14   0 4504.06 768.126   3
 -14 -14   0 3210.66 690.529   2
  14 -28   0 4543.09 916.230   1
 -14  28   0 4218.59 841.868   3
 -14  28   0 2112.61 642.548   4
 -14  28   0 2734.51 529.616   2
 -28  14   0 3728.22 807.348   4
 -14 -14   0 4297.21 818.481   1
 -14 -14   0 3458.87 772.474   4
 -28  14   0 4121.26 788.110   2
  14  14   3 3320.92 793.873   3
 -14  28   3 3801.06 790.720   3
 -14  28   3 1988.88 749.260   4
 -14 -14   3 4577.71 960.629   1
 -14  28   3 757.264 490.349   2
 -28  14   3 4977.23 881.779   4
 -28  14   3 3510.78 769.296   2
  28 -14   3 3287.24 631.353   3
  14 -28   3 4469.49 990.325   1
 -14 -14   3 3458.42 648.127   2
 -14  28   6 1692.67 682.416   3
 -14  28   6 3615.28 971.246   4
 -14  28   6 2061.72 841.255   2
 -28  14   6 3388.26 801.395   4
 -28  14   6 2223.20 852.421   2
 -14 -14   6 2614.94 903.391   1
  28 -14   6 3081.58 864.876   1
  14 -28   6 2189.54 988.644   1
  28 -14   6 3628.09 893.310   3
 -14 -14   6 3875.19 686.012   2
  14  14   6 4371.95 1057.87   3
 -28  15  -7 383.704 624.136   2
 -28  15  -7 83.4002 571.333   4
 -15  28  -4 860.520 728.131   4
  13 -28  -4 431.447 541.462   1
 -28  15  -4 994.709 618.371   4
 -13 -15  -4 702.559 457.098   1
 -28  15  -4 929.777 671.238   2
 -13 -15  -1 1789.37 596.694   2
  15  13  -1 1453.48 535.342   3
  13 -28  -1 1429.61 616.972   1
 -15  28  -1 2073.63 611.657   4
 -28  15  -1 1060.89 608.772   4
 -15  28  -1 1489.22 413.688   2
 -13 -15  -1 2378.56 607.311   1
 -28  15  -1 2606.38 717.576   2
  15  13   2 2351.53 667.417   3
 -13 -15   2 1543.79 531.240   2
 -15  28   2 772.029 578.106   3
 -15  28   2-279.852 534.023   4
 -15  28   2 1101.01 511.491   2
 -28  15   2 1523.35 638.485   4
 -13 -15   2 1904.04 737.603   1
 -28  15   2 1021.05 541.627   2
  28 -13   2 1107.20 386.806   3
  13 -28   2-320.839 717.547   1
  15  13   5 2394.00 755.320   3
 -13 -15   5 1059.38 472.959   2
 -15  28   5 617.064 572.587   3
 -15  28   5 2968.54 869.181   4
 -15  28   5 891.995 629.737   2
 -28  15   5 1109.58 651.669   4
 -28  15   5 1899.16 718.682   2
 -13 -15   5 815.134 728.498   1
  13 -28   5 3420.35 977.102   1
  28 -13   5 2158.54 658.420   3
 -28  16  -5 286.794 496.543   2
 -16  28  -5-62.1594 406.591   4
 -28  16  -5 233.560 506.344   4
  12 -28  -5 33.7196 491.168   1
 -12 -16  -5 265.536 391.294   1
 -12 -16  -2-70.8258 481.927   2
  16  12  -2 772.903 472.929   3
 -16  28  -2 636.382 537.259   4
  12 -28  -2 584.317 572.938   1
 -28  16  -2-6.21230 506.638   4
 -16  28  -2 213.760 263.630   2
 -12 -16  -2-578.407 509.895   1
 -28  16  -2 147.814 473.023   2
  16  12   1 777.742 566.032   3
 -12 -16   1 762.235 520.617   2
 -16  28   1 150.467 457.545   3
 -16  28   1-702.365 569.028   4
 -16  28   1 304.034 413.837   2
 -28  16   1 259.221 475.995   4
 -12 -16   1 270.076 525.433   1
 -28  16   1 249.854 453.596   2
  12 -28   1 283.708 603.870   1
  28 -12   1 248.312 237.471   3
  16  12   4 2454.15 797.386   3
 -12 -16   4 1463.28 468.862   2
 -16  28   4 1270.48 577.412   3
 -16  28   4 748.830 644.815   4
 -16  28   4 619.139 575.929   2
 -28  16   4 1393.83 649.869   4
 -28  16   4 241.592 555.987   2
 -12 -16   4 831.397 622.123   1
  12 -28   4 647.888 692.867   1
  28 -12   4 1359.44 566.336   3
  16  12   7-65.0106 659.052   3
 -16  28   7-268.456 635.876   3
 -16  28   7-292.950 619.859   4
 -16  28   7 578.110 688.649   2
 -28  16   7 103.459 572.940   4
 -28  16   7 514.849 672.757   2
  12 -28   7-248.188 821.868   1
 -12 -16   7 1023.99 762.117   1
  28 -12   7 315.079 656.968   3
 -28  17  -6 1210.95 682.834   2
 -17  28  -6 869.859 523.308   4
 -28  17  -6 1173.06 696.334   4
 -17  28  -3 4077.34 776.302   4
 -28  17  -3 5747.57 939.523   4
 -11 -17  -3 5866.49 782.575   1
 -17  28  -3 4728.54 489.937   2
  11 -28  -3 4777.62 835.262   1
 -28  17  -3 7538.47 1008.49   2
 -11 -17   0 3747.93 727.068   2
  17  11   0 5104.87 779.338   3
 -17  28   0 4043.71 820.372   4
 -17  28   0 3342.52 580.494   2
 -28  17   0 3203.39 774.231   4
 -28  17   0 4254.40 807.577   2
 -11 -17   0 3738.95 772.754   1
  11 -28   0 4719.67 897.494   1
 -11 -17   3 4132.24 664.007   2
  17  11   3 3825.40 786.776   3
 -17  28   3 4614.85 827.619   3
 -17  28   3 3578.16 788.204   4
 -28  17   3 4720.82 885.732   4
 -17  28   3 3800.20 772.638   2
 -28  17   3 5137.05 911.099   2
  11 -28   3 4426.81 911.824   1
 -11 -17   3 3054.44 856.526   1
  28 -11   3 5194.76 684.157   3
  17  11   6 2637.21 880.028   3
 -17  28   6 2954.17 761.716   3
 -17  28   6 2125.58 806.698   4
 -17  28   6 1719.23 729.638   2
 -28  17   6 3853.39 790.642   4
 -28  17   6 3054.52 867.755   2
  11 -28   6 3763.84 1013.91   1
 -11 -17   6 3423.47 1025.07   1
  28 -11   6 3617.90 837.584   3
 -28  18  -7 2351.64 695.902   2
 -28  18  -7 1441.33 664.374   4
 -18  28  -4 680.594 524.278   4
 -28  18  -4 1672.63 722.330   4
  10 -28  -4 502.313 496.545   1
 -28  18  -4 294.500 561.266   2
 -10 -18  -4-322.111 437.726   1
  18  10  -1 3196.67 646.052   3
 -18  28  -1 2758.26 711.822   4
 -18  28  -1 3001.06 554.206   2
 -28  18  -1 2867.57 752.426   4
 -10 -18  -1 2827.55 698.592   1
 -28  18  -1 2963.99 748.448   2
  10 -28  -1 3528.48 835.102   1
  18  10   2 1056.51 537.426   3
 -10 -18   2 234.794 405.640   2
 -18  28   2 84.1653 450.765   3
 -18  28   2-285.554 515.224   4
 -18  28   2 422.659 517.503   2
 -28  18   2 873.426 542.329   4
 -28  18   2 334.228 542.766   2
  10 -28   2 1361.60 683.944   1
 -10 -18   2 176.701 564.182   1
  28 -10   2 430.700 343.341   3
  18  10   5 3027.74 804.200   3
 -18  28   5 2149.25 676.525   3
 -18  28   5 2077.99 807.773   4
 -18  28   5 1103.51 640.877   2
 -28  18   5 2255.36 798.377   4
  10 -28   5 3770.98 1011.28   1
 -28  18   5 3267.64 823.969   2
 -10 -18   5 1885.46 820.048   1
  28 -10   5 2389.47 744.702   3
 -28  19  -5 45.6847 583.507   2
 -19  28  -5 177.054 488.690   4
   9 -28  -5-214.009 504.633   1
 -28  19  -5 501.939 537.145   4
   9 -28  -2 1351.55 576.349   1
  19   9  -2 1396.99 481.289   3
 -19  28  -2 360.224 491.184   4
 -28  19  -2 1097.49 554.450   4
 -19  28  -2 241.685 355.656   2
 -28  19  -2 783.659 579.653   2
  -9 -19  -2 642.750 488.988   1
  28  -9   1 713.969 256.961   3
  19   9   1 1092.14 543.852   3
  -9 -19   1 895.942 483.374   2
 -19  28   1 580.367 553.414   4
 -28  19   1-222.677 518.751   4
 -19  28   1 26.6039 418.952   2
 -28  19   1 951.220 575.735   2
   9 -28   1 456.027 575.537   1
  -9 -19   1-76.4311 548.473   1
  19   9   4 514.788 549.001   3
 -19  28   4 1425.57 596.724   3
  -9 -19   4 1170.86 410.398   2
 -19  28   4 566.606 574.732   4
 -19  28   4 1197.44 618.373   2
 -28  19   4 1061.11 622.266   4
   9 -28   4 2037.90 858.316   1
 -28  19   4 711.507 646.288   2
  -9 -19   4 2664.36 851.439   1
  28  -9   4 627.614 512.544   3
  19   9   7-568.700 724.330   3
 -19  28   7 168.733 538.601   3
 -19  28   7 704.503 692.881   4
 -19  28   7 181.717 684.172   2
 -28  19   7 709.779 708.483   4
   9 -28   7 281.610 821.898   1
 -28  19   7 377.889 673.051   2
  -9 -19   7-124.559 803.180   1
  28  -9   7 478.310 674.292   3
 -28  20  -6-657.709 617.881   2
 -20  28  -6 422.560 503.726   4
 -28  20  -6 162.087 572.976   4
 -20  28  -3 5844.22 904.570   4
 -28  20  -3 5207.21 906.461   4
   8 -28  -3 4324.11 854.666   1
 -20  28  -3 4025.78 536.777   2
  -8 -20  -3 4819.05 725.186   1
 -28  20  -3 5016.54 851.374   2
  20   8   0 1197.67 488.857   3
 -20  28   0 1205.35 588.459   4
 -28  20   0 497.620 530.123   4
 -20  28   0 768.901 430.849   2
   8 -28   0 1196.02 623.534   1
 -28  20   0 1587.23 588.487   2
  -8 -20   0 1684.52 669.812   1
   8 -28   3 8163.86 1253.19   1
 -20  28   3 6430.54 876.816   3
 -20  28   3 5937.87 1004.69   4
 -20  28   3 6049.22 944.576   2
 -28  20   3 8654.12 1125.40   4
 -28  20   3 6691.71 1028.99   2
  -8 -20   3 8023.18 1176.24   1
  28  -8   3 7961.35 783.022   3
  20   8   3 7092.45 923.136   3
  20   8   6 599.943 626.559   3
 -20  28   6 333.145 520.112   3
 -20  28   6 108.420 607.230   4
 -20  28   6 1444.76 739.250   2
 -28  20   6-157.745 604.218   4
   8 -28   6 2300.81 936.369   1
 -28  20   6 497.379 709.146   2
  -8 -20   6 873.012 689.172   1
  28  -8   6-66.7479 576.998   3
 -28  21  -7 1335.92 668.761   2
 -21  28  -7 1900.55 643.491   4
 -28  21  -7 1364.28 704.193   4
  -7 -21  -4 1405.49 535.772   1
 -21  28  -4 1358.23 638.080   4
   7 -28  -4 1205.07 583.896   1
 -28  21  -4 1895.64 656.847   4
 -28  21  -4 1319.85 621.993   2
  21   7  -1 3541.19 606.150   3
   7 -28  -1 5579.11 967.150   1
 -21  28  -1 4091.88 838.033   4
 -28  21  -1 5054.61 879.373   4
 -21  28  -1 5529.06 713.153   2
 -28  21  -1 4105.05 776.076   2
  -7 -21  -1 3987.92 752.803   1
  21   7   2 13.3325 467.160   3
 -21  28   2 852.465 523.584   3
 -21  28   2 718.903 602.826   4
 -28  21   2 980.681 580.560   4
 -21  28   2-271.148 492.034   2
   7 -28   2 959.958 624.646   1
 -28  21   2 323.079 521.837   2
  -7 -21   2 995.932 664.103   1
  28  -7   2 1156.05 408.257   3
  21   7   5 2411.39 748.473   3
 -21  28   5 3260.50 728.270   3
 -21  28   5 1819.98 755.467   4
 -28  21   5 2879.07 800.789   4
   7 -28   5 2763.29 926.247   1
 -21  28   5 1748.94 791.840   2
 -28  21   5 2860.47 834.280   2
  -7 -21   5 3039.24 927.635   1
  28  -7   5 2559.56 675.221   3
 -22  28  -5 624.765 601.063   4
 -28  22  -5 479.765 583.778   4
 -28  22  -5 522.270 543.718   2
  -6 -22  -2 742.830 568.732   1
 -22  28  -2 405.000 532.846   4
 -28  22  -2 999.133 579.071   4
 -22  28  -2 428.154 397.018   2
 -28  22  -2 1216.15 573.562   2
   6 -28  -2 578.276 525.835   1
  22   6   1 2461.48 593.816   3
 -22  28   1 2269.41 758.304   4
 -28  22   1 1303.08 621.914   4
   6 -28   1 2216.51 773.554   1
 -22  28   1 1810.72 617.408   2
 -28  22   1 2115.10 678.110   2
  -6 -22   1 3451.56 845.237   1
  22   6   4 315.953 564.512   3
 -22  28   4 782.087 505.774   3
 -22  28   4 514.248 630.233   4
   6 -28   4 507.891 673.906   1
 -28  22   4 1489.66 707.973   4
 -22  28   4 122.111 510.825   2
 -28  22   4 1354.04 758.153   2
  -6 -22   4 1135.10 750.133   1
  28  -6   4 941.985 527.054   3
 -28  23  -6 1258.34 612.412   2
 -23  28  -6 291.913 528.123   4
 -28  23  -6 1223.44 646.046   4
  -5 -23  -3 2491.98 639.755   1
 -23  28  -3 3003.52 811.160   4
 -28  23  -3 1908.57 707.992   4
 -23  28  -3 3231.32 574.386   2
 -28  23  -3 4407.02 837.377   2
   5 -28  -3 3273.68 738.472   1
  -5 -23   0 779.760 589.158   1
  23   5   0 530.646 425.413   3
 -23  28   0 468.815 558.579   4
 -28  23   0-56.1297 532.897   4
   5 -28   0 207.992 589.467   1
 -23  28   0 493.649 499.285   2
 -28  23   0-173.154 532.134   2
  23   5   3 3364.50 722.755   3
 -23  28   3 4165.90 738.820   3
 -23  28   3 5372.64 1001.11   4
 -28  23   3 4379.71 939.475   4
   5 -28   3 4010.81 963.150   1
 -23  28   3 3826.55 801.776   2
 -28  23   3 3785.55 817.417   2
  28  -5   3 3648.08 648.315   3
  -5 -23   3 4267.56 966.990   1
  23   5   6 1767.29 791.731   3
 -23  28   6 388.660 486.334   3
   5 -28   6 957.396 900.092   1
 -23  28   6-385.312 650.528   4
 -28  23   6 1556.82 767.172   4
 -23  28   6 1316.09 740.604   2
 -28  23   6 1815.24 804.088   2
  28  -5   6 319.684 608.724   3
  -5 -23   6 2565.37 1004.55   1
   4 -28  -4 1210.91 588.992   1
 -24  28  -4 1422.20 646.534   4
  -4 -24  -4 430.124 493.922   1
 -28  24  -4 359.057 587.533   4
 -24  28  -4 2137.85 548.281   2
 -28  24  -4 658.414 516.325   2
   4 -28  -1 6552.15 1018.09   1
  24   4  -1 4985.73 620.224   3
 -24  28  -1 5519.04 948.800   4
 -28  24  -1 4562.34 909.911   4
 -24  28  -1 5071.74 754.085   2
 -28  24  -1 5148.57 826.465   2
  -4 -24  -1 5720.67 905.672   1
  24   4   2 4063.56 702.236   3
  -4 -24   2 1788.47 745.835   1
  28  -4   2 2455.70 511.562   3
   4 -28   2 1639.21 780.571   1
 -24  28   2 2966.96 786.129   4
 -28  24   2 1456.06 672.919   4
 -24  28   2 2978.68 746.345   2
 -28  24   2 3473.16 802.028   2
  -4 -24   5 2041.14 855.887   1
  24   4   5 4361.25 905.490   3
 -24  28   5 3983.93 744.934   3
   4 -28   5 3581.31 1085.93   1
 -24  28   5 3753.37 925.138   4
 -28  24   5 3791.78 898.514   4
 -24  28   5 2873.19 854.845   2
 -28  24   5 1514.26 841.134   2
  28  -4   5 4752.64 846.447   3
 -25  28  -5 309.993 541.558   4
 -28  25  -5 425.912 578.347   4
 -28  25  -5 1145.32 590.188   2
  -3 -25  -2 2454.58 724.986   1
 -25  28  -2 785.695 613.556   4
 -28  25  -2 1726.71 702.190   4
   3 -28  -2 1405.86 681.179   1
 -25  28  -2 1603.74 525.481   2
 -28  25  -2 1366.20 556.688   2
  -3 -25   1 1629.81 707.266   1
  25   3   1 825.325 465.254   3
   3 -28   1 79.8716 599.794   1
 -25  28   1 1747.00 724.451   4
 -28  25   1 608.468 644.551   4
 -25  28   1 851.271 505.454   2
 -28  25   1 287.697 516.303   2
  25   3   4 1513.43 655.648   3
  -3 -25   4 846.050 712.876   1
   3 -28   4 350.420 758.973   1
 -25  28   4 344.793 673.749   4
 -28  25   4 1596.18 789.939   4
 -25  28   4 1769.00 701.854   2
 -28  25   4 419.480 634.026   2
  28  -3   4 400.140 524.095   3
 -26  28  -3 2081.25 741.925   4
 -28  26  -3 1409.32 660.724   4
  -2 -26  -3 1870.53 643.005   1
   2 -28  -3 972.359 561.650   1
 -26  28  -3 1652.04 568.880   2
 -28  26  -3 2259.54 651.722   2
  -2 -26   0 1925.76 722.908   1
   2 -28   0 2360.28 878.604   1
 -26  28   0 1514.67 716.172   4
 -28  26   0 603.846 598.720   4
 -26  28   0 1692.96 577.383   2
 -28  26   0 1591.68 674.264   2
  28  -2   3 3212.90 670.329   3
  26   2   3 2329.13 650.903   3
  -2 -26   3 3567.49 1018.57   1
   2 -28   3 2821.33 940.668   1
 -26  28   3 2707.67 840.585   4
 -28  26   3 2734.14 842.753   4
 -26  28   3 1755.04 672.854   2
 -28  26   3 2973.78 881.265   2
 -27  28  -4 1888.48 732.525   4
 -28  27  -4 769.195 600.717   4
 -27  28  -4 882.608 550.000   2
 -28  27  -4 1405.18 607.517   2
  -1 -27  -1 3368.65 821.064   1
 -27  28  -1 2938.20 803.796   4
 -28  27  -1 2637.13 776.815   4
   1 -28  -1 2961.57 809.141   1
 -27  28  -1 3126.98 751.292   2
 -28  27  -1 3311.06 759.334   2
  28  -1   2 1349.03 474.318   3
  27   1   2 1382.82 540.479   3
  -1 -27   2-16.2268 779.044   1
   1 -28   2 219.215 705.440   1
 -27  28   2 1367.16 722.648   4
 -28  27   2 1235.45 754.159   4
 -27  28   2 1047.58 600.771   2
 -28  27   2 1532.42 660.311   2
  28  -1   5 3520.16 823.694   3
  27   1   5 2962.70 754.238   3
   1 -28   5 3903.18 1070.34   1
 -27  28   5 3838.67 1006.88   4
 -28  27   5 4066.37 921.170   4
 -27  28   5 4222.64 1032.40   2
 -28  27   5 3105.50 917.452   2
  -1 -27   5 6159.87 1262.42   1
 -28  28  -2 221.420 579.206   4
   0 -28  -2-566.495 581.140   1
 -28  28  -2 127.177 450.597   2
   0 -28   1 415.886 695.605   1
 -28  28   1-768.652 715.650   4
 -28  28   1 1496.56 644.924   2
  28   0   4 728.428 595.820   3
   0 -28   4 953.735 870.014   1
 -28  28   4 1613.15 739.496   4
 -29   0  -2 3694.91 994.212   2
  29 -29  -2 4677.41 1161.23   1
 -29   0  -2 2700.76 921.165   4
  29 -29   1 1222.46 839.151   1
   0  29   1 983.136 765.248   3
 -29   0   1 859.772 803.918   4
 -29   0   1-331.034 659.626   2
 -29   1  -3 1217.16 758.690   2
 -28  -1  -3 277.701 653.991   2
  28 -29  -3 449.971 737.705   1
 -29   1  -3 2292.36 847.509   4
 -28  -1  -3 1905.55 925.244   4
   1  28   0-835.947 746.168   3
  -1  29   0-44.4924 632.289   3
  28 -29   0-99.5296 742.530   1
 -29   1   0-311.523 650.060   4
  29 -28   0 169.829 690.486   1
 -28  -1   0 1198.41 778.583   4
 -29   1   0 301.770 615.096   2
 -28  -1   0 452.714 628.777   2
   1  28   3 1555.04 900.199   3
  -1  29   3 230.313 726.059   3
 -29   1   3-407.172 624.353   4
 -28  -1   3 2174.63 788.703   4
  28 -29   3-43.1840 835.345   1
 -29   1   3 978.981 649.290   2
 -28  -1   3 2024.75 775.484   2
  29 -28   3-385.398 807.022   1
 -29   2  -4 2048.84 866.831   2
 -27  -2  -4-709.825 728.923   2
 -29   2  -4-672.384 752.147   4
 -27  -2  -4 349.067 765.601   4
 -27  -2  -1 1794.81 818.029   2
   2  27  -1 1025.84 729.883   3
  -2  29  -1-445.753 628.786   3
  29 -27  -1 1731.51 876.518   1
  27 -29  -1 518.430 773.591   1
 -29   2  -1 175.570 643.672   4
 -27  -2  -1 493.844 681.215   4
 -29   2  -1 650.699 617.242   2
  29 -27   2-1151.69 933.499   1
   2  27   2-607.613 704.282   3
  -2  29   2 1210.16 826.633   3
 -29   2   2 135.883 548.156   4
 -27  -2   2 296.031 589.769   4
  27 -29   2-2152.33 1034.89   1
 -29   2   2 195.399 595.284   2
 -27  -2   2-98.3612 547.304   2
 -29   3  -5 802.146 768.517   2
 -26  -3  -5 555.903 681.686   2
  -3  29  -5 164.317 526.692   4
 -29   3  -5-344.415 723.306   4
 -26  -3  -5 1637.19 891.749   4
   3  26  -2 7464.44 1140.03   3
 -29   3  -2 6546.27 1175.96   4
 -26  -3  -2 6830.33 1202.68   4
  29 -26  -2 6998.32 1188.92   1
 -29   3  -2 7409.80 1128.48   2
 -26  -3  -2 6273.37 1092.93   2
  26 -29  -2 6488.08 1172.51   1
   3  26   1 21.0679 598.226   3
  -3  29   1-467.283 679.410   3
  29 -26   1 260.201 731.039   1
 -29   3   1-177.210 601.149   4
 -26  -3   1 563.969 698.793   4
  26 -29   1 466.365 720.342   1
 -29   3   1 486.931 561.527   2
 -26  -3   1 984.919 618.536   2
  -3  29   4 4930.85 1090.08   3
   3  26   4 4375.72 1048.27   3
  26 -29   4 3384.28 1059.36   1
 -29   3   4 3871.78 927.883   4
 -26  -3   4 3795.39 896.472   4
 -29   3   4 3617.24 840.640   2
 -26  -3   4 2548.05 808.336   2
  29 -26   4 3247.28 1038.62   1
  25 -29  -3 1152.69 828.463   1
 -29   4  -3 1724.75 787.723   2
 -25  -4  -3 3376.06 912.651   2
 -29   4  -3 1287.44 768.668   4
 -25  -4  -3 1534.57 854.463   4
 -25  -4   0 703.235 648.945   2
  29 -25   0 904.390 814.789   1
   4  25   0 494.412 572.743   3
  -4  29   0 677.492 597.801   3
 -29   4   0 1615.98 753.529   4
 -25  -4   0-790.940 658.552   4
  25 -29   0 119.975 730.787   1
 -29   4   0 727.446 601.982   2
  25 -29   3 2802.14 1051.33   1
   4  25   3 367.622 616.325   3
  29 -25   3 1383.72 851.022   1
  -4  29   3 1679.75 731.709   3
 -29   4   3 1012.54 679.662   4
 -25  -4   3 1965.52 700.295   4
 -29   4   3 207.282 566.673   2
 -25  -4   3 1999.50 744.749   2
 -29   5  -4 598.270 676.974   2
 -24  -5  -4 211.862 652.189   2
  -5  29  -4 243.599 482.647   4
 -29   5  -4 911.398 833.205   4
 -24  -5  -4 1327.89 764.455   4
  24 -29  -4 72.8378 626.754   1
 -24  -5  -1 731.412 605.967   2
   5  24  -1-628.648 686.750   3
  -5  29  -1 36.3245 572.679   3
  29 -24  -1 166.270 730.509   1
 -29   5  -1 848.122 607.875   4
 -24  -5  -1-1217.95 753.548   4
  24 -29  -1-886.023 815.716   1
 -29   5  -1 598.918 589.371   2
  24 -29   2 2140.20 922.446   1
   5  24   2 1906.32 752.302   3
  -5  29   2 1419.58 698.507   3
  29 -24   2-684.247 759.761   1
 -29   5   2 1607.51 675.825   4
 -24  -5   2-155.642 608.909   4
 -29   5   2 828.837 592.458   2
 -24  -5   2 1172.81 637.773   2
  29 -24   5 734.493 789.127   1
   5  24   5 2.33326 680.743   3
  -5  29   5-419.737 739.549   3
 -24  -5   5 930.324 843.504   1
 -29   5   5 210.162 594.466   4
 -24  -5   5 287.299 587.854   4
 -29   5   5 586.352 751.590   2
  24 -29   5-193.939 789.956   1
 -24  -5   5 227.652 548.327   2
 -29   6  -5 1490.43 792.560   2
 -23  -6  -5 654.730 664.800   2
  -6  29  -5-252.359 516.571   4
 -29   6  -5 223.511 665.616   4
 -23  -6  -5 713.827 879.169   4
   6  23  -2 5020.85 913.352   3
  23 -29  -2 7913.05 1279.14   1
 -29   6  -2 6883.01 1140.11   4
 -23  -6  -2 6347.24 1148.21   4
 -29   6  -2 5491.97 1006.75   2
 -23  -6  -2 6103.38 1018.30   2
 -23  -6   1 618.632 565.929   2
  29 -23   1 2507.44 937.609   1
  23 -29   1 918.471 789.388   1
   6  23   1 1243.99 604.230   3
  -6  29   1-163.242 562.998   3
 -29   6   1 723.621 635.851   4
 -23  -6   1 1679.32 632.520   4
 -29   6   1 817.890 633.477   2
   6  23   4 4693.66 1013.46   3
  -6  29   4 2657.92 898.339   3
  29 -23   4 2535.23 948.578   1
 -23  -6   4 6109.70 1191.81   1
 -29   6   4 4872.00 948.083   4
 -23  -6   4 4094.14 826.474   4
  23 -29   4 2283.26 1013.04   1
  29 -23   4 582.346 1709.01   3
 -29   6   4 3883.47 899.329   2
 -23  -6   4 3950.85 803.361   2
 -29   7  -6 2516.43 856.630   2
 -22  -7  -6 2022.03 861.693   2
 -29   7  -6 2369.29 909.130   4
 -22  -7  -6 3594.89 1062.81   4
 -29   7  -3 1321.45 722.971   2
 -22  -7  -3 1414.32 668.292   2
  22 -29  -3 1104.99 694.119   1
 -29   7  -3 1863.56 805.212   4
 -22  -7  -3 626.209 662.508   4
 -22  -7   0 1294.47 568.325   2
  29 -22   0 3070.10 902.550   1
   7  22   0 2910.99 776.035   3
  22 -29   0 2773.08 905.595   1
  -7  29   0 2954.23 813.718   3
 -29   7   0 2974.34 846.597   4
 -22  -7   0 1794.82 734.362   4
 -29   7   0 2441.31 766.090   2
   7  22   3 2889.93 812.301   3
  -7  29   3 1369.22 719.988   3
 -22  -7   3 3015.64 899.033   1
 -29   7   3 2955.28 757.828   4
  29 -22   3 2218.41 875.261   1
 -22  -7   3 2971.67 767.624   4
  22 -29   3 1931.00 846.304   1
 -29   7   3 2012.89 752.814   2
 -22  -7   3 1639.34 677.316   2
   7  22   6 2877.93 974.856   3
  -7  29   6 2821.60 948.775   3
  29 -22   6 2106.67 947.694   1
  22 -29   6 1231.88 913.869   1
 -22  -7   6 4060.03 1081.24   1
 -29   7   6 2784.66 862.754   4
 -22  -7   6 2870.49 765.629   4
 -29   7   6 4677.63 1006.88   2
  29 -22   6 905.998 2306.26   3
 -22  -7   6 4264.58 824.042   2
 -29   8  -4 740.960 666.054   2
 -21  -8  -4 302.567 569.268   2
  -8  29  -4 904.838 517.173   4
 -29   8  -4 253.077 581.658   4
 -21  -8  -4 713.404 717.837   4
  21 -29  -4-6.83724 630.944   1
 -21  -8  -1 1055.72 590.451   2
   8  21  -1 1453.48 642.578   3
  -8  29  -1 375.464 691.742   3
  21 -29  -1 2792.74 921.994   1
  -8  29  -1-192.540 314.441   2
 -29   8  -1 200.869 553.415   4
 -21  -8  -1 699.154 659.459   4
 -29   8  -1 579.035 665.737   2
 -21  -8   2 1553.50 640.633   2
   8  21   2 805.569 600.795   3
  29 -21   2 638.635 742.280   1
  -8  29   2 693.866 590.054   3
 -21  -8   2 1004.00 756.582   1
 -29   8   2 849.358 680.491   4
  21 -29   2-40.0265 688.241   1
 -21  -8   2 0.93976 581.982   4
  29 -21   2-741.951 1350.14   3
 -29   8   2 679.410 647.263   2
   8  21   5-482.199 694.200   3
  -8  29   5 16.1493 633.948   3
  21 -29   5-428.377 834.697   1
 -21  -8   5-639.874 779.652   1
  29 -21   5-420.440 755.803   1
 -29   8   5-240.315 603.410   4
 -21  -8   5 714.089 591.464   4
 -29   8   5 852.568 660.333   2
  29 -21   5 2035.50 2322.21   3
 -21  -8   5 1273.94 561.070   2
 -29   9  -5 2007.84 767.527   2
 -20  -9  -5 1430.54 711.707   2
  -9  29  -5 1043.27 536.022   4
 -20  -9  -5 1271.46 547.907   1
  20 -29  -5 1206.70 625.747   1
 -29   9  -5 1022.05 712.472   4
 -20  -9  -5 3646.54 1050.57   4
 -20  -9  -2 2242.78 725.264   2
   9  20  -2 3103.23 771.975   3
  -9  29  -2 2283.67 672.021   4
 -20  -9  -2 2861.36 714.042   1
 -29   9  -2 4057.03 867.213   4
  20 -29  -2 3459.19 894.622   1
 -20  -9  -2 4946.56 1005.99   4
 -29   9  -2 3482.54 811.426   2
 -20  -9   1 2270.13 662.308   2
   9  20   1 1055.93 667.290   3
  -9  29   1 1444.36 727.201   3
  29 -20   1 2150.06 890.498   1
  -9  29   1 1014.56 469.166   2
 -20  -9   1 3330.31 758.348   1
 -29   9   1 1654.07 677.892   4
 -20  -9   1 2071.04 705.482   4
  20 -29   1-225.098 704.787   1
  29 -20   1-32.8334 1197.83   3
 -29   9   1 1287.38 592.600   2
  29 -20   4 4634.70 1112.66   1
  -9  29   4 5046.06 1004.95   3
   9  20   4 4083.87 941.340   3
  20 -29   4 3863.44 1069.67   1
 -20  -9   4 5260.51 1021.43   1
 -29   9   4 2863.08 782.597   4
 -29   9   4 6327.82 1057.18   2
 -20  -9   4 3725.68 817.836   4
 -20  -9   4 4093.72 776.546   2
 -29  10  -6 2523.35 878.783   2
 -19 -10  -6 6160.36 1235.97   2
 -29  10  -6 3831.59 967.377   4
 -19 -10  -6 3525.75 991.847   4
 -19 -10  -3 869.949 640.282   2
 -10  29  -3 810.483 543.905   4
 -19 -10  -3 995.196 572.945   1
 -29  10  -3 1595.02 753.650   4
 -19 -10  -3 174.891 704.372   4
  19 -29  -3 2568.92 760.490   1
 -29  10  -3 759.762 654.519   2
  10  19   0 10779.1 1204.54   3
 -10  29   0 8102.10 1105.22   3
 -19 -10   0 9458.05 1159.84   1
 -10  29   0 6549.44 723.739   2
 -29  10   0 9956.21 1188.55   4
 -19 -10   0 8807.41 1202.18   4
 -29  10   0 10024.3 1223.96   2
  19 -29   0 9502.01 1281.70   1
 -19 -10   0 9652.56 1114.08   2
 -19 -10   3 1407.54 650.980   2
  10  19   3 3514.50 826.424   3
 -10  29   3 2807.90 801.765   3
  19 -29   3 845.889 793.633   1
  29 -19   3 1241.41 726.308   1
 -19 -10   3 2594.85 798.893   1
 -29  10   3 2972.03 803.195   4
 -19 -10   3 2964.29 774.606   4
 -29  10   3 1536.07 706.085   2
  29 -19   3-486.742 1584.26   3
 -10  29   6 6032.22 1112.70   3
  10  19   6 4728.24 1043.91   3
  19 -29   6 4763.30 1217.69   1
 -29  10   6 5846.58 987.826   4
 -29  10   6 5411.57 1040.81   2
 -19 -10   6 3568.86 1000.97   1
 -19 -10   6 3487.19 722.028   4
  29 -19   6 4184.52 1033.28   1
 -19 -10   6 5830.21 886.531   2
 -29  11  -7-170.223 685.107   4
 -29  11  -4-30.0886 602.760   2
  18 -29  -4 905.900 631.096   1
 -18 -11  -4 895.788 586.248   2
 -11  29  -4-339.690 515.654   4
 -18 -11  -4 467.242 467.704   1
 -29  11  -4 1958.19 745.700   4
 -18 -11  -4 219.138 631.482   4
 -18 -11  -1 1125.74 613.701   2
  11  18  -1 821.444 564.023   3
 -11  29  -1 598.257 581.892   4
 -11  29  -1 1046.56 366.644   2
 -18 -11  -1 1348.65 631.716   1
 -29  11  -1 1893.72 716.367   4
 -18 -11  -1 1293.12 750.908   4
  18 -29  -1 2942.65 837.026   1
 -29  11  -1 691.314 547.152   2
 -18 -11   2 632.647 527.070   2
  11  18   2-259.330 559.136   3
 -11  29   2 719.330 597.218   3
  18 -29   2 475.534 721.299   1
 -11  29   2 852.279 555.120   2
 -18 -11   2 92.5915 602.447   1
 -29  11   2 511.341 631.620   4
 -18 -11   2 445.574 537.789   4
 -29  11   2-24.2819 553.000   2
  29 -18   2 201.583 1114.52   3
  29 -18   2 968.391 721.428   1
  11  18   5 1282.80 722.595   3
  18 -29   5 914.643 761.446   1
 -11  29   5 17.1032 559.752   3
  29 -18   5 384.065 720.179   1
 -29  11   5 279.155 560.093   4
 -18 -11   5-462.771 775.226   1
 -18 -11   5 123.788 490.396   4
 -29  11   5 233.664 613.882   2
  29 -18   5 207.420 1295.11   3
 -18 -11   5 406.868 552.222   2
 -29  12  -5 1247.39 682.691   2
 -17 -12  -5 1090.43 799.392   2
 -12  29  -5 373.673 448.868   4
 -29  12  -5 633.221 638.347   4
 -17 -12  -5 346.954 467.078   1
  17 -29  -5 1074.44 653.470   1
  17 -29  -2 2256.71 739.703   1
 -17 -12  -2-14.5627 501.769   2
  12  17  -2 676.603 523.278   3
 -12  29  -2 350.120 545.466   4
 -17 -12  -2 928.372 522.139   1
 -29  12  -2 487.008 585.309   4
 -12  29  -2 285.486 224.501   2
 -17 -12  -2 1643.14 717.340   4
 -29  12  -2 1485.34 675.479   2
 -17 -12   1 389.748 479.743   2
  12  17   1 1492.18 685.979   3
 -12  29   1 372.348 616.341   3
  17 -29   1 20.9101 646.633   1
 -12  29   1 263.969 422.624   2
 -17 -12   1 859.300 679.755   1
 -29  12   1 1327.98 629.894   4
 -17 -12   1 923.339 572.065   4
 -29  12   1 148.217 526.327   2
  29 -17   1 1023.92 357.607   3
 -17 -12   4 93.3846 441.080   2
  29 -17   4 887.632 683.782   1
  17 -29   4 2366.58 964.316   1
  12  17   4 550.383 635.187   3
 -12  29   4 1461.83 700.912   3
 -12  29   4 1167.88 677.043   2
 -29  12   4 431.444 567.142   4
 -17 -12   4 1998.24 835.633   1
 -17 -12   4 465.150 504.528   4
 -29  12   4 1018.10 608.977   2
  29 -17   4 1510.76 993.710   3
  12  17   7 873.068 863.806   3
 -12  29   7 2618.24 856.092   3
  29 -17   7 1122.96 741.739   1
 -29  12   7-173.069 612.274   4
 -17 -12   7 62.5762 758.596   1
 -29  12   7 1784.17 780.741   2
  29 -17   7 775.885 1005.79   3
  17 -29   7 1051.10 911.221   1
 -13  29  -6 5297.94 782.235   4
 -29  13  -6 7813.44 1205.26   4
  16 -29  -6 7224.35 988.660   1
 -29  13  -6 8103.46 1196.11   2
 -16 -13  -3 775.897 625.611   2
  16 -29  -3 453.521 515.403   1
 -13  29  -3-141.650 468.088   4
 -29  13  -3 529.851 632.657   4
 -16 -13  -3 340.203 502.935   1
 -16 -13  -3 1418.35 729.633   4
 -29  13  -3 653.270 601.459   2
  13  16   0 9344.94 1067.34   3
 -13  29   0 6553.25 976.589   3
 -13  29   0 7309.60 1054.52   4
 -13  29   0 5646.89 675.334   2
 -16 -13   0 9488.20 1135.18   1
 -29  13   0 7281.13 1048.32   4
  16 -29   0 7302.88 1156.75   1
 -16 -13   0 8854.11 1155.68   4
 -29  13   0 8057.37 1039.40   2
 -16 -13   0 7281.90 968.350   2
  16 -29   3 232.252 707.849   1
 -16 -13   3 92.6609 428.090   2
  13  16   3-68.9983 528.995   3
 -13  29   3 457.484 591.260   3
 -13  29   3 417.870 515.499   2
 -29  13   3 123.923 527.574   4
 -16 -13   3 273.085 665.699   1
 -16 -13   3-158.120 458.505   4
 -29  13   3 841.200 623.672   2
  29 -16   3 403.933 472.451   3
 -13  29   6 7061.97 1111.60   3
 -13  29   6 6055.06 1131.56   2
  16 -29   6 6772.74 1266.04   1
 -16 -13   6 8205.39 1326.87   1
 -29  13   6 7225.93 1062.95   4
  29 -16   6 7131.36 1156.08   1
 -29  13   6 6099.42 1070.66   2
  29 -16   6 5821.49 1097.19   3
 -16 -13   6 7272.24 893.059   2
  13  16   6 6480.77 1160.81   3
 -29  14  -7 277.411 635.828   2
 -29  14  -7 985.356 774.558   4
 -15 -14  -4 432.209 612.360   2
 -14  29  -4-640.133 531.177   4
 -29  14  -4 778.984 661.507   4
 -15 -14  -4 937.899 523.614   1
  15 -29  -4 98.6050 554.399   1
 -29  14  -4 156.452 522.262   2
 -15 -14  -1 617.958 506.971   2
  14  15  -1-102.833 482.834   3
 -14  29  -1 444.387 531.489   4
  15 -29  -1 2037.50 707.393   1
 -14  29  -1 120.013 334.538   2
 -29  14  -1-365.280 554.216   4
 -15 -14  -1 318.912 576.255   1
 -15 -14  -1 912.051 628.047   4
 -29  14  -1 438.848 506.262   2
  15 -29   2 470.584 744.995   1
 -15 -14   2 56.2340 407.695   2
  14  15   2 789.640 568.907   3
 -14  29   2 1096.72 555.405   3
 -14  29   2-326.296 636.720   4
 -14  29   2-529.248 505.070   2
 -29  14   2 286.341 552.075   4
 -15 -14   2 847.544 678.184   1
 -15 -14   2 66.6025 500.539   4
 -29  14   2 318.550 521.876   2
  29 -15   2 45.9253 341.635   3
 -15 -14   5 87.6690 425.333   2
  14  15   5-284.431 623.075   3
 -14  29   5 708.393 561.504   3
 -14  29   5-110.196 605.502   4
 -14  29   5 107.239 593.300   2
 -29  14   5 23.2823 523.214   4
 -15 -14   5 486.262 749.902   1
 -29  14   5 509.242 623.541   2
  29 -15   5 403.876 568.147   3
  29 -15   5-218.059 636.676   1
  15 -29   5 1680.88 898.144   1
 -29  15  -5-139.319 601.683   2
  14 -29  -5 988.965 618.168   1
 -15  29  -5 671.666 504.019   4
 -29  15  -5 1329.48 758.629   4
 -14 -15  -2-397.841 603.852   2
  15  14  -2-298.667 498.965   3
 -15  29  -2 550.664 497.658   4
 -29  15  -2 250.673 624.217   4
  14 -29  -2-14.4094 602.913   1
 -15  29  -2 98.3362 265.701   2
 -14 -15  -2 600.551 518.821   1
 -29  15  -2 158.302 529.288   2
  14 -29   1 783.555 701.223   1
 -14 -15   1 259.973 411.072   2
  15  14   1-67.1099 479.852   3
 -15  29   1 1053.70 611.702   3
 -15  29   1 876.519 587.171   4
 -15  29   1 665.502 506.151   2
 -29  15   1 758.632 532.268   4
 -14 -15   1 493.473 622.654   1
 -29  15   1 1333.09 670.102   2
  29 -14   1 410.177 263.930   3
  15  14   4 1565.92 690.742   3
 -14 -15   4-170.325 405.703   2
 -15  29   4 24.7481 511.901   3
 -15  29   4-497.431 589.436   4
 -15  29   4-399.961 503.417   2
 -29  15   4-480.241 592.896   4
 -14 -15   4-1042.03 739.499   1
 -29  15   4-461.411 649.985   2
  29 -14   4-121.204 483.125   3
  14 -29   4 956.314 734.426   1
  15  14   7 1422.34 813.766   3
 -15  29   7 1840.74 720.468   3
 -15  29   7-738.618 809.376   4
 -15  29   7 766.986 694.975   2
 -29  15   7 883.638 613.565   4
 -29  15   7 228.580 685.003   2
 -14 -15   7 801.951 861.019   1
  14 -29   7 2406.35 990.228   1
  29 -14   7 540.669 705.282   3
 -29  16  -6 6913.00 1122.99   4
 -29  16  -6 7879.02 1117.52   2
 -13 -16  -3-834.520 625.380   2
 -16  29  -3-161.184 499.105   4
 -29  16  -3 694.352 673.024   4
 -13 -16  -3 554.579 495.631   1
  13 -29  -3-36.7330 515.279   1
 -29  16  -3 75.3236 536.562   2
 -13 -16   0 6032.50 847.995   2
  16  13   0 6492.60 869.305   3
 -16  29   0 4917.34 888.567   4
 -16  29   0 4498.43 656.463   2
 -13 -16   0 7837.52 1074.39   1
 -29  16   0 8461.68 1120.01   4
  13 -29   0 7109.39 1082.19   1
 -29  16   0 6972.49 990.885   2
  16  13   3 1054.66 578.393   3
 -13 -16   3 475.123 445.043   2
 -16  29   3 1287.26 635.552   3
 -16  29   3 1060.49 657.027   4
 -16  29   3 298.148 496.064   2
 -29  16   3 1454.03 587.495   4
 -13 -16   3-240.469 615.366   1
 -29  16   3 1121.91 625.203   2
  13 -29   3 1089.63 738.245   1
  29 -13   3 432.014 443.916   3
 -16  29   6 9603.93 1192.44   3
  13 -29   6 8347.99 1409.53   1
 -16  29   6 8998.57 1311.96   4
 -16  29   6 7941.36 1259.29   2
 -29  16   6 7475.57 1110.93   4
 -13 -16   6 9685.23 1397.83   1
 -29  16   6 9757.86 1290.45   2
  29 -13   6 8787.62 1162.50   3
  16  13   6 10089.1 1334.46   3
 -29  17  -7 1048.50 756.983   2
 -29  17  -7 850.404 716.288   4
  12 -29  -4 217.625 521.516   1
 -17  29  -4 264.529 521.742   4
 -29  17  -4 1553.86 680.016   4
 -12 -17  -4 1563.39 532.043   1
 -29  17  -4 47.5727 618.434   2
  12 -29  -1 506.505 643.799   1
  17  12  -1 238.153 469.290   3
 -12 -17  -1 258.747 484.882   2
 -17  29  -1 531.473 527.565   4
 -29  17  -1 1641.19 697.278   4
 -17  29  -1 826.515 381.325   2
 -12 -17  -1 30.8830 533.464   1
 -29  17  -1 589.259 572.454   2
  17  12   2 391.264 508.803   3
 -12 -17   2 750.632 493.165   2
 -17  29   2 893.486 574.801   3
 -17  29   2 908.071 629.133   4
 -17  29   2 27.9647 429.805   2
 -29  17   2 97.6461 558.090   4
 -12 -17   2 1006.38 632.531   1
 -29  17   2 171.735 532.827   2
  12 -29   2 2125.60 844.423   1
  29 -12   2 723.217 351.184   3
  17  12   5 245.751 656.937   3
 -17  29   5 1073.85 580.341   3
 -17  29   5-373.261 618.649   4
 -17  29   5 133.596 580.420   2
 -29  17   5 743.790 633.703   4
 -29  17   5 1689.88 746.380   2
  12 -29   5 2410.18 932.960   1
 -12 -17   5 1236.07 830.645   1
  29 -12   5 237.862 537.380   3
 -29  18  -5 9.15947 568.989   2
 -18  29  -5 292.997 474.842   4
 -29  18  -5-39.6784 554.988   4
  11 -29  -5 100.534 481.122   1
  18  11  -2 124.799 416.099   3
  11 -29  -2 106.225 531.605   1
 -18  29  -2 240.898 469.797   4
 -29  18  -2 732.262 586.160   4
 -18  29  -2 749.394 345.896   2
 -11 -18  -2 692.265 539.372   1
 -29  18  -2 145.860 497.636   2
  18  11   1 1164.41 585.035   3
 -11 -18   1 1001.00 501.048   2
 -18  29   1 1121.05 595.034   3
 -18  29   1 1756.39 651.164   4
 -29  18   1 1688.08 644.665   4
 -18  29   1 999.015 472.256   2
 -29  18   1 1466.20 683.422   2
 -11 -18   1 551.626 567.285   1
  11 -29   1 990.267 697.578   1
  18  11   4-470.830 579.509   3
 -11 -18   4 391.040 390.906   2
 -18  29   4 1030.06 548.225   3
 -18  29   4 161.484 583.355   4
 -18  29   4 407.680 576.087   2
 -29  18   4 187.844 527.058   4
 -29  18   4 790.832 605.555   2
  11 -29   4 763.721 773.232   1
 -11 -18   4 1064.47 771.888   1
  29 -11   4 670.724 488.673   3
 -18  29   7 1302.53 837.030   4
 -29  18   7 1132.69 721.721   4
 -29  18   7 695.770 732.810   2
  11 -29   7 619.249 861.872   1
 -11 -18   7 227.352 782.856   1
 -29  19  -6 3913.50 883.548   2
 -19  29  -6 2518.07 662.254   4
 -29  19  -6 2978.55 893.783   4
 -19  29  -3 1704.43 641.315   4
  10 -29  -3 2069.30 682.889   1
 -29  19  -3 1948.72 691.076   4
 -19  29  -3 1804.49 415.030   2
 -29  19  -3 1500.21 623.576   2
 -10 -19  -3 1798.61 603.243   1
  19  10   0 9182.85 945.341   3
  10 -29   0 10159.9 1250.34   1
 -19  29   0 8108.13 1096.79   4
 -29  19   0 9990.16 1224.42   4
 -19  29   0 7107.90 833.395   2
 -10 -19   0 10508.5 1167.55   1
 -29  19   0 8644.89 1095.02   2
  19  10   3 621.568 521.297   3
 -10 -19   3 306.743 402.472   2
 -19  29   3 670.931 570.623   3
 -19  29   3 501.649 645.845   4
 -19  29   3 348.599 478.428   2
 -29  19   3 533.773 566.090   4
  10 -29   3 1064.50 741.174   1
 -29  19   3 1443.10 749.744   2
 -10 -19   3 197.034 662.642   1
  29 -10   3 462.791 413.529   3
  19  10   6 4783.26 974.206   3
 -19  29   6 3065.83 805.360   3
 -19  29   6 4107.40 986.900   4
 -19  29   6 2735.65 926.003   2
 -29  19   6 1827.36 732.698   4
  10 -29   6 4047.57 1059.94   1
 -29  19   6 4331.94 980.375   2
 -10 -19   6 4339.86 1113.30   1
  29 -10   6 3814.90 855.378   3
  -9 -20  -4 3040.29 633.108   1
 -20  29  -4 3359.58 757.917   4
 -29  20  -4 2107.18 743.903   4
   9 -29  -4 2486.10 694.929   1
 -29  20  -4 3100.46 773.166   2
  20   9  -1 1695.03 560.145   3
 -20  29  -1 1502.80 625.655   4
 -29  20  -1 2394.36 744.773   4
 -20  29  -1 985.326 430.037   2
 -29  20  -1 3080.42 745.950   2
  -9 -20  -1 1906.90 691.220   1
   9 -29  -1 2313.76 785.565   1
  20   9   2 3661.74 741.202   3
 -20  29   2 2488.02 651.687   3
 -20  29   2 2536.96 797.334   4
 -20  29   2 3716.21 723.402   2
 -29  20   2 681.443 631.947   4
   9 -29   2 1889.99 855.662   1
 -29  20   2 2280.08 745.863   2
  -9 -20   2 3438.21 852.390   1
  29  -9   2 3113.14 495.927   3
  20   9   5 2280.24 737.738   3
 -20  29   5 1348.04 608.352   3
 -20  29   5 1820.59 733.786   4
 -20  29   5 1476.96 698.081   2
 -29  20   5 1742.25 688.264   4
   9 -29   5 1646.69 890.930   1
 -29  20   5 1959.97 810.419   2
  -9 -20   5 2549.29 913.454   1
  29  -9   5 1335.78 633.868   3
 -29  21  -5-889.952 610.060   2
   8 -29  -5 354.034 497.078   1
 -21  29  -5 400.334 547.649   4
 -29  21  -5 817.301 681.722   4
   8 -29  -2 1083.21 599.306   1
 -21  29  -2 122.677 566.349   4
 -29  21  -2 141.018 543.878   4
 -21  29  -2 224.717 395.630   2
 -29  21  -2 318.767 518.176   2
  -8 -21  -2 588.102 519.805   1
  21   8   1 659.890 528.468   3
 -21  29   1 626.019 568.199   4
 -29  21   1-254.126 560.647   4
 -21  29   1 384.974 414.408   2
   8 -29   1 205.727 606.813   1
 -29  21   1-222.714 557.844   2
  -8 -21   1 1155.51 690.732   1
  21   8   4 475.153 581.753   3
 -21  29   4 1101.81 580.609   3
 -21  29   4 300.801 626.857   4
 -29  21   4 1984.21 794.953   4
 -21  29   4 717.199 647.506   2
   8 -29   4 1361.49 789.757   1
 -29  21   4 1288.90 735.649   2
  -8 -21   4 1657.81 769.390   1
  29  -8   4 649.771 504.667   3
 -29  22  -6 1071.84 577.409   2
 -22  29  -6 2105.58 691.204   4
 -29  22  -6 2686.27 833.942   4
  -7 -22  -3 1644.73 595.529   1
   7 -29  -3 1207.47 625.234   1
 -22  29  -3 1857.23 686.484   4
 -29  22  -3 1967.21 713.308   4
 -22  29  -3 1352.23 454.624   2
 -29  22  -3 1513.17 612.635   2
  22   7   0 1911.37 568.802   3
 -22  29   0 2723.55 783.086   4
 -29  22   0 2566.31 762.084   4
 -22  29   0 2503.78 606.838   2
   7 -29   0 1544.52 743.606   1
 -29  22   0 1937.98 643.249   2
  -7 -22   0 1916.93 697.091   1
  22   7   3 946.341 587.736   3
 -22  29   3 1045.53 523.203   3
 -22  29   3 575.924 695.527   4
 -29  22   3 184.204 564.305   4
 -22  29   3 1064.67 661.760   2
   7 -29   3 2014.39 828.587   1
 -29  22   3 1175.45 694.403   2
  -7 -22   3 2115.77 773.345   1
  29  -7   3 620.168 457.592   3
  22   7   6 2693.78 841.913   3
 -22  29   6 3344.58 787.763   3
 -22  29   6 1655.67 891.977   4
 -29  22   6 2588.93 814.979   4
 -22  29   6 1109.69 748.546   2
   7 -29   6 2075.09 984.083   1
 -29  22   6 2070.60 858.183   2
  29  -7   6 3705.52 880.168   3
  -7 -22   6 3115.89 1051.23   1
  -6 -23  -4 2884.40 653.958   1
   6 -29  -4 1758.81 619.145   1
 -23  29  -4 3138.05 768.599   4
 -29  23  -4 4036.92 837.066   4
 -29  23  -4 4909.50 867.233   2
  -6 -23  -1 584.687 531.171   1
  23   6  -1 454.555 410.564   3
 -23  29  -1 179.437 547.817   4
 -29  23  -1 1161.94 667.561   4
 -23  29  -1 1303.28 477.611   2
   6 -29  -1 1012.59 684.847   1
 -29  23  -1 1304.28 597.960   2
   6 -29   2 4992.81 1087.89   1
  23   6   2 6628.45 859.904   3
 -23  29   2 6330.76 1046.05   4
 -29  23   2 5615.31 1006.35   4
 -23  29   2 5409.55 943.751   2
 -29  23   2 6283.07 991.183   2
  -6 -23   2 5509.54 1041.82   1
  23   6   5 1675.51 738.995   3
 -23  29   5 1243.76 604.412   3
 -23  29   5-975.123 792.069   4
   6 -29   5 132.953 745.958   1
 -29  23   5 976.080 731.215   4
 -23  29   5 446.873 647.688   2
 -29  23   5 75.5045 608.006   2
  29  -6   5 764.215 631.734   3
  -6 -23   5 1120.90 804.706   1
 -24  29  -5-182.979 518.773   4
 -29  24  -5-486.154 604.282   4
 -29  24  -5 438.436 560.135   2
  -5 -24  -2 2166.17 661.394   1
 -24  29  -2 1475.03 650.756   4
 -29  24  -2 768.643 639.622   4
 -24  29  -2 1024.98 473.450   2
   5 -29  -2 469.724 578.786   1
 -29  24  -2 59.7783 454.749   2
  -5 -24   1 1449.87 681.668   1
  24   5   1 627.004 490.443   3
 -24  29   1 780.439 602.551   4
 -29  24   1 667.066 601.830   4
   5 -29   1-146.668 607.551   1
 -24  29   1 556.419 495.949   2
 -29  24   1 846.395 615.642   2
  24   5   4-185.444 564.290   3
 -24  29   4 802.620 538.421   3
 -24  29   4 362.589 712.142   4
   5 -29   4 598.892 774.312   1
 -29  24   4-114.251 664.877   4
 -24  29   4 500.253 611.418   2
 -29  24   4-168.412 575.429   2
  29  -5   4 63.9201 498.126   3
  -5 -24   4 1346.28 873.669   1
  -4 -25  -3 701.417 561.338   1
 -25  29  -3 726.570 632.636   4
 -29  25  -3 1538.19 728.558   4
 -25  29  -3 592.944 446.793   2
 -29  25  -3 793.558 569.211   2
   4 -29  -3 259.591 591.238   1
  -4 -25   0 573.883 563.344   1
  25   4   0 343.623 403.213   3
 -25  29   0-26.9485 609.278   4
 -29  25   0 1298.67 630.689   4
   4 -29   0 389.319 693.010   1
 -25  29   0 363.720 477.252   2
 -29  25   0 1194.08 635.783   2
  29  -4   3 1410.60 552.690   3
  -4 -25   3 2031.88 807.187   1
  25   4   3 2311.63 670.985   3
   4 -29   3 777.938 784.683   1
 -25  29   3 2054.95 777.850   4
 -29  25   3 1355.70 653.059   4
 -25  29   3 1339.84 616.902   2
 -29  25   3 2674.59 785.625   2
   3 -29  -4 2515.84 674.969   1
 -29  26  -4 4913.68 966.508   4
 -26  29  -4 2283.73 757.249   4
 -29  26  -4 2790.15 730.655   2
  -3 -26  -1-398.717 623.103   1
 -26  29  -1 601.464 611.938   4
 -29  26  -1 990.057 665.081   4
   3 -29  -1 349.706 592.696   1
 -26  29  -1 72.2543 462.383   2
 -29  26  -1 212.598 513.550   2
  26   3   2 6062.02 830.862   3
 -26  29   2 7411.71 1145.85   4
   3 -29   2 4460.93 1031.19   1
 -29  26   2 5452.06 1102.26   4
 -26  29   2 5245.67 966.234   2
 -29  26   2 4641.39 947.658   2
  -3 -26   2 5077.45 1037.51   1
  26   3   5 234.804 618.680   3
  -3 -26   5 102.841 759.054   1
   3 -29   5 510.639 815.587   1
 -26  29   5-198.277 692.274   4
 -29  26   5-144.294 688.295   4
 -26  29   5 723.617 697.341   2
 -29  26   5 146.838 662.355   2
  29  -3   5 670.637 600.231   3
  -2 -27  -2 193.242 574.428   1
 -27  29  -2-276.188 554.479   4
 -29  27  -2-715.796 671.277   4
   2 -29  -2 653.831 626.920   1
 -27  29  -2 430.721 454.266   2
 -29  27  -2 16.5776 521.990   2
  -2 -27   1 391.591 678.419   1
   2 -29   1 381.919 664.438   1
 -27  29   1 323.553 617.130   4
 -29  27   1 946.334 689.378   4
 -27  29   1 8.43241 453.275   2
 -29  27   1 132.725 571.063   2
  29  -2   4 128.082 533.625   3
  27   2   4 818.318 612.510   3
  -2 -27   4 1185.72 836.893   1
   2 -29   4 364.575 854.125   1
 -27  29   4-477.172 634.345   4
 -29  27   4-169.419 696.370   4
 -27  29   4 932.592 610.259   2
 -29  27   4-481.684 595.979   2
 -28  29  -3 1849.06 813.032   4
 -29  28  -3 1204.49 708.849   4
  -1 -28  -3 1768.98 707.719   1
   1 -29  -3 1707.45 713.792   1
 -28  29  -3 628.174 506.771   2
 -29  28  -3 872.864 571.698   2
  -1 -28   0 288.895 651.310   1
   1 -29   0-563.187 650.312   1
 -28  29   0 644.578 687.722   4
 -29  28   0 2012.51 745.187   4
 -28  29   0-207.443 501.600   2
 -29  28   0 677.157 605.436   2
  28   1   3 1380.37 619.200   3
  -1 -28   3 1780.20 898.747   1
   1 -29   3 1449.73 812.219   1
 -28  29   3-872.067 706.589   4
 -29  28   3 1177.67 722.735   4
 -28  29   3 56.6295 590.370   2
 -29  28   3 1066.87 689.308   2
   0 -29  -1 644.702 663.123   1
 -29  29  -1-557.931 739.079   4
 -29  29  -1-296.620 527.567   2
   0 -29   2 2041.88 841.146   1
 -29  29   2 2845.81 927.877   4
 -29  29   2 1881.91 678.105   2
   0  30   0-417.603 771.212   3
  30 -30   0 1417.16 966.729   1
 -30   0   0 1565.12 926.337   4
 -30   0   0 660.337 694.288   2
 -30   1  -1 1692.84 828.590   2
 -29  -1  -1 898.139 717.654   2
  30 -29  -1-93.1392 859.363   1
   1  29  -1 191.556 662.269   3
  -1  30  -1 396.986 678.782   3
 -30   1  -1 521.864 715.379   4
 -29  -1  -1 1375.25 850.304   4
  29 -30  -1 106.664 780.700   1
  30 -29   2 174.276 775.666   1
   1  29   2 280.558 686.425   3
  -1  30   2-74.0988 732.498   3
 -30   1   2-689.465 634.014   4
 -29  -1   2 339.544 725.555   4
 -30   1   2-6.76763 655.911   2
  29 -30   2 768.567 876.351   1
 -29  -1   2-326.770 643.474   2
 -30   2  -2 1270.78 770.221   2
  28 -30  -2 432.482 794.697   1
 -28  -2  -2 1532.00 823.719   2
 -30   2  -2 781.220 787.366   4
 -28  -2  -2 1610.23 833.465   4
  30 -28  -2 662.799 715.881   1
   2  28   1 1250.93 721.871   3
  -2  30   1 1238.37 720.333   3
  30 -28   1 2077.12 982.086   1
 -30   2   1 1408.11 728.896   4
 -28  -2   1 1361.80 790.510   4
 -30   2   1 2475.15 828.799   2
  28 -30   1 934.731 855.323   1
 -28  -2   1 1381.14 698.047   2
 -30   3  -3 1834.09 845.237   2
 -27  -3  -3-140.003 710.862   2
  27 -30  -3 318.589 792.750   1
 -30   3  -3 1992.60 933.909   4
 -27  -3  -3 1294.83 879.013   4
 -27  -3   0 1035.41 748.328   2
  27 -30   0 1827.38 886.511   1
  30 -27   0 704.372 792.854   1
   3  27   0 323.760 638.609   3
  -3  30   0 1033.69 850.179   3
 -30   3   0 468.869 630.333   4
 -27  -3   0 1835.21 829.498   4
 -30   3   0 906.956 729.912   2
  30 -27   3 1321.55 918.312   1
   3  27   3 343.735 750.032   3
  -3  30   3 139.081 656.889   3
  27 -30   3-109.051 778.249   1
 -30   3   3 902.760 756.776   4
 -27  -3   3-59.2384 602.981   4
 -30   3   3-363.622 617.826   2
 -27  -3   3-61.0826 563.395   2
 -30   4  -4-157.910 703.993   2
 -26  -4  -4 1062.05 853.362   2
 -30   4  -4-170.059 702.218   4
  26 -30  -4 530.859 754.092   1
 -26  -4  -4-54.9388 720.760   4
 -26  -4  -1 242.879 591.652   2
  30 -26  -1 734.956 875.836   1
  26 -30  -1 1044.60 908.379   1
   4  26  -1-427.718 655.618   3
  -4  30  -1 398.650 671.693   3
 -30   4  -1 753.419 700.106   4
 -26  -4  -1 797.548 750.249   4
 -30   4  -1 1439.58 894.372   2
   4  26   2 467.065 652.231   3
  -4  30   2 294.045 675.058   3
  26 -30   2 673.771 737.027   1
  30 -26   2-52.8594 701.413   1
 -30   4   2 12.8788 674.951   4
 -26  -4   2-273.048 617.652   4
 -30   4   2 224.373 649.372   2
 -26  -4   2 183.520 561.907   2
 -30   5  -5 3969.07 1041.62   2
 -25  -5  -5 3533.54 1017.37   2
  -5  30  -5 1572.61 642.320   4
 -25  -5  -5 2819.24 987.413   4
 -25  -5  -2 3608.84 955.093   2
   5  25  -2 1193.91 722.578   3
  25 -30  -2 1855.43 839.098   1
 -30   5  -2 1703.01 752.048   4
 -25  -5  -2 1100.10 666.842   4
 -30   5  -2 909.268 719.239   2
 -25  -5   1 2281.27 719.458   2
   5  25   1 1630.07 747.345   3
  -5  30   1 1291.39 669.665   3
  25 -30   1 1435.99 898.286   1
 -30   5   1 1687.66 756.917   4
 -25  -5   1 2178.96 776.470   4
 -30   5   1 1847.77 743.820   2
  30 -25   1 681.935 737.235   1
   5  25   4 491.737 707.104   3
  -5  30   4-287.834 660.924   3
  30 -25   4 728.617 925.511   1
 -25  -5   4 887.374 813.252   1
 -30   5   4 541.390 575.111   4
 -25  -5   4-155.624 638.615   4
 -30   5   4 4.27815 642.921   2
 -25  -5   4 294.130 524.270   2
  25 -30   4 327.284 766.213   1
 -30   6  -3 1057.24 728.042   2
 -24  -6  -3 2319.04 830.559   2
 -30   6  -3 454.760 709.126   4
  24 -30  -3 692.966 714.475   1
 -24  -6  -3 2761.97 917.080   4
 -24  -6   0 724.039 637.745   2
   6  24   0-3.01461 611.401   3
  -6  30   0 440.607 670.919   3
 -30   6   0 1097.07 696.804   4
  24 -30   0 2815.07 946.176   1
 -24  -6   0 2156.24 816.460   4
 -30   6   0 255.811 683.914   2
  30 -24   0 248.842 730.034   1
   6  24   3 1724.36 835.255   3
  -6  30   3 1204.60 762.442   3
 -24  -6   3 1662.79 833.814   1
 -30   6   3 1562.48 684.474   4
  30 -24   3 2611.88 939.718   1
 -24  -6   3 2925.97 850.861   4
 -30   6   3 2351.50 787.285   2
  24 -30   3 2687.70 1044.99   1
 -24  -6   3 1531.61 650.737   2
 -30   7  -4-656.499 669.771   2
  23 -30  -4-8.53448 724.982   1
 -23  -7  -4 216.946 631.669   2
  -7  30  -4 157.881 561.702   4
 -30   7  -4 789.269 810.950   4
 -23  -7  -4-416.993 733.701   4
 -23  -7  -1-230.049 613.010   2
   7  23  -1 1738.93 680.001   3
  -7  30  -1 708.946 614.734   3
 -30   7  -1 680.914 589.207   4
 -23  -7  -1-107.025 607.322   4
  23 -30  -1 1303.90 731.218   1
 -30   7  -1 899.874 696.800   2
  30 -23   2 697.819 793.997   1
   7  23   2 673.539 699.662   3
  -7  30   2 765.469 661.322   3
 -23  -7   2 668.445 644.693   1
 -30   7   2-341.529 578.161   4
 -23  -7   2 645.117 589.803   4
 -30   7   2-51.9180 553.081   2
  23 -30   2 284.726 752.747   1
 -23  -7   2 237.668 639.026   2
   7  23   5 59.9385 673.727   3
  -7  30   5-381.405 674.776   3
  30 -23   5 948.582 796.757   1
 -23  -7   5 650.401 836.769   1
 -30   7   5 533.370 572.448   4
  23 -30   5 409.987 870.027   1
 -23  -7   5 668.989 625.368   4
  30 -23   5 1085.22 1931.74   3
 -30   7   5 1092.65 775.765   2
 -23  -7   5-578.524 536.246   2
 -30   8  -5 2495.43 917.108   2
 -22  -8  -5 3406.38 1011.50   2
  22 -30  -5 1615.95 764.964   1
  -8  30  -5 754.461 530.536   4
 -22  -8  -5 1246.56 594.019   1
 -30   8  -5 2010.56 898.666   4
 -22  -8  -5 2117.51 931.877   4
 -22  -8  -2 2163.19 749.014   2
   8  22  -2 2432.53 794.852   3
 -30   8  -2 1589.22 747.003   4
 -22  -8  -2 2496.42 837.948   4
  22 -30  -2 3616.20 960.094   1
 -30   8  -2 1122.87 698.315   2
 -22  -8   1 1998.24 734.305   2
   8  22   1 2121.42 745.012   3
  -8  30   1 2028.34 707.308   3
 -22  -8   1 2361.05 826.041   1
 -30   8   1 3221.90 919.273   4
 -22  -8   1 2147.93 815.582   4
  30 -22   1-107.664 1181.33   3
 -30   8   1 1733.42 741.078   2
  22 -30   1 643.821 686.142   1
  30 -22   1 3577.93 936.157   1
   8  22   4 750.199 737.479   3
  -8  30   4 1645.77 829.171   3
 -22  -8   4 940.739 749.221   1
  22 -30   4 1586.95 905.255   1
 -30   8   4 1545.02 730.899   4
 -22  -8   4 532.836 564.013   4
  30 -22   4 1413.28 854.998   1
  30 -22   4-835.016 1793.36   3
 -30   8   4 151.641 596.634   2
 -22  -8   4 498.876 532.010   2
 -30   9  -6 2181.35 903.739   2
 -21  -9  -6 1371.03 928.635   2
 -30   9  -6 969.007 738.677   4
 -21  -9  -6 805.846 885.643   4
 -21  -9  -3 3758.92 907.860   2
  -9  30  -3 2118.52 698.733   4
 -21  -9  -3 3338.49 762.151   1
 -30   9  -3 4692.85 997.823   4
  21 -30  -3 5103.16 1037.02   1
 -21  -9  -3 4177.88 988.740   4
 -30   9  -3 2985.15 874.871   2
  21 -30   0 2914.06 905.952   1
 -21  -9   0 2272.14 720.353   2
   9  21   0 3060.05 790.061   3
  -9  30   0 2076.93 712.914   3
  -9  30   0 1437.93 471.811   2
 -21  -9   0 3210.37 775.529   1
 -30   9   0 2367.04 773.733   4
 -21  -9   0 1405.73 744.535   4
 -30   9   0 3260.27 865.972   2
   9  21   3 2598.40 783.917   3
  -9  30   3 3864.22 895.125   3
  30 -21   3 4236.13 1090.20   1
 -21  -9   3 3944.07 983.638   1
 -30   9   3 4734.02 921.485   4
  21 -30   3 3927.97 1073.84   1
 -21  -9   3 4180.17 900.122   4
 -30   9   3 4194.97 902.272   2
 -21  -9   3 4613.70 909.151   2
   9  21   6 1971.65 864.782   3
  -9  30   6 2604.53 908.265   3
  21 -30   6 464.117 862.130   1
 -21  -9   6 2600.16 1048.74   1
 -30   9   6 1037.12 674.047   4
  30 -21   6 5258.88 1140.52   1
 -21  -9   6 1445.88 673.387   4
 -30   9   6 1894.28 747.845   2
  30 -21   6 224.556 2259.49   3
 -21  -9   6 2146.52 709.968   2
 -30  10  -4 529.696 623.411   2
 -20 -10  -4 896.205 692.739   2
 -10  30  -4 58.9737 455.313   4
  20 -30  -4 594.730 718.759   1
 -20 -10  -4 85.9069 507.140   1
 -30  10  -4-715.541 679.610   4
 -20 -10  -4 684.831 739.763   4
 -20 -10  -1 292.741 549.698   2
  20 -30  -1 1447.48 756.609   1
  10  20  -1 555.713 560.831   3
 -20 -10  -1 779.475 673.114   1
 -10  30  -1 663.662 373.439   2
 -30  10  -1 701.826 670.904   4
 -20 -10  -1 702.690 595.759   4
 -30  10  -1 1044.78 688.822   2
 -20 -10   2 223.974 552.192   2
  30 -20   2 396.435 701.045   1
  10  20   2 652.779 640.242   3
 -10  30   2 435.443 542.271   3
 -10  30   2-25.6352 457.052   2
 -20 -10   2 1430.18 745.753   1
  20 -30   2-19.9369 689.264   1
 -30  10   2 1041.03 594.188   4
 -20 -10   2-206.840 610.176   4
  30 -20   2-354.447 1430.23   3
 -30  10   2-329.621 590.732   2
  10  20   5 840.357 742.581   3
 -10  30   5 899.871 679.894   3
  20 -30   5 1.32229 804.505   1
 -20 -10   5-470.668 715.482   1
 -30  10   5-160.555 587.750   4
 -20 -10   5 266.081 557.872   4
 -30  10   5 552.702 653.150   2
  30 -20   5-2250.58 2032.86   3
 -20 -10   5 601.938 584.906   2
  30 -20   5 992.226 823.709   1
 -30  11  -5 1581.13 764.114   2
  19 -30  -5 869.980 711.079   1
 -19 -11  -5 843.823 700.258   2
 -11  30  -5 499.234 504.788   4
 -30  11  -5 191.671 677.086   4
 -19 -11  -5 1548.24 804.567   4
 -19 -11  -2 783.224 574.600   2
  11  19  -2 739.140 598.089   3
 -11  30  -2 12.0447 502.947   4
  19 -30  -2 1470.00 694.955   1
 -19 -11  -2-82.8719 557.933   1
 -30  11  -2 743.022 658.446   4
 -19 -11  -2 144.016 585.997   4
 -30  11  -2 109.931 628.141   2
 -19 -11   1 2945.28 726.107   2
  11  19   1 3949.52 827.314   3
 -11  30   1 2463.89 795.226   3
 -11  30   1 2247.78 557.462   2
 -19 -11   1 2285.62 743.195   1
 -30  11   1 3237.16 859.869   4
  19 -30   1 2650.67 915.513   1
 -19 -11   1 3162.79 875.605   4
 -30  11   1 2792.97 775.399   2
 -19 -11   4 400.230 521.432   2
  11  19   4 934.340 713.383   3
 -11  30   4 1082.08 690.838   3
  19 -30   4 906.928 775.174   1
 -19 -11   4 1677.68 903.138   1
 -30  11   4 1054.98 695.248   4
  30 -19   4 592.705 727.691   1
 -19 -11   4 1746.10 677.613   4
 -30  11   4 1497.43 696.638   2
  30 -19   4 727.142 1410.96   3
  18 -30  -6 987.821 618.002   1
 -30  12  -6 1230.85 717.947   2
 -30  12  -6 1540.39 766.951   4
 -18 -12  -3 6422.32 1061.11   2
  18 -30  -3 5603.54 1054.54   1
 -12  30  -3 6232.22 946.000   4
 -18 -12  -3 7291.91 927.494   1
 -30  12  -3 6777.48 1092.51   4
 -18 -12  -3 5401.68 1066.04   4
 -30  12  -3 7962.54 1142.57   2
 -18 -12   0 1791.22 687.941   2
  12  18   0 2451.25 703.379   3
 -12  30   0 1992.44 686.698   3
 -12  30   0 1685.41 749.591   4
 -12  30   0 1605.61 499.537   2
 -18 -12   0 3374.44 840.787   1
 -30  12   0 2546.41 775.890   4
  18 -30   0 2253.61 805.408   1
 -18 -12   0 1786.74 772.558   4
 -30  12   0 2489.99 732.775   2
 -18 -12   3 3476.92 717.273   2
  12  18   3 2831.58 834.351   3
 -12  30   3 3420.90 838.027   3
  18 -30   3 2880.26 944.263   1
 -12  30   3 1779.74 667.293   2
 -30  12   3 4120.13 891.721   4
 -18 -12   3 2147.33 843.644   1
 -18 -12   3 3073.90 768.408   4
 -30  12   3 4157.78 901.272   2
  30 -18   3 2730.62 832.538   3
  30 -18   3 3843.35 1018.68   1
  18 -30   6 291.594 830.960   1
  12  18   6 1383.29 754.325   3
 -12  30   6 1415.78 833.355   3
  30 -18   6 246.768 689.429   1
 -30  12   6 1319.11 693.790   4
 -18 -12   6 1039.55 816.505   1
 -30  12   6 419.977 647.073   2
  30 -18   6-22.0015 1043.82   3
 -18 -12   6-554.202 515.270   2
 -17 -13  -4 817.809 760.122   2
 -13  30  -4 855.736 527.710   4
 -30  13  -4 901.141 742.928   4
 -17 -13  -4-357.663 467.310   1
 -17 -13  -4 1540.50 792.787   4
  17 -30  -4 852.027 676.339   1
 -30  13  -4 581.155 603.265   2
 -17 -13  -1 1253.13 718.238   2
  13  17  -1 1624.95 658.242   3
 -13  30  -1-255.875 515.578   4
 -13  30  -1 513.197 338.147   2
 -17 -13  -1 416.434 605.973   1
 -30  13  -1 117.711 554.500   4
 -17 -13  -1 215.333 549.346   4
  17 -30  -1 613.509 683.291   1
 -30  13  -1 703.928 583.944   2
 -17 -13   2 371.480 532.877   2
  13  17   2-190.507 594.319   3
  17 -30   2 513.106 681.544   1
 -13  30   2 885.627 651.181   3
 -13  30   2-555.016 639.215   4
 -13  30   2 891.294 509.906   2
 -30  13   2 191.649 619.908   4
 -17 -13   2 302.946 615.139   1
 -17 -13   2-977.105 709.648   4
 -30  13   2 1112.32 646.388   2
  30 -17   2 850.587 458.312   3
 -17 -13   5 202.150 497.153   2
  17 -30   5 180.420 733.963   1
  13  17   5 374.555 668.577   3
 -13  30   5 282.367 640.422   3
 -13  30   5 101.223 588.213   2
  30 -17   5 927.950 742.471   1
 -30  13   5-118.836 564.600   4
 -17 -13   5 312.465 674.896   1
 -30  13   5 42.6323 605.134   2
  30 -17   5 455.722 635.047   3
 -30  14  -5-39.4014 629.420   2
 -14  30  -5-273.987 512.632   4
  16 -30  -5-432.825 595.792   1
 -30  14  -5-523.473 647.917   4
 -16 -14  -2 1289.59 663.378   2
  14  16  -2 598.524 509.617   3
 -14  30  -2-592.997 574.317   4
 -30  14  -2 741.478 636.082   4
 -16 -14  -2 1600.36 652.806   1
 -16 -14  -2 697.239 718.268   4
  16 -30  -2-1035.13 663.717   1
 -30  14  -2 903.152 623.167   2
 -16 -14   1-125.593 460.068   2
  14  16   1 458.733 594.924   3
  16 -30   1 1801.45 767.219   1
 -14  30   1 954.987 606.148   3
 -14  30   1 1080.83 608.845   4
 -14  30   1 444.946 423.252   2
 -30  14   1 103.993 610.634   4
 -16 -14   1 1955.64 684.644   1
 -16 -14   1-432.967 516.858   4
 -30  14   1 1402.99 695.098   2
 -16 -14   4 719.860 493.193   2
  14  16   4 915.760 710.578   3
 -14  30   4 2529.83 814.705   3
 -14  30   4 2595.83 876.024   4
 -14  30   4 922.895 617.912   2
 -30  14   4 1310.86 686.256   4
 -16 -14   4 464.957 723.907   1
 -30  14   4 1202.31 618.026   2
  30 -16   4 1279.79 576.194   3
  16 -30   4 1532.00 855.458   1
 -30  15  -6 864.504 693.636   2
 -15  30  -6 731.791 518.953   4
 -30  15  -6 1460.91 754.415   4
 -15 -15  -3 4157.29 940.327   2
 -15  30  -3 3428.35 823.420   4
 -30  15  -3 3418.57 862.061   4
 -15 -15  -3 3935.77 720.412   1
 -30  15  -3 4359.61 898.462   2
  15 -30  -3 4957.33 962.765   1
 -15 -15   0 2136.40 631.029   2
  15  15   0 1406.40 624.160   3
  15 -30   0 430.462 600.670   1
 -15  30   0 676.016 559.534   4
 -15  30   0 884.607 462.550   2
 -30  15   0 2081.00 684.752   4
 -15 -15   0 825.618 635.131   1
 -30  15   0 985.887 608.624   2
  15  15   3 5138.05 930.352   3
 -15 -15   3 2728.27 638.538   2
 -15  30   3 4107.32 858.028   3
 -15  30   3 3142.08 863.935   4
 -15  30   3 2525.83 737.554   2
 -30  15   3 4387.75 901.270   4
 -15 -15   3 2288.17 780.473   1
 -30  15   3 3355.18 818.948   2
  30 -15   3 3911.99 691.903   3
  15 -30   3 3400.65 964.821   1
  15  15   6 1688.88 867.767   3
 -15  30   6 2372.28 831.112   3
 -15  30   6 81.1676 635.743   4
 -15  30   6 1071.22 702.226   2
 -30  15   6 1421.59 719.856   4
 -30  15   6 546.277 663.995   2
 -15 -15   6 1533.59 924.556   1
  30 -15   6 155.098 651.852   3
  15 -30   6 71.2633 756.930   1
 -16  30  -4 1263.32 587.704   4
  14 -30  -4 1278.46 610.400   1
 -30  16  -4 2147.16 712.660   4
 -14 -16  -4 813.784 516.996   1
 -30  16  -4 1630.17 652.754   2
 -14 -16  -1 257.008 501.610   2
  16  14  -1 617.675 472.797   3
 -16  30  -1-88.3388 517.568   4
  14 -30  -1 1800.18 734.083   1
 -30  16  -1 436.420 635.194   4
 -16  30  -1 53.3609 337.642   2
 -14 -16  -1 1075.31 575.585   1
 -30  16  -1 364.047 536.568   2
  16  14   2 728.778 596.399   3
 -14 -16   2 708.434 470.392   2
 -16  30   2 281.679 542.546   3
 -16  30   2 1157.07 647.779   4
 -16  30   2 735.389 508.150   2
 -30  16   2 221.275 580.932   4
 -14 -16   2 234.873 581.602   1
 -30  16   2 627.745 713.854   2
  30 -14   2 615.112 380.660   3
  14 -30   2 1767.54 841.565   1
  16  14   5-72.9423 635.147   3
 -16  30   5-427.148 623.619   3
 -16  30   5-804.324 695.007   4
 -16  30   5 513.218 670.426   2
 -30  16   5 168.450 594.051   4
 -30  16   5 1084.10 639.359   2
 -14 -16   5-303.308 719.720   1
  14 -30   5 1803.24 909.562   1
  30 -14   5 263.345 574.937   3
 -30  17  -5 419.566 558.119   2
 -17  30  -5 272.251 502.054   4
 -30  17  -5-215.661 604.677   4
  13 -30  -5 112.059 540.142   1
 -13 -17  -2 631.807 539.331   2
  17  13  -2 1083.18 552.573   3
 -17  30  -2 544.080 526.981   4
  13 -30  -2 789.529 673.992   1
 -30  17  -2 377.954 540.492   4
 -17  30  -2 166.315 291.173   2
 -13 -17  -2 189.291 533.825   1
 -30  17  -2-69.0060 524.563   2
  17  13   1 964.628 559.510   3
 -13 -17   1 1078.18 532.642   2
 -17  30   1 898.012 577.410   3
 -17  30   1 1029.03 613.760   4
 -17  30   1 849.593 510.694   2
 -30  17   1-172.423 505.132   4
 -13 -17   1-232.023 652.509   1
 -30  17   1-126.639 584.638   2
  13 -30   1-448.824 662.981   1
  17  13   4 499.519 599.812   3
 -13 -17   4 1220.59 508.110   2
 -17  30   4 1021.44 625.906   3
 -17  30   4 65.2334 580.978   4
 -17  30   4 1450.81 650.490   2
 -30  17   4 874.477 623.573   4
 -30  17   4 620.314 688.316   2
 -13 -17   4-561.592 669.601   1
  13 -30   4 1201.18 893.249   1
  30 -13   4 456.876 543.371   3
 -30  18  -6 690.976 632.025   2
 -18  30  -6 322.699 475.756   4
 -30  18  -6 534.857 711.883   4
 -18  30  -3 2509.41 726.245   4
 -30  18  -3 4092.46 896.290   4
  12 -30  -3 3611.75 898.032   1
 -30  18  -3 5806.49 962.962   2
 -12 -18  -3 3491.84 740.062   1
  12 -30   0 2029.43 748.913   1
  18  12   0 2225.69 644.261   3
 -12 -18   0 1036.18 578.381   2
 -18  30   0 1362.32 669.372   4
 -30  18   0 1827.28 683.361   4
 -18  30   0 1179.27 477.248   2
 -12 -18   0 1732.18 691.403   1
 -30  18   0 2992.41 810.050   2
  18  12   3 7975.76 1059.92   3
 -12 -18   3 6036.21 802.908   2
 -18  30   3 10207.0 1162.90   3
  12 -30   3 7052.40 1229.55   1
 -18  30   3 5077.62 1015.11   4
 -18  30   3 5892.93 915.457   2
 -30  18   3 6450.80 1082.04   4
 -12 -18   3 5986.88 1057.04   1
 -30  18   3 7794.28 1113.51   2
  30 -12   3 7343.49 795.955   3
  18  12   6 988.854 718.141   3
 -18  30   6 1951.45 720.192   3
 -18  30   6 286.477 722.985   4
 -18  30   6 476.257 727.928   2
 -30  18   6 2227.07 793.954   4
 -30  18   6 2232.81 834.265   2
  12 -30   6 1912.23 969.949   1
 -12 -18   6 2760.56 944.958   1
  30 -12   6 1972.98 765.954   3
 -19  30  -4-20.2247 492.515   4
 -30  19  -4 1444.89 719.200   4
 -30  19  -4-54.0989 553.249   2
 -11 -19  -4 807.701 502.799   1
  11 -30  -4 880.361 613.532   1
  11 -30  -1 2757.06 841.018   1
  19  11  -1 1697.27 554.462   3
 -19  30  -1 2580.03 731.493   4
 -30  19  -1 2925.58 823.194   4
 -19  30  -1 2345.09 502.788   2
 -11 -19  -1 1977.29 668.946   1
 -30  19  -1 2574.19 747.192   2
  19  11   2 671.812 585.892   3
 -11 -19   2-30.2670 449.825   2
 -19  30   2 426.180 540.541   3
 -19  30   2-581.125 635.840   4
 -19  30   2 215.940 508.333   2
 -30  19   2 8.68347 581.164   4
 -30  19   2-107.662 510.188   2
 -11 -19   2-470.668 605.979   1
  11 -30   2-643.193 717.749   1
  19  11   5 380.393 663.358   3
 -19  30   5 812.338 558.895   3
 -19  30   5 174.215 617.549   4
 -19  30   5 364.546 599.339   2
 -30  19   5 919.637 638.144   4
 -30  19   5 1963.89 736.900   2
  11 -30   5 267.695 814.265   1
 -11 -19   5-383.093 840.376   1
  30 -11   5 1223.50 637.333   3
 -30  20  -5 269.319 560.819   2
 -20  30  -5 152.897 521.963   4
 -30  20  -5 477.301 602.417   4
  10 -30  -5-72.2059 507.073   1
  10 -30  -2 490.599 566.694   1
 -20  30  -2 0.88666 513.450   4
 -30  20  -2-56.5199 539.456   4
 -20  30  -2 605.443 378.859   2
 -30  20  -2 186.707 523.581   2
 -10 -20  -2 258.061 497.317   1
  20  10   1 997.472 533.829   3
 -20  30   1 1738.59 718.048   4
 -30  20   1 1211.91 680.111   4
 -20  30   1 802.514 534.115   2
 -30  20   1 209.579 535.316   2
  10 -30   1 523.489 725.959   1
 -10 -20   1 1260.56 651.372   1
  20  10   4 525.679 600.220   3
 -20  30   4 292.670 521.594   3
 -20  30   4 290.487 575.741   4
 -20  30   4 526.867 582.237   2
 -30  20   4 826.752 726.765   4
  10 -30   4 457.840 854.086   1
 -30  20   4 458.962 683.415   2
 -10 -20   4 42.5696 685.958   1
  30 -10   4-39.3696 474.916   3
 -30  21  -6 417.104 657.555   2
 -21  30  -6 1606.90 638.576   4
 -30  21  -6 2413.72 821.547   4
   9 -30  -3 3211.28 796.845   1
 -21  30  -3 3749.74 816.222   4
 -30  21  -3 2503.80 765.851   4
  -9 -21  -3 4837.72 785.531   1
 -30  21  -3 4477.03 881.231   2
  21   9   0 2385.84 619.550   3
 -21  30   0 400.686 566.718   4
 -30  21   0 636.276 596.303   4
 -21  30   0 1732.38 563.335   2
 -30  21   0 1312.00 662.769   2
   9 -30   0 2013.08 835.757   1
  -9 -21   0 2634.75 741.061   1
  21   9   3 3205.33 764.674   3
 -21  30   3 3798.51 772.774   3
 -21  30   3 2927.15 856.070   4
 -30  21   3 2566.41 825.192   4
 -21  30   3 2275.93 699.157   2
   9 -30   3 5000.11 1085.20   1
 -30  21   3 3226.32 857.069   2
  -9 -21   3 3483.79 976.115   1
  30  -9   3 3192.71 602.250   3
  21   9   6 1719.85 814.608   3
 -21  30   6 469.302 636.744   3
 -21  30   6 1804.82 826.624   4
 -21  30   6 1275.33 763.213   2
 -30  21   6 1726.16 760.725   4
   9 -30   6 3236.59 1070.34   1
 -30  21   6 353.858 786.305   2
  -9 -21   6 2619.19 1021.06   1
  30  -9   6 1538.94 694.776   3
  -8 -22  -4 124.199 477.131   1
 -22  30  -4 1305.46 657.025   4
 -30  22  -4 698.963 655.627   4
   8 -30  -4 86.5327 549.455   1
 -30  22  -4 369.342 552.327   2
  22   8  -1 1250.79 539.310   3
 -22  30  -1 1840.19 715.535   4
 -30  22  -1 1242.71 586.861   4
 -22  30  -1 2885.57 600.704   2
 -30  22  -1 2275.22 714.756   2
   8 -30  -1 1820.76 739.883   1
  -8 -22  -1 2878.50 768.263   1
  22   8   2 2045.93 664.215   3
 -22  30   2 1343.62 721.694   4
 -30  22   2 1396.75 731.334   4
 -22  30   2 736.754 536.221   2
   8 -30   2-482.566 701.103   1
 -30  22   2 1303.52 627.221   2
  -8 -22   2 2464.80 830.434   1
  22   8   5 1136.93 698.675   3
 -22  30   5 2719.12 731.579   3
 -22  30   5 2377.58 842.339   4
 -30  22   5 1439.86 830.110   4
 -22  30   5 820.959 732.173   2
   8 -30   5 1724.97 975.440   1
 -30  22   5 2441.64 892.501   2
  -8 -22   5 1948.64 951.206   1
  30  -8   5 2021.19 690.985   3
 -23  30  -5 1093.89 616.587   4
 -30  23  -5 617.863 639.719   4
 -30  23  -5-75.5882 582.560   2
  -7 -23  -2 765.714 548.442   1
 -23  30  -2 219.701 532.159   4
 -30  23  -2 301.100 591.333   4
 -23  30  -2 235.865 416.284   2
 -30  23  -2 1596.74 692.257   2
   7 -30  -2 187.510 602.520   1
  23   7   1 1572.03 574.778   3
 -23  30   1 1196.65 665.735   4
 -30  23   1 1196.91 702.989   4
 -23  30   1 1277.08 558.222   2
   7 -30   1-26.3308 669.098   1
 -30  23   1 660.893 550.197   2
  -7 -23   1 492.808 600.654   1
  23   7   4 830.457 665.987   3
 -23  30   4 15.3557 553.813   3
 -23  30   4 474.519 622.935   4
 -30  23   4 108.759 592.675   4
   7 -30   4-650.247 790.324   1
 -23  30   4 749.626 637.126   2
 -30  23   4-465.698 741.237   2
  -7 -23   4-1062.00 835.392   1
  30  -7   4-101.811 497.920   3
   6 -30  -3 137.410 555.118   1
  -6 -24  -3 1070.55 612.509   1
 -24  30  -3 1072.97 666.914   4
 -30  24  -3 944.462 612.666   4
 -24  30  -3 1080.13 468.769   2
 -30  24  -3 859.077 580.234   2
  -6 -24   0 1130.01 685.858   1
  24   6   0 1728.60 532.683   3
 -24  30   0 2129.18 779.240   4
 -30  24   0 1274.02 640.724   4
 -24  30   0 1185.43 599.648   2
   6 -30   0 2746.85 834.368   1
 -30  24   0 219.807 570.466   2
  24   6   3 512.795 514.784   3
 -24  30   3 1001.24 795.402   4
 -30  24   3 875.203 666.144   4
   6 -30   3 441.033 743.370   1
 -24  30   3 753.926 625.828   2
 -30  24   3-120.720 582.380   2
  -6 -24   3 1026.27 725.844   1
   5 -30  -4 731.703 570.393   1
 -25  30  -4 863.438 632.413   4
 -30  25  -4-9.11615 568.877   4
 -30  25  -4 320.288 534.160   2
  -5 -25  -1 684.142 610.797   1
 -25  30  -1 1062.93 665.527   4
 -30  25  -1 1736.26 756.432   4
   5 -30  -1 647.841 662.474   1
 -25  30  -1 2050.47 603.113   2
 -30  25  -1 1958.86 750.121   2
  -5 -25   2 1456.35 819.766   1
  25   5   2 698.901 502.424   3
 -25  30   2 1614.64 789.167   4
 -30  25   2 1553.19 769.432   4
   5 -30   2 1457.75 812.582   1
 -25  30   2-124.704 542.355   2
 -30  25   2 455.511 634.000   2
  -5 -25   5 2254.13 972.920   1
  25   5   5 3561.94 917.526   3
 -25  30   5 4823.56 828.175   3
 -25  30   5 2715.43 931.632   4
   5 -30   5 1766.16 985.035   1
 -30  25   5 3582.57 932.528   4
 -25  30   5 4757.87 1015.68   2
 -30  25   5 2500.04 862.607   2
  30  -5   5 3736.99 847.076   3
  -4 -26  -2 109.713 612.625   1
 -26  30  -2 1371.95 685.546   4
 -30  26  -2 1060.85 683.359   4
   4 -30  -2-720.753 666.454   1
 -26  30  -2-5.96017 459.643   2
 -30  26  -2 181.358 483.598   2
  -4 -26   1 119.831 605.019   1
  26   4   1 458.517 482.074   3
 -26  30   1-474.058 607.236   4
 -30  26   1 722.894 803.695   4
   4 -30   1 629.424 746.958   1
 -26  30   1 490.447 546.718   2
 -30  26   1 71.7424 530.529   2
  26   4   4 440.450 688.214   3
  -4 -26   4-674.052 767.908   1
   4 -30   4 615.820 839.672   1
 -26  30   4-370.073 635.490   4
 -30  26   4-93.1087 645.532   4
 -26  30   4-84.2477 631.717   2
 -30  26   4 328.224 645.476   2
 -27  30  -3-313.768 582.816   4
  -3 -27  -3 608.537 578.220   1
 -30  27  -3 1508.60 739.826   4
 -27  30  -3 430.518 520.406   2
 -30  27  -3-547.021 580.967   2
   3 -30  -3 38.7838 657.104   1
  -3 -27   0 125.006 620.461   1
 -27  30   0 80.0561 599.896   4
 -30  27   0 2100.99 773.553   4
   3 -30   0 912.905 713.228   1
 -27  30   0 419.148 517.540   2
 -30  27   0 841.687 600.019   2
  27   3   3 1318.97 609.845   3
  -3 -27   3 765.338 828.902   1
   3 -30   3-472.111 821.278   1
 -27  30   3 723.139 728.351   4
 -30  27   3-354.993 635.189   4
 -27  30   3 72.1646 624.405   2
 -30  27   3 150.559 671.201   2
  -2 -28  -1 2632.96 893.208   1
 -28  30  -1 1744.84 823.598   4
 -30  28  -1 2139.75 788.081   4
   2 -30  -1 1634.53 794.882   1
 -28  30  -1 1480.81 673.444   2
 -30  28  -1 2070.73 691.119   2
  -2 -28   2-89.0850 776.722   1
   2 -30   2-412.381 746.278   1
 -28  30   2 1037.78 709.026   4
 -30  28   2 571.848 650.578   4
 -28  30   2 392.095 577.744   2
 -30  28   2 213.601 625.168   2
 -29  30  -2 29.2978 598.989   4
 -30  29  -2 756.727 639.796   4
  -1 -29  -2 102.246 615.310   1
   1 -30  -2 277.150 589.576   1
 -29  30  -2-393.246 513.852   2
 -30  29  -2-69.8399 513.161   2
  -1 -29   1 1104.32 807.575   1
   1 -30   1 2197.92 899.583   1
 -29  30   1 1946.51 788.741   4
 -30  29   1 3356.41 928.188   4
 -29  30   1 1275.14 651.297   2
 -30  29   1 255.513 555.069   2
   0 -30   0-359.172 697.479   1
 -30  30   0 651.023 724.750   4
 -30  30   0-349.496 623.545   2
  31 -29   0 1468.55 1008.94   1
 -29  -2   0 49.7746 760.692   2
   2  29   0 89.0446 691.882   3
  -2  31   0-171.467 723.853   3
  29 -31   0 843.487 867.945   1
 -31   2   0 1174.97 789.196   4
 -29  -2   0 955.770 784.776   4
 -31   2   0 416.991 670.764   2
 -28  -3  -1 392.696 643.603   2
   3  28  -1 1483.59 811.258   3
  -3  31  -1-385.432 738.702   3
  28 -31  -1-540.477 881.464   1
 -31   3  -1-37.2666 805.070   4
 -28  -3  -1 456.387 751.283   4
  31 -28  -1 1265.47 867.392   1
 -31   3  -1 1127.17 738.686   2
   3  28   2-657.589 764.807   3
  -3  31   2-169.925 705.215   3
  31 -28   2 90.6532 810.820   1
 -31   3   2-1182.66 736.587   4
 -28  -3   2 697.762 700.704   4
  28 -31   2-10.0252 972.427   1
 -31   3   2 1006.97 783.321   2
 -28  -3   2 1263.47 748.679   2
 -31   4  -2 583.774 692.260   2
 -27  -4  -2 1358.58 774.611   2
   4  27  -2 986.759 766.249   3
 -31   4  -2 1315.17 830.962   4
 -27  -4  -2 596.032 784.382   4
  27 -31  -2 53.3072 737.857   1
 -27  -4   1 828.384 710.429   2
   4  27   1 824.660 705.121   3
  -4  31   1 1247.08 783.812   3
 -31   4   1 1346.58 724.976   4
 -27  -4   1 1291.71 737.378   4
  27 -31   1 427.795 783.498   1
 -31   4   1 57.7620 676.661   2
  31 -27   1 1011.87 784.945   1
  26 -31  -3 2676.58 936.666   1
 -31   5  -3 1586.10 886.889   2
 -26  -5  -3 2848.44 905.863   2
 -31   5  -3 1989.28 884.583   4
 -26  -5  -3 2423.97 945.846   4
 -26  -5   0 98.8546 620.980   2
   5  26   0 505.311 652.959   3
  -5  31   0 699.059 745.590   3
 -31   5   0 833.306 704.558   4
 -26  -5   0 1562.48 838.932   4
  31 -26   0 759.883 817.541   1
  26 -31   0 1390.09 813.785   1
 -31   5   0 1022.72 717.018   2
  26 -31   3 1840.70 1013.67   1
   5  26   3 2031.64 857.975   3
  -5  31   3 3150.02 987.724   3
  31 -26   3 1882.04 952.738   1
 -31   5   3 2489.71 804.158   4
 -26  -5   3 1406.47 787.724   4
 -31   5   3 2825.29 842.629   2
 -26  -5   3 2665.14 804.939   2
 -31   6  -4 82.3087 712.139   2
 -25  -6  -4 401.831 656.524   2
  -6  31  -4-468.852 674.943   4
 -31   6  -4 266.315 729.066   4
 -25  -6  -4 521.906 718.875   4
  25 -31  -4 103.725 695.427   1
 -25  -6  -1-153.816 607.907   2
   6  25  -1 1396.75 715.361   3
  -6  31  -1-1064.19 743.408   3
 -31   6  -1 728.058 734.478   4
 -25  -6  -1 2602.16 910.783   4
  31 -25  -1 2321.07 931.368   1
  25 -31  -1-1380.72 813.713   1
 -31   6  -1 1208.77 679.064   2
  25 -31   2-310.241 793.469   1
   6  25   2-46.7044 616.394   3
  -6  31   2 479.407 724.402   3
 -31   6   2 343.176 596.417   4
 -25  -6   2 919.431 626.612   4
 -31   6   2 1466.97 830.320   2
  31 -25   2-178.401 762.478   1
 -25  -6   2 190.189 552.766   2
  24 -31  -2-1064.43 793.014   1
 -24  -7  -2-490.461 680.111   2
   7  24  -2 272.030 677.791   3
 -31   7  -2 756.552 732.852   4
 -24  -7  -2 162.304 653.115   4
 -31   7  -2 1201.08 803.637   2
 -24  -7   1 874.890 682.036   2
   7  24   1 1268.53 779.844   3
  24 -31   1 980.835 850.281   1
  -7  31   1 3110.44 900.076   3
 -31   7   1 1072.39 638.221   4
 -24  -7   1 1738.65 792.451   4
  31 -24   1 3187.73 998.480   1
 -31   7   1 358.106 601.688   2
  -7  31   4 5654.41 1145.63   3
   7  24   4 3341.23 978.626   3
 -24  -7   4 3324.48 1036.81   1
 -31   7   4 3517.74 904.934   4
  31 -24   4 1396.95 885.916   1
 -24  -7   4 2480.52 807.910   4
  31 -24   4-1465.97 1884.20   3
 -31   7   4 1096.73 691.287   2
  24 -31   4 1276.08 987.726   1
 -24  -7   4 3807.32 917.498   2
 -31   8  -3 2621.57 899.054   2
 -23  -8  -3 1499.19 731.223   2
  -8  31  -3 996.390 647.892   4
  23 -31  -3 1670.41 809.828   1
 -31   8  -3 1182.82 716.883   4
 -23  -8  -3 706.842 724.805   4
 -23  -8   0 1588.11 736.316   2
   8  23   0 2466.60 788.272   3
  -8  31   0 2063.18 777.181   3
  31 -23   0 2098.97 899.178   1
  23 -31   0 788.104 764.870   1
  -8  31   0 685.038 426.041   2
 -23  -8   0 1087.12 713.001   1
 -31   8   0 760.757 681.208   4
 -23  -8   0-98.4659 639.086   4
 -31   8   0 496.174 652.316   2
  31 -23   3 2941.86 1022.01   1
   8  23   3 1923.27 797.431   3
  -8  31   3 2203.14 836.803   3
 -23  -8   3 4197.12 1058.13   1
 -31   8   3 1859.44 734.069   4
 -23  -8   3 3045.10 819.940   4
  23 -31   3 2879.99 1065.48   1
  31 -23   3-487.642 1602.07   3
 -31   8   3 3016.19 851.347   2
 -23  -8   3 1691.45 721.451   2
 -31   9  -4 1380.29 746.522   2
 -22  -9  -4-185.516 619.184   2
  -9  31  -4 1029.92 600.626   4
 -22  -9  -4 291.546 531.823   1
 -31   9  -4 939.182 837.041   4
 -22  -9  -4 680.155 719.665   4
  22 -31  -4 1570.78 788.728   1
 -22  -9  -1 772.412 596.464   2
   9  22  -1 1600.54 733.067   3
 -22  -9  -1 1516.75 695.484   1
  22 -31  -1 64.9928 684.529   1
 -31   9  -1 1266.63 673.258   4
 -22  -9  -1 1554.47 748.444   4
 -31   9  -1 1185.52 746.891   2
 -22  -9   2 174.535 611.450   2
   9  22   2 432.581 609.476   3
  -9  31   2-448.142 670.857   3
 -22  -9   2 343.468 689.839   1
 -31   9   2 28.8404 673.543   4
 -22  -9   2-168.415 680.199   4
  22 -31   2-278.492 731.910   1
  31 -22   2 1256.43 1783.29   3
 -31   9   2 579.335 601.988   2
  31 -22   2 388.995 726.937   1
   9  22   5 819.311 781.588   3
  -9  31   5 680.305 737.848   3
  22 -31   5-270.666 784.956   1
 -22  -9   5-317.657 752.899   1
 -31   9   5 1020.23 594.616   4
 -22  -9   5-548.031 640.127   4
 -31   9   5-206.741 619.373   2
  31 -22   5 933.649 2199.75   3
  31 -22   5-444.695 751.870   1
 -22  -9   5 67.9368 527.789   2
 -31  10  -5 1909.97 827.019   2
 -21 -10  -5 2303.53 881.213   2
 -10  31  -5 1520.99 620.624   4
  21 -31  -5 1103.74 723.524   1
 -31  10  -5 1756.02 862.361   4
 -21 -10  -5 2923.80 1013.10   4
 -21 -10  -2 1567.33 756.361   2
  10  21  -2 724.981 630.703   3
 -10  31  -2-60.0588 531.201   4
 -21 -10  -2 1093.45 665.077   1
 -31  10  -2 966.365 720.419   4
 -21 -10  -2 1304.18 709.704   4
  21 -31  -2 300.725 674.263   1
 -31  10  -2 824.138 663.903   2
 -21 -10   1 3632.68 790.517   2
  10  21   1 4465.58 905.117   3
 -10  31   1 2057.84 754.583   3
 -10  31   1 1565.31 532.269   2
 -21 -10   1 3180.36 869.832   1
 -31  10   1 2786.49 872.694   4
  31 -21   1 3053.91 886.727   1
 -21 -10   1 2726.83 808.947   4
  21 -31   1 2196.84 955.829   1
 -31  10   1 3776.11 896.068   2
  10  21   4 1274.44 725.340   3
 -10  31   4 2763.48 866.570   3
  31 -21   4 1070.16 879.599   1
  21 -31   4-510.294 820.582   1
 -21 -10   4 2102.87 998.426   1
 -31  10   4 1635.88 750.631   4
 -21 -10   4 834.559 623.523   4
 -31  10   4 1116.97 680.270   2
  31 -21   4 2696.08 1914.20   3
 -21 -10   4 1052.40 645.505   2
 -20 -11  -3 2363.96 834.927   2
 -11  31  -3 2210.13 749.333   4
 -20 -11  -3 3298.63 819.147   1
 -31  11  -3 3620.97 912.480   4
  20 -31  -3 2551.82 886.110   1
 -31  11  -3 2038.94 778.915   2
 -20 -11   0 1282.35 652.334   2
  11  20   0 1729.43 720.122   3
 -11  31   0 1718.98 750.367   3
 -11  31   0 734.225 435.661   2
 -20 -11   0 2893.07 768.434   1
 -31  11   0 3393.81 876.693   4
 -20 -11   0 2612.37 800.886   4
  20 -31   0 2267.65 862.311   1
 -31  11   0 2476.60 790.021   2
 -20 -11   3 1769.91 656.897   2
  11  20   3-7.24537 634.595   3
  31 -20   3 3589.38 957.880   1
 -11  31   3 2165.61 789.632   3
 -11  31   3 546.924 539.437   2
  20 -31   3 1568.77 893.122   1
 -20 -11   3 2221.61 903.047   1
 -31  11   3 1861.48 698.382   4
 -20 -11   3 1395.45 746.686   4
 -31  11   3 3011.61 869.917   2
  31 -20   3 163.955 1386.24   3
 -31  12  -4 202.624 595.068   2
  19 -31  -4 105.506 658.076   1
 -19 -12  -4 180.252 623.131   2
 -12  31  -4-465.044 497.779   4
 -19 -12  -4 298.885 579.634   1
 -31  12  -4-257.380 693.807   4
 -19 -12  -4 1703.46 835.397   4
 -19 -12  -1-67.0179 549.796   2
  12  19  -1 86.6190 548.522   3
 -12  31  -1-457.596 546.376   4
 -19 -12  -1 1209.56 673.923   1
 -31  12  -1 550.947 633.141   4
 -19 -12  -1-13.3566 598.374   4
 -31  12  -1 315.610 606.035   2
  19 -31  -1 750.050 690.492   1
 -19 -12   2 721.065 614.613   2
  12  19   2 202.734 609.332   3
 -12  31   2 386.397 588.648   3
 -12  31   2-2.89924 458.696   2
  19 -31   2 276.189 788.700   1
 -19 -12   2 84.4104 662.714   1
 -31  12   2 728.658 641.324   4
 -19 -12   2 1050.23 685.738   4
 -31  12   2 39.9025 655.053   2
 -19 -12   5 347.541 513.132   2
  12  19   5 380.774 821.029   3
  19 -31   5 368.459 810.965   1
 -12  31   5 572.757 646.440   3
 -12  31   5 391.193 614.272   2
 -31  12   5 324.141 600.900   4
 -19 -12   5 247.087 727.229   1
 -19 -12   5 238.202 539.729   4
 -31  12   5-819.422 742.504   2
  31 -19   5 78.7240 912.083   3
  31 -19   5 688.017 717.582   1
 -31  13  -5 1303.11 778.689   2
 -18 -13  -5 375.733 678.557   2
 -13  31  -5-27.9272 463.958   4
 -31  13  -5 448.243 651.350   4
  18 -31  -5 745.175 660.501   1
  18 -31  -2 1163.96 717.592   1
 -18 -13  -2 1613.40 696.304   2
  13  18  -2 2778.05 748.989   3
 -13  31  -2 2240.85 699.322   4
 -18 -13  -2 2112.61 692.070   1
 -31  13  -2 1879.97 725.729   4
 -18 -13  -2 1141.51 724.960   4
 -31  13  -2 2205.45 810.395   2
 -18 -13   1 1205.66 603.052   2
  13  18   1 2100.03 720.294   3
 -13  31   1 1576.68 667.637   3
 -13  31   1 3175.25 939.358   4
 -13  31   1 1912.84 562.423   2
  18 -31   1 1574.72 829.524   1
 -31  13   1 2921.53 816.928   4
 -18 -13   1 2136.30 805.324   1
 -18 -13   1 1002.79 642.044   4
 -31  13   1 2226.38 757.507   2
 -18 -13   4 2801.18 734.580   2
  13  18   4 2149.57 818.157   3
  18 -31   4 1925.89 882.904   1
 -13  31   4 3551.69 883.119   3
 -13  31   4 717.089 580.416   2
  31 -18   4 2576.75 910.423   1
 -31  13   4 2736.18 843.657   4
 -18 -13   4 3457.49 984.106   1
 -18 -13   4 1571.06 686.569   4
 -31  13   4 2895.84 829.037   2
  31 -18   4 2220.73 721.402   3
 -17 -14  -3 4497.12 950.050   2
 -14  31  -3 3785.33 791.940   4
  17 -31  -3 4087.07 955.395   1
 -31  14  -3 4350.76 956.606   4
 -17 -14  -3 4842.33 797.602   1
 -31  14  -3 3958.37 935.321   2
 -17 -14   0 1121.76 646.110   2
  14  17   0 2125.77 683.683   3
 -14  31   0 1806.76 668.957   3
 -14  31   0 1513.00 718.222   4
 -14  31   0 2331.91 561.575   2
  17 -31   0 2884.44 905.449   1
 -31  14   0 1760.66 709.712   4
 -17 -14   0 2033.98 730.975   1
 -17 -14   0 2113.61 776.937   4
 -31  14   0 2620.98 770.368   2
 -14  31   3 6085.39 1016.69   3
  14  17   3 4124.43 891.532   3
 -14  31   3 3116.36 897.530   4
 -17 -14   3 5794.09 1096.58   1
 -14  31   3 3316.12 776.966   2
 -31  14   3 5383.43 1007.04   4
  17 -31   3 5711.94 1165.70   1
 -31  14   3 6248.90 1027.72   2
 -17 -14   3 3830.84 836.218   4
  31 -17   3 5334.27 786.431   3
 -17 -14   3 5813.07 896.164   2
 -16 -15  -4 1119.11 698.615   2
 -15  31  -4 1011.51 626.594   4
 -31  15  -4 1614.95 734.474   4
 -16 -15  -4 1120.61 570.516   1
  16 -31  -4 1078.01 668.025   1
 -31  15  -4 391.319 671.411   2
 -16 -15  -1 352.321 542.887   2
  15  16  -1-261.588 499.976   3
 -15  31  -1 174.360 516.086   4
 -31  15  -1 231.734 547.254   4
 -15  31  -1 142.052 349.690   2
  16 -31  -1-305.204 679.309   1
 -16 -15  -1 827.503 556.751   1
 -31  15  -1 657.537 574.672   2
  16 -31   2 682.098 748.455   1
 -16 -15   2 171.243 473.155   2
  15  16   2 1476.80 704.523   3
 -15  31   2 1830.82 729.187   3
 -15  31   2 399.737 654.668   4
 -15  31   2 1487.94 627.174   2
 -31  15   2 1300.48 673.250   4
 -16 -15   2 2154.88 898.352   1
 -31  15   2 1490.78 736.787   2
 -16 -15   5-429.289 536.108   2
  15  16   5 69.4008 673.303   3
 -15  31   5 774.083 636.318   3
 -15  31   5 892.393 831.155   4
 -15  31   5 921.676 674.906   2
 -31  15   5 905.721 653.267   4
 -16 -15   5 146.011 762.747   1
 -31  15   5 1053.97 707.901   2
  31 -16   5 70.6841 578.516   3
  16 -31   5-1113.25 914.245   1
 -31  16  -5 362.816 695.854   2
  15 -31  -5 1224.39 721.088   1
 -16  31  -5 488.060 540.956   4
 -31  16  -5 57.4447 669.324   4
 -15 -16  -2 972.383 596.308   2
  16  15  -2 991.886 576.715   3
 -16  31  -2 383.225 587.195   4
 -31  16  -2 1416.62 735.808   4
 -15 -16  -2 641.759 581.794   1
  15 -31  -2 920.856 707.960   1
 -31  16  -2 1867.01 702.192   2
  15 -31   1 2250.46 845.292   1
 -15 -16   1 867.035 566.509   2
  16  15   1 986.322 641.617   3
 -16  31   1 791.048 571.506   3
 -16  31   1-316.079 589.502   4
 -16  31   1-66.3758 427.634   2
 -31  16   1 47.1565 561.646   4
 -15 -16   1-36.7334 658.232   1
 -31  16   1-40.9818 558.575   2
  16  15   4 60.5766 688.033   3
 -15 -16   4 1156.37 538.679   2
 -16  31   4 387.768 638.518   3
 -16  31   4 1335.29 735.585   4
 -16  31   4 681.497 613.750   2
 -31  16   4 172.836 582.156   4
 -15 -16   4-258.705 639.780   1
 -31  16   4 1379.07 694.713   2
  31 -15   4 747.776 566.422   3
  15 -31   4 1723.65 919.952   1
 -17  31  -3 4349.11 903.480   4
 -31  17  -3 5935.82 1071.86   4
 -14 -17  -3 4962.13 844.270   1
 -31  17  -3 5509.91 955.547   2
  14 -31  -3 5127.02 962.273   1
  14 -31   0 1195.17 709.421   1
  17  14   0 2071.04 749.299   3
 -14 -17   0 1128.30 601.415   2
 -17  31   0 2879.05 769.153   4
 -31  17   0 1602.58 760.664   4
 -17  31   0 1932.17 527.060   2
 -14 -17   0 1912.38 776.377   1
 -31  17   0 2191.70 740.786   2
  17  14   3 5436.68 967.291   3
 -17  31   3 5580.01 958.278   3
 -17  31   3 3110.74 892.618   4
 -17  31   3 3377.84 809.500   2
 -31  17   3 4032.74 912.175   4
 -14 -17   3 4721.14 1093.47   1
 -31  17   3 4569.29 942.522   2
  14 -31   3 1808.61 960.550   1
 -14 -17   3 4761.21 773.007   2
  13 -31  -4 1990.08 809.637   1
 -18  31  -4 1676.88 656.588   4
 -31  18  -4 2850.19 865.391   4
 -13 -18  -4 1889.31 625.580   1
 -31  18  -4 1530.57 712.026   2
  18  13  -1 1723.32 653.277   3
  13 -31  -1 1907.00 804.416   1
 -13 -18  -1 2088.28 697.674   2
 -18  31  -1 1128.38 612.989   4
 -31  18  -1 2403.64 712.871   4
 -18  31  -1 1648.17 478.009   2
 -13 -18  -1 2625.27 726.244   1
 -31  18  -1 2298.86 699.064   2
  18  13   2 2082.55 682.933   3
 -13 -18   2 3201.08 677.909   2
 -18  31   2 3756.24 772.684   3
 -18  31   2 2104.71 765.063   4
 -18  31   2 2176.41 633.732   2
 -31  18   2 1300.32 628.711   4
 -31  18   2 2570.90 785.351   2
 -13 -18   2 2913.42 936.867   1
  13 -31   2 3169.33 954.336   1
  18  13   5-550.251 670.431   3
 -18  31   5 40.5960 575.874   3
 -18  31   5 341.040 660.921   4
 -18  31   5-806.569 640.182   2
 -31  18   5 344.649 585.289   4
 -31  18   5 418.487 700.449   2
 -13 -18   5-402.469 764.795   1
  13 -31   5 511.797 810.525   1
  31 -13   5 654.118 596.472   3
 -31  19  -5-430.341 647.780   2
 -19  31  -5 275.112 546.343   4
 -31  19  -5 200.142 610.219   4
  12 -31  -5 733.420 565.861   1
  19  12  -2 935.804 564.801   3
 -19  31  -2 882.646 613.717   4
  12 -31  -2 933.984 653.731   1
 -31  19  -2 1984.40 778.085   4
 -19  31  -2 328.339 356.884   2
 -12 -19  -2 518.543 562.533   1
 -31  19  -2 966.965 597.027   2
  19  12   1-140.095 533.505   3
 -12 -19   1 907.019 585.770   2
 -19  31   1-1126.89 676.439   4
 -31  19   1 365.394 590.158   4
 -19  31   1 574.715 497.908   2
 -31  19   1 996.777 632.532   2
 -12 -19   1 117.746 578.715   1
  12 -31   1 898.724 865.994   1
  19  12   4 378.494 639.704   3
 -19  31   4 22.3003 547.828   3
 -19  31   4-220.232 623.553   4
 -19  31   4 1038.24 655.499   2
 -31  19   4-162.806 583.101   4
 -31  19   4 299.500 569.090   2
  12 -31   4-756.041 810.628   1
 -12 -19   4 44.5446 737.258   1
  31 -12   4 322.656 504.310   3
 -20  31  -3 1743.10 655.007   4
 -31  20  -3 2430.94 810.548   4
  11 -31  -3 1625.55 686.314   1
 -31  20  -3 1901.41 707.475   2
 -11 -20  -3 1411.77 594.576   1
  20  11   0 2607.97 651.423   3
 -20  31   0 2048.56 762.973   4
 -31  20   0 2465.33 855.825   4
 -20  31   0 1011.98 464.556   2
 -31  20   0 3414.64 851.117   2
 -11 -20   0 3109.59 838.439   1
  11 -31   0 2407.21 822.219   1
  20  11   3 4148.23 889.541   3
 -11 -20   3 2587.89 623.293   2
 -20  31   3 2264.99 674.946   3
 -20  31   3 1276.95 772.999   4
 -20  31   3 920.807 572.967   2
 -31  20   3 3458.81 867.961   4
 -31  20   3 4121.84 886.529   2
  11 -31   3 1343.14 790.328   1
 -11 -20   3 2253.29 913.848   1
 -21  31  -4-589.578 600.109   4
 -31  21  -4 1635.91 794.484   4
  10 -31  -4 1516.98 705.570   1
 -31  21  -4 628.127 625.126   2
  10 -31  -1 2068.17 781.740   1
  21  10  -1 3268.74 650.242   3
 -21  31  -1 2315.18 724.779   4
 -31  21  -1 3629.24 876.874   4
 -21  31  -1 2017.13 546.518   2
 -31  21  -1 2700.90 743.812   2
 -10 -21  -1 3227.55 855.512   1
  21  10   2 689.042 577.609   3
 -21  31   2 1781.37 695.698   3
 -21  31   2 1138.48 700.130   4
 -31  21   2 1502.18 683.217   4
 -21  31   2 1373.86 621.745   2
 -31  21   2 1381.61 747.443   2
  10 -31   2 435.368 734.037   1
 -10 -21   2 1391.88 784.232   1
  21  10   5 2140.51 842.546   3
 -21  31   5 1474.94 673.258   3
 -21  31   5 1224.28 859.248   4
 -21  31   5 1277.35 718.463   2
 -31  21   5 1668.99 787.573   4
  10 -31   5 577.445 811.293   1
 -31  21   5 1968.06 823.855   2
 -10 -21   5 504.099 804.284   1
  31 -10   5 2362.31 770.498   3
 -31  22  -5 25.4471 598.603   2
 -22  31  -5 818.314 631.502   4
 -31  22  -5 30.5337 563.636   4
   9 -31  -2 419.082 588.458   1
 -22  31  -2-36.7886 493.669   4
 -31  22  -2-95.3383 593.608   4
 -22  31  -2 339.082 425.217   2
 -31  22  -2 428.138 563.693   2
  -9 -22  -2-93.0714 526.621   1
  22   9   1 141.982 499.265   3
 -22  31   1 1373.13 720.667   4
 -31  22   1 1454.40 654.875   4
 -22  31   1-195.812 513.658   2
 -31  22   1-183.483 613.778   2
   9 -31   1-97.8882 678.324   1
  -9 -22   1-245.160 637.911   1
  22   9   4 1465.13 707.580   3
 -22  31   4 1941.03 689.652   3
 -22  31   4 1464.66 742.672   4
 -31  22   4 209.255 709.452   4
 -22  31   4 976.422 637.901   2
   9 -31   4-17.8612 802.850   1
 -31  22   4 1171.13 693.238   2
  -9 -22   4 411.927 728.799   1
  -8 -23  -3 2480.91 704.740   1
   8 -31  -3 2845.64 756.781   1
 -23  31  -3 2192.16 757.620   4
 -31  23  -3 2317.25 786.736   4
 -31  23  -3 2419.72 751.881   2
  23   8   0 591.779 505.498   3
 -23  31   0 1948.89 703.855   4
 -31  23   0 496.497 587.886   4
 -23  31   0 138.358 469.187   2
 -31  23   0-365.067 576.133   2
   8 -31   0 355.200 691.643   1
  -8 -23   0 1103.71 742.246   1
  23   8   3 1309.04 691.588   3
 -23  31   3 1155.79 569.211   3
 -23  31   3 248.594 693.446   4
 -31  23   3 1401.07 694.531   4
 -23  31   3 1476.89 639.908   2
   8 -31   3 1783.41 864.828   1
 -31  23   3 1176.39 718.848   2
  -8 -23   3 2693.76 926.615   1
 -24  31  -4 2034.80 740.136   4
   7 -31  -4 1088.40 638.993   1
 -31  24  -4 3454.19 899.061   4
 -31  24  -4 2125.06 730.858   2
  -7 -24  -1 1063.88 673.112   1
  24   7  -1 1020.94 516.537   3
 -24  31  -1 474.476 588.982   4
 -31  24  -1 1060.54 730.102   4
 -24  31  -1 1180.81 505.660   2
 -31  24  -1 2967.98 835.260   2
   7 -31  -1-242.204 715.733   1
  24   7   2 697.356 543.633   3
 -24  31   2 988.172 681.106   4
 -31  24   2-561.144 593.889   4
 -24  31   2-199.493 490.189   2
   7 -31   2 1532.08 841.413   1
 -31  24   2 253.961 579.540   2
  -7 -24   2-716.918 736.299   1
  -6 -25  -2-81.5162 624.414   1
 -25  31  -2-80.0787 574.122   4
 -31  25  -2 117.198 590.786   4
 -25  31  -2 142.661 420.904   2
 -31  25  -2-499.655 564.305   2
   6 -31  -2 519.568 649.907   1
  -6 -25   1 1887.89 794.766   1
  25   6   1 773.627 551.883   3
 -25  31   1-249.512 605.978   4
 -31  25   1 1701.33 745.618   4
   6 -31   1 1931.73 818.586   1
 -25  31   1 1256.57 608.571   2
 -31  25   1 451.235 584.045   2
  -6 -25   4 1309.15 939.236   1
  25   6   4 85.1495 636.923   3
 -25  31   4-86.4778 552.175   3
 -25  31   4-699.418 708.927   4
 -31  25   4 517.911 676.288   4
   6 -31   4 74.2243 784.989   1
 -25  31   4 214.546 587.526   2
 -31  25   4 1052.14 715.366   2
   5 -31  -3 917.330 708.681   1
  -5 -26  -3 1386.05 655.520   1
 -26  31  -3 754.874 622.606   4
 -31  26  -3 631.847 645.066   4
 -31  26  -3 1573.90 652.668   2
  -5 -26   0 853.077 747.548   1
 -26  31   0 1405.88 715.324   4
 -31  26   0 1252.43 723.116   4
   5 -31   0 1982.17 807.482   1
 -26  31   0-16.8081 495.200   2
 -31  26   0 862.017 621.081   2
  -5 -26   3 2273.34 893.513   1
  26   5   3 2674.18 737.358   3
 -26  31   3 3435.14 964.258   4
 -31  26   3 1724.33 784.629   4
   5 -31   3 2108.10 886.983   1
 -26  31   3 1788.10 733.247   2
 -31  26   3 1207.62 726.204   2
  -4 -27  -1 1080.50 811.401   1
 -27  31  -1 1420.44 794.268   4
 -31  27  -1 1157.75 776.574   4
   4 -31  -1 691.124 717.338   1
 -27  31  -1 1147.58 596.411   2
 -31  27  -1 639.522 607.976   2
  -4 -27   2 2626.99 947.864   1
  27   4   2 158.620 549.744   3
 -27  31   2-36.9350 643.452   4
 -31  27   2 2178.05 895.011   4
   4 -31   2-298.395 722.321   1
 -27  31   2 788.579 617.892   2
 -31  27   2-549.470 572.646   2
  -3 -28  -2-455.474 615.118   1
 -28  31  -2 951.979 726.550   4
 -31  28  -2 625.763 624.521   4
   3 -31  -2-548.856 648.791   1
 -28  31  -2 19.8962 497.990   2
 -31  28  -2 109.294 566.371   2
  -3 -28   1 1631.68 798.465   1
 -28  31   1 359.277 649.093   4
 -31  28   1 926.705 773.472   4
   3 -31   1 2176.18 927.099   1
 -28  31   1 957.435 629.699   2
 -31  28   1 371.365 639.200   2
  -2 -29   0 591.248 724.953   1
 -29  31   0-929.442 699.555   4
 -31  29   0 1656.71 803.674   4
   2 -31   0-424.243 698.429   1
 -29  31   0 876.996 602.376   2
 -31  29   0 775.087 714.671   2
 -28  -4   0-444.063 705.467   2
  28 -32   0 646.817 924.789   1
   4  28   0 312.574 704.044   3
  -4  32   0-75.6526 755.756   3
 -32   4   0 27.5677 661.321   4
  32 -28   0 645.860 818.710   1
 -28  -4   0 1691.64 922.896   4
 -32   4   0 847.866 736.189   2
 -27  -5  -1 1645.11 827.964   2
  27 -32  -1 1339.59 894.568   1
   5  27  -1 1268.01 818.004   3
  -5  32  -1 487.885 665.671   3
 -32   5  -1 1130.84 759.797   4
 -27  -5  -1 2836.19 978.949   4
  32 -27  -1 951.662 916.697   1
 -32   5  -1-325.559 674.940   2
   5  27   2 91.8519 690.488   3
  -5  32   2 1131.98 804.980   3
  27 -32   2-1161.17 978.719   1
 -32   5   2 173.006 653.597   4
 -27  -5   2-74.7530 662.540   4
 -32   5   2-278.088 725.798   2
  32 -27   2 358.706 882.015   1
 -27  -5   2 322.907 608.270   2
 -26  -6  -2 549.976 732.123   2
   6  26  -2 978.322 744.893   3
  26 -32  -2 499.794 792.960   1
 -32   6  -2 1438.68 823.932   4
 -32   6  -2 1255.17 743.686   2
 -26  -6   1 815.856 688.435   2
   6  26   1 916.070 752.896   3
  -6  32   1 566.326 673.277   3
  32 -26   1 770.365 787.962   1
  26 -32   1 1590.00 947.659   1
 -32   6   1 264.957 634.382   4
 -26  -6   1 1031.54 708.127   4
 -32   6   1 656.476 737.829   2
 -32   7  -3-427.513 756.851   2
 -25  -7  -3-222.953 718.795   2
  -7  32  -3-229.031 557.836   4
 -32   7  -3 74.1621 694.560   4
  25 -32  -3-399.442 800.551   1
 -25  -7  -3 1184.78 815.380   4
 -25  -7   0 491.271 733.959   2
  32 -25   0 1450.46 804.523   1
   7  25   0 1539.88 829.974   3
  -7  32   0 1497.03 805.315   3
 -32   7   0 566.000 722.765   4
  25 -32   0 198.734 745.499   1
 -25  -7   0 1817.71 833.449   4
 -32   7   0 2633.29 832.956   2
   7  25   3 1031.22 790.507   3
  -7  32   3-130.247 692.116   3
 -25  -7   3-148.909 751.874   1
 -32   7   3 432.783 621.438   4
 -25  -7   3-405.654 669.230   4
  32 -25   3 1212.11 1748.63   3
 -32   7   3 485.227 699.864   2
  32 -25   3 555.498 845.668   1
 -25  -7   3 1464.60 742.377   2
  25 -32   3-353.037 799.637   1
 -32   8  -4 576.349 800.942   2
 -24  -8  -4 710.775 720.705   2
  -8  32  -4 727.891 591.622   4
 -24  -8  -4 844.425 637.562   1
 -32   8  -4-223.536 776.462   4
 -24  -8  -4 67.1436 794.376   4
 -24  -8  -1-182.211 600.579   2
   8  24  -1 1701.71 758.161   3
 -24  -8  -1 174.305 685.868   1
 -32   8  -1-108.775 672.922   4
 -24  -8  -1 85.2152 651.461   4
  24 -32  -1 1137.21 938.306   1
 -32   8  -1-166.417 612.860   2
 -24  -8   2 874.661 734.449   2
   8  24   2-629.291 779.788   3
  -8  32   2-172.298 658.046   3
 -24  -8   2 1006.59 775.467   1
 -32   8   2 618.685 611.755   4
  32 -24   2-636.114 751.358   1
 -24  -8   2 454.829 633.585   4
 -32   8   2 962.052 700.769   2
  24 -32   2-92.5808 783.703   1
 -23  -9  -2 1615.74 796.497   2
   9  23  -2 124.598 643.396   3
  -9  32  -2-302.128 585.541   4
 -23  -9  -2 721.779 631.777   1
 -32   9  -2 880.878 728.673   4
 -23  -9  -2-86.2492 723.811   4
  23 -32  -2-131.402 735.169   1
 -32   9  -2 737.287 747.195   2
  23 -32   1 2001.39 949.145   1
 -23  -9   1 354.481 560.194   2
  32 -23   1 1151.89 773.716   1
   9  23   1 462.738 658.399   3
  -9  32   1 1546.40 789.706   3
  -9  32   1-80.8565 457.989   2
 -23  -9   1 593.414 630.315   1
 -32   9   1 673.039 663.714   4
 -23  -9   1 1467.61 742.757   4
 -32   9   1 494.469 590.052   2
   9  23   4 1433.82 874.116   3
  32 -23   4 3818.88 1142.21   1
  -9  32   4 3011.18 878.188   3
 -23  -9   4 689.563 861.688   1
 -32   9   4 2606.66 898.482   4
  23 -32   4 1678.84 1069.63   1
 -23  -9   4 2188.92 763.604   4
  32 -23   4 94.9780 2068.13   3
 -32   9   4 3319.76 974.582   2
 -23  -9   4 3429.76 843.127   2
  22 -32  -3 1921.00 837.659   1
 -22 -10  -3 830.033 721.436   2
 -10  32  -3 1366.59 671.653   4
 -22 -10  -3 34.7912 655.682   1
 -32  10  -3 1130.11 820.913   4
 -22 -10  -3-142.939 737.950   4
 -32  10  -3-276.575 712.219   2
  22 -32   0 1562.43 840.796   1
 -22 -10   0 3190.56 818.042   2
 -10  32   0 5390.06 1047.56   3
  10  22   0 2400.68 842.322   3
 -10  32   0 1868.09 518.395   2
 -22 -10   0 4654.88 1009.63   1
 -32  10   0 5517.55 1065.21   4
 -22 -10   0 3279.62 915.471   4
 -32  10   0 3256.20 868.635   2
 -22 -10   3 1130.09 674.233   2
  10  22   3 647.700 743.194   3
 -10  32   3 2790.24 872.263   3
 -22 -10   3 444.142 680.858   1
 -32  10   3 665.237 647.532   4
  22 -32   3-1014.39 867.934   1
 -22 -10   3-300.042 732.824   4
 -32  10   3 344.890 638.243   2
  32 -22   3 1859.30 940.501   1
 -32  11  -4 287.526 711.253   2
 -21 -11  -4 789.784 733.405   2
 -11  32  -4 379.585 541.407   4
  21 -32  -4-628.836 636.272   1
 -21 -11  -4 288.084 555.874   1
 -32  11  -4 997.362 738.055   4
 -21 -11  -4 822.473 825.465   4
 -21 -11  -1 1562.36 708.800   2
  21 -32  -1 2408.18 907.441   1
  11  21  -1 992.307 660.188   3
 -11  32  -1 813.981 614.036   4
 -21 -11  -1 965.227 700.625   1
 -32  11  -1 865.298 693.939   4
 -21 -11  -1 1794.73 799.596   4
 -32  11  -1 1061.59 706.068   2
 -21 -11   2 1015.46 653.290   2
  11  21   2-251.893 616.002   3
 -11  32   2 618.739 711.201   3
 -11  32   2-125.806 501.566   2
  32 -21   2-448.972 710.391   1
 -21 -11   2 371.256 676.170   1
 -32  11   2 531.343 668.968   4
  21 -32   2 445.268 782.021   1
 -21 -11   2-265.449 635.322   4
 -32  11   2 1247.18 636.388   2
 -20 -12  -2 1287.63 665.141   2
  12  20  -2 2717.08 783.730   3
 -12  32  -2 885.355 633.459   4
  20 -32  -2 2723.59 937.931   1
 -20 -12  -2 2055.87 707.800   1
 -32  12  -2 2444.66 894.612   4
 -20 -12  -2 3768.89 1026.64   4
 -32  12  -2 1210.84 733.956   2
 -20 -12   1 389.931 575.614   2
  12  20   1 1486.05 779.395   3
 -12  32   1-271.179 609.370   3
 -12  32   1 701.262 647.565   4
 -12  32   1 278.968 424.553   2
 -20 -12   1 362.991 678.504   1
 -32  12   1 1148.18 643.775   4
  20 -32   1-377.055 746.648   1
 -20 -12   1 1281.31 723.457   4
 -32  12   1 960.089 677.546   2
 -20 -12   4 1494.95 684.209   2
  12  20   4 489.409 708.190   3
 -12  32   4 1263.94 702.056   3
  20 -32   4 1288.10 923.954   1
 -12  32   4-503.401 655.280   2
 -32  12   4 255.859 596.674   4
  32 -20   4 982.577 791.509   1
 -20 -12   4 418.119 752.947   1
 -20 -12   4 789.998 634.933   4
 -32  12   4-424.838 653.653   2
  32 -20   4 1357.06 995.745   3
 -19 -13  -3 1623.85 736.619   2
 -13  32  -3-225.061 605.748   4
 -19 -13  -3 635.396 545.913   1
 -32  13  -3 416.577 782.166   4
 -19 -13  -3 857.399 671.550   4
  19 -32  -3 1063.89 744.262   1
 -32  13  -3 414.911 676.616   2
 -19 -13   0 3377.68 887.462   2
  13  19   0 5430.77 916.879   3
 -13  32   0 4314.66 934.982   3
 -13  32   0 1808.96 789.466   4
 -19 -13   0 5120.71 978.326   1
 -13  32   0 2438.66 543.873   2
 -32  13   0 4845.31 981.191   4
  19 -32   0 4140.49 1033.75   1
 -19 -13   0 4667.49 1010.65   4
 -32  13   0 5042.45 963.263   2
 -19 -13   3 916.906 602.250   2
  13  19   3-822.483 733.077   3
 -13  32   3 903.317 610.255   3
  19 -32   3 28.4002 732.148   1
 -13  32   3-172.046 530.826   2
 -32  13   3-14.8495 595.866   4
 -19 -13   3 571.314 712.923   1
 -19 -13   3 1114.26 684.718   4
 -32  13   3 232.424 568.241   2
 -32  14  -4-339.199 650.838   2
 -18 -14  -4-1227.08 735.039   2
 -14  32  -4-251.210 565.457   4
 -32  14  -4 610.631 717.484   4
 -18 -14  -4 148.959 540.061   1
  18 -32  -4-692.166 666.361   1
 -18 -14  -1-61.5182 563.019   2
  14  18  -1 470.968 604.219   3
 -14  32  -1 227.239 537.393   4
 -32  14  -1 644.422 551.788   4
 -18 -14  -1 1873.17 718.304   1
 -18 -14  -1 1.13874 632.704   4
  18 -32  -1 1504.12 850.555   1
 -32  14  -1 680.957 643.498   2
 -18 -14   2 693.778 623.733   2
  14  18   2 322.939 648.822   3
 -14  32   2 278.501 581.853   3
  18 -32   2 944.267 812.080   1
 -14  32   2 26.8555 597.876   4
 -14  32   2 352.705 515.863   2
 -32  14   2-183.079 658.739   4
 -18 -14   2 999.121 754.334   1
 -18 -14   2-145.347 545.234   4
 -32  14   2-227.383 603.483   2
 -18 -14   5 290.237 537.630   2
  18 -32   5 114.105 817.050   1
  14  18   5 197.754 690.420   3
 -14  32   5 411.762 658.144   3
 -14  32   5-353.121 678.729   4
 -14  32   5-96.4187 631.304   2
  32 -18   5 1651.67 857.001   1
 -32  14   5-536.643 601.456   4
 -18 -14   5-213.930 767.502   1
 -32  14   5 112.905 674.258   2
  32 -18   5 549.330 684.813   3
 -32  15  -5 404.762 695.057   2
 -15  32  -5-240.917 511.974   4
  17 -32  -5-134.184 628.963   1
 -32  15  -5 1328.83 722.031   4
 -17 -15  -2 597.217 675.099   2
  15  17  -2 658.776 615.847   3
 -15  32  -2 584.064 579.705   4
 -32  15  -2 1484.92 770.808   4
 -17 -15  -2 239.191 602.237   1
 -32  15  -2 1350.22 729.044   2
  17 -32  -2 128.447 679.014   1
 -17 -15   1 1480.91 633.815   2
  15  17   1 1493.39 729.281   3
 -15  32   1 1486.39 661.906   3
 -15  32   1 619.152 606.303   4
  17 -32   1 429.721 693.229   1
 -15  32   1 978.312 501.478   2
 -32  15   1 2601.56 812.875   4
 -17 -15   1-28.8290 621.878   1
 -17 -15   1 1062.46 646.206   4
 -32  15   1 486.470 608.809   2
  17 -32   4 1617.39 930.071   1
 -17 -15   4 51.6208 471.597   2
  15  17   4 1015.93 783.543   3
 -15  32   4 1015.81 713.154   3
 -15  32   4-1028.68 815.309   4
 -15  32   4-150.923 576.970   2
 -32  15   4 147.879 659.280   4
 -17 -15   4 957.994 779.762   1
 -32  15   4 1160.38 710.959   2
  32 -17   4 318.641 606.245   3
  16 -32  -3-606.391 640.363   1
 -16 -16  -3-441.286 709.766   2
 -16  32  -3 407.922 542.516   4
 -32  16  -3 637.094 694.086   4
 -16 -16  -3-109.403 537.539   1
 -32  16  -3 289.108 563.709   2
 -16 -16   0 4533.67 831.354   2
  16  16   0 4560.48 824.204   3
 -16  32   0 3972.88 919.318   4
 -16  32   0 4166.45 674.156   2
  16 -32   0 3291.78 929.834   1
 -32  16   0 5281.23 983.941   4
 -16 -16   0 4478.62 895.546   1
 -32  16   0 5188.07 978.049   2
  16 -32   3 641.622 836.933   1
  16  16   3 139.356 606.168   3
 -16 -16   3-200.909 527.684   2
 -16  32   3-813.354 621.958   3
 -16  32   3 808.864 701.023   4
 -16  32   3 1663.19 697.557   2
 -32  16   3 98.4637 590.881   4
 -16 -16   3 1138.07 825.956   1
 -32  16   3 336.030 710.124   2
 -17  32  -4 677.718 638.785   4
 -32  17  -4 1428.65 774.624   4
  15 -32  -4-47.1851 624.891   1
 -15 -17  -4 396.832 511.211   1
 -32  17  -4 1711.38 806.650   2
 -15 -17  -1 1079.82 631.490   2
  17  15  -1 899.833 590.105   3
 -17  32  -1 902.631 589.542   4
  15 -32  -1 631.581 658.056   1
 -32  17  -1 1861.20 737.121   4
 -17  32  -1 385.100 383.199   2
 -15 -17  -1 1189.31 656.797   1
 -32  17  -1 1060.91 599.607   2
  15 -32   2 874.481 840.542   1
  17  15   2 1746.26 768.509   3
 -15 -17   2 207.040 498.985   2
 -17  32   2 1417.05 702.940   3
 -17  32   2-723.804 619.576   4
 -17  32   2 383.773 491.177   2
 -32  17   2 677.131 656.580   4
 -15 -17   2 1623.35 841.901   1
 -32  17   2 487.034 644.142   2
  17  15   5-398.909 658.667   3
 -17  32   5 1207.95 740.457   3
 -17  32   5-842.398 779.981   4
 -17  32   5-111.996 614.149   2
 -32  17   5 660.607 647.913   4
 -32  17   5 321.610 655.366   2
 -15 -17   5 769.339 817.829   1
  32 -15   5 1173.77 677.495   3
  15 -32   5-404.748 849.645   1
 -32  18  -5 71.6349 688.129   2
 -18  32  -5-608.147 612.951   4
 -32  18  -5 719.816 698.633   4
  14 -32  -5 312.202 622.564   1
  18  14  -2 837.868 564.648   3
 -18  32  -2-299.089 549.584   4
 -32  18  -2 1224.70 702.038   4
  14 -32  -2 578.307 654.173   1
 -14 -18  -2-337.478 587.663   1
 -32  18  -2 645.514 630.960   2
  14 -32   1 422.821 711.169   1
  18  14   1-337.018 626.110   3
 -14 -18   1 104.836 477.544   2
 -18  32   1 566.765 584.315   3
 -18  32   1-110.653 586.098   4
 -18  32   1-399.334 498.749   2
 -32  18   1 207.759 528.471   4
 -14 -18   1-25.7774 623.179   1
 -32  18   1-123.711 610.807   2
  18  14   4 310.508 655.543   3
 -18  32   4 522.829 651.593   3
 -18  32   4 347.957 670.006   4
 -18  32   4-551.538 597.679   2
 -32  18   4-216.971 593.213   4
 -32  18   4 278.798 648.260   2
 -14 -18   4 39.6082 693.940   1
  14 -32   4 58.8015 806.745   1
 -19  32  -3-836.261 507.573   4
 -32  19  -3-41.9876 600.099   4
  13 -32  -3 708.156 638.624   1
 -13 -19  -3-1060.27 623.624   1
 -32  19  -3-51.6970 627.076   2
  13 -32   0 4586.43 1018.88   1
  19  13   0 4655.87 816.652   3
 -13 -19   0 3659.93 792.467   2
 -19  32   0 4502.15 931.955   4
 -19  32   0 4359.23 698.399   2
 -32  19   0 5355.27 1032.36   4
 -13 -19   0 5007.81 940.166   1
 -32  19   0 4382.02 885.199   2
  19  13   3 164.706 631.380   3
 -13 -19   3 1188.70 552.475   2
 -19  32   3 516.809 622.113   3
 -19  32   3 697.798 708.702   4
 -19  32   3 543.315 592.943   2
 -32  19   3 288.725 760.723   4
 -32  19   3 1645.38 781.191   2
 -13 -19   3 721.798 723.358   1
  13 -32   3 744.648 767.764   1
  12 -32  -4 366.978 601.738   1
 -20  32  -4 242.007 563.979   4
 -32  20  -4 1037.81 771.007   4
 -32  20  -4 985.657 739.093   2
  12 -32  -1 186.534 627.156   1
  20  12  -1 799.571 603.370   3
 -20  32  -1 1194.12 723.272   4
 -32  20  -1 1054.23 679.504   4
 -20  32  -1 1127.43 466.754   2
 -32  20  -1 1198.76 705.494   2
 -12 -20  -1 1327.23 683.358   1
  20  12   2 2102.80 714.298   3
 -12 -20   2 1883.23 590.505   2
 -20  32   2 2420.79 747.269   3
 -20  32   2 2033.28 789.095   4
 -32  20   2 1651.48 739.237   4
 -20  32   2 1229.56 635.748   2
 -32  20   2 1881.65 788.551   2
 -12 -20   2 1185.63 782.244   1
  12 -32   2 1963.06 940.995   1
  11 -32  -2-468.154 711.341   1
 -21  32  -2 297.699 597.261   4
 -32  21  -2 65.1571 579.276   4
 -32  21  -2-64.6123 588.905   2
 -11 -21  -2 345.146 603.777   1
  21  11   1 686.076 571.614   3
 -21  32   1 153.222 629.233   4
 -32  21   1 1454.26 695.636   4
 -21  32   1 329.945 489.754   2
 -32  21   1 603.150 683.392   2
 -11 -21   1 660.564 731.964   1
  11 -32   1 430.552 670.794   1
  21  11   4 741.253 650.182   3
 -21  32   4 322.295 596.913   3
 -21  32   4-758.006 775.726   4
 -21  32   4 1433.16 685.952   2
 -32  21   4 591.490 607.665   4
 -32  21   4 674.738 687.190   2
  11 -32   4 179.486 824.629   1
 -11 -21   4 558.996 828.749   1
 -10 -22  -3 830.022 574.021   1
 -22  32  -3 660.178 581.091   4
  10 -32  -3 759.298 620.609   1
 -32  22  -3 1060.37 717.288   4
 -32  22  -3 71.9685 637.181   2
  22  10   0 3471.76 732.732   3
 -22  32   0 3527.58 883.144   4
 -32  22   0 3880.01 959.173   4
 -10 -22   0 4914.60 959.741   1
 -22  32   0 1920.58 613.696   2
 -32  22   0 3951.07 934.862   2
  10 -32   0 2204.38 880.555   1
  22  10   3 419.405 624.148   3
 -22  32   3 1012.50 636.532   3
 -22  32   3 1408.45 731.807   4
 -32  22   3 1768.18 790.531   4
 -22  32   3 535.152 601.719   2
 -32  22   3 129.930 648.306   2
  10 -32   3-174.988 770.823   1
 -10 -22   3 210.432 698.461   1
 -23  32  -4 2881.33 811.499   4
 -32  23  -4 2507.24 856.410   4
   9 -32  -4 905.532 672.652   1
 -32  23  -4 1503.94 705.197   2
  23   9  -1 686.190 526.312   3
 -23  32  -1 1145.79 651.307   4
 -32  23  -1 338.120 652.137   4
 -23  32  -1-162.242 451.118   2
 -32  23  -1 650.417 645.531   2
   9 -32  -1 56.1976 734.025   1
  -9 -23  -1 1246.56 735.472   1
  23   9   2 1084.03 634.542   3
 -23  32   2 691.720 658.185   4
 -32  23   2-38.1958 567.223   4
 -23  32   2 512.410 561.805   2
   9 -32   2 482.825 801.544   1
 -32  23   2 4.13786 613.540   2
  -9 -23   2 833.641 818.217   1
   8 -32  -2-654.770 688.276   1
  -8 -24  -2-353.402 616.268   1
 -24  32  -2-534.148 630.754   4
 -32  24  -2-1026.76 696.771   4
 -24  32  -2-113.331 429.413   2
 -32  24  -2-411.832 623.203   2
  24   8   1-569.674 565.394   3
 -24  32   1 1007.57 694.311   4
 -32  24   1-18.5578 593.174   4
 -24  32   1 532.071 563.120   2
   8 -32   1-576.928 775.056   1
 -32  24   1 780.887 666.858   2
  -8 -24   1 686.934 687.812   1
 -24  32   4 2.46868 661.525   4
 -32  24   4 365.982 665.644   4
   8 -32   4-225.083 918.522   1
 -32  24   4-85.7066 749.734   2
  -8 -24   4 764.383 839.362   1
   7 -32  -3-555.221 663.249   1
  -7 -25  -3 345.683 598.901   1
 -25  32  -3 2189.82 745.621   4
 -32  25  -3 934.217 717.125   4
 -32  25  -3 2145.77 756.559   2
  -7 -25   0 2779.05 797.437   1
 -25  32   0 1810.23 786.701   4
 -32  25   0 2061.35 820.348   4
 -25  32   0 1137.14 575.641   2
   7 -32   0 1362.91 808.639   1
 -32  25   0 2426.95 833.211   2
  25   7   3 1013.25 665.088   3
 -25  32   3-706.271 692.977   4
 -32  25   3 811.209 717.617   4
 -25  32   3-312.910 603.047   2
   7 -32   3 253.761 790.644   1
 -32  25   3 621.536 682.291   2
  -7 -25   3 467.378 751.464   1
  -6 -26  -1 934.951 755.926   1
 -26  32  -1 1188.56 709.651   4
 -32  26  -1-99.7564 587.148   4
 -26  32  -1 437.459 478.072   2
   6 -32  -1 1767.83 876.306   1
 -32  26  -1 668.239 564.982   2
  -6 -26   2 1014.01 793.223   1
  26   6   2 1207.10 569.493   3
 -26  32   2 374.173 718.287   4
 -32  26   2 645.623 677.122   4
   6 -32   2 1123.35 858.100   1
 -26  32   2 1315.56 673.590   2
 -32  26   2 1349.99 736.457   2
  -5 -27  -2-327.483 637.636   1
 -27  32  -2 735.615 737.978   4
 -32  27  -2-400.855 629.803   4
 -27  32  -2-613.873 543.027   2
 -32  27  -2-334.737 565.529   2
   5 -32  -2-52.5422 636.941   1
  -5 -27   1 706.410 697.454   1
 -27  32   1-533.465 687.116   4
 -32  27   1 530.474 660.310   4
   5 -32   1 1036.76 827.420   1
 -27  32   1 1481.81 711.733   2
 -32  27   1 1902.97 861.890   2
  -4 -28   0 736.057 888.344   1
 -28  32   0-51.3126 625.323   4
 -32  28   0-359.836 707.323   4
   4 -32   0 251.514 784.688   1
 -28  32   0 43.0116 496.622   2
 -32  28   0-484.976 681.244   2
 -26  -7  -1 49.4242 753.104   2
   7  26  -1-538.256 727.695   3
 -33   7  -1 522.737 707.831   4
 -26  -7  -1 1059.31 860.325   4
 -33   7  -1-9.78102 651.916   2
  26 -33  -1-139.021 883.682   1
  25 -33  -2-1288.77 996.161   1
 -25  -8  -2-157.735 629.785   2
   8  25  -2 827.468 761.587   3
 -25  -8  -2 1236.54 796.257   1
 -33   8  -2 1162.46 808.954   4
 -25  -8  -2 556.047 827.928   4
 -33   8  -2-741.280 829.767   2
 -25  -8   1 4081.36 932.732   2
   8  25   1 2197.21 904.743   3
  -8  33   1 1936.87 833.237   3
  25 -33   1 2440.18 1073.37   1
 -25  -8   1 1342.93 773.152   1
 -33   8   1 3737.40 981.286   4
 -25  -8   1 5256.37 1142.51   4
  33 -25   1 2698.00 997.978   1
 -33   8   1 2970.25 956.509   2
  -9  33  -3 293.284 646.613   4
 -24  -9  -3 2739.20 848.438   1
 -33   9  -3 1967.38 881.679   4
 -24  -9  -3 1129.48 897.542   4
 -24  -9   0 888.623 694.194   2
   9  24   0-76.0660 715.342   3
  -9  33   0 586.188 666.427   3
  24 -33   0-303.213 821.356   1
 -24  -9   0 441.205 657.177   1
 -33   9   0-84.4813 674.240   4
 -24  -9   0 1705.18 825.153   4
 -33   9   0 2158.65 881.181   2
 -24  -9   3 1848.20 753.129   2
 -24  -9   3 1426.50 975.519   1
 -33   9   3 2678.95 870.685   4
 -24  -9   3 742.417 702.495   4
  33 -24   3 1808.19 982.731   1
 -33   9   3 1770.73 753.183   2
  10  23  -1 428.666 701.515   3
 -10  33  -1 135.691 698.402   4
 -23 -10  -1 324.423 720.460   1
  23 -33  -1 135.745 728.670   1
 -33  10  -1 114.297 670.964   4
 -23 -10  -1-142.317 701.981   4
 -33  10  -1 300.727 708.742   2
 -23 -10   2-97.4239 587.773   2
  10  23   2 1629.03 813.317   3
 -10  33   2 305.848 688.191   3
 -10  33   2 92.7548 498.659   2
 -23 -10   2 283.073 742.687   1
 -33  10   2 1040.43 745.328   4
 -23 -10   2-410.030 712.119   4
  23 -33   2-479.560 827.007   1
 -33  10   2-625.883 648.928   2
  33 -23   2 346.814 811.675   1
 -22 -11  -2 1019.24 794.888   2
  11  22  -2 721.052 668.299   3
 -11  33  -2 192.964 563.167   4
 -22 -11  -2 763.688 670.986   1
 -33  11  -2-150.962 675.117   4
 -22 -11  -2 1271.82 811.151   4
  22 -33  -2 123.596 707.601   1
 -33  11  -2 932.785 705.148   2
 -22 -11   1 3473.34 841.576   2
  11  22   1 2336.88 802.300   3
 -11  33   1 2373.03 892.801   3
 -11  33   1 937.237 531.518   2
 -22 -11   1 2404.82 886.797   1
 -33  11   1 3107.30 942.355   4
 -22 -11   1 3083.24 874.895   4
 -33  11   1 1647.07 750.162   2
  22 -33   1 1549.93 937.763   1
 -21 -12  -3 2946.56 937.942   2
 -21 -12  -3 5631.62 959.162   1
 -12  33  -3 2473.69 796.093   4
 -33  12  -3 2610.69 900.478   4
 -21 -12  -3 5171.89 1168.54   4
  21 -33  -3 2642.60 933.517   1
 -33  12  -3 5098.04 1105.42   2
 -21 -12   0 1260.10 728.174   2
  12  21   0 1366.97 654.595   3
 -12  33   0 932.764 694.762   3
 -12  33   0 1291.67 745.773   4
 -21 -12   0 1160.08 695.674   1
 -33  12   0 2082.82 780.589   4
 -21 -12   0 1423.10 727.738   4
 -33  12   0 1255.52 699.999   2
  21 -33   0 371.365 763.644   1
 -21 -12   3 2346.20 745.872   2
  12  21   3 3697.83 922.917   3
  33 -21   3 3247.64 1046.97   1
 -12  33   3 2278.49 750.165   3
 -12  33   3 1101.99 645.133   2
  21 -33   3 2412.25 1015.20   1
 -21 -12   3 1750.20 917.225   1
 -33  12   3 1896.70 846.402   4
 -21 -12   3 1701.56 703.368   4
 -33  12   3 3454.85 947.076   2
 -33  13  -4 374.736 703.499   2
 -20 -13  -4 447.435 757.655   2
  20 -33  -4-433.392 754.826   1
 -13  33  -4 250.864 542.315   4
 -33  13  -4 826.301 825.068   4
 -20 -13  -4-346.130 550.491   1
 -20 -13  -4 251.541 787.741   4
  20 -33  -1 525.124 790.394   1
 -20 -13  -1 18.4730 612.594   2
  13  20  -1-112.181 591.163   3
 -13  33  -1-408.617 603.574   4
 -20 -13  -1 172.681 620.637   1
 -33  13  -1-133.556 660.417   4
 -20 -13  -1 338.157 693.198   4
 -33  13  -1 618.168 692.949   2
 -20 -13   2 1513.84 669.653   2
  13  20   2 380.380 687.771   3
 -13  33   2 644.151 642.374   3
 -13  33   2 564.497 702.511   4
 -13  33   2 754.806 560.941   2
  20 -33   2 1162.93 848.335   1
 -33  13   2 1358.12 742.324   4
 -20 -13   2 1537.09 802.685   1
 -20 -13   2 1584.47 784.734   4
 -33  13   2 1314.83 719.229   2
 -19 -14  -2 1172.42 744.349   2
  19 -33  -2 1369.47 785.553   1
  14  19  -2 913.030 607.648   3
 -14  33  -2 507.592 612.738   4
 -33  14  -2 532.175 733.072   4
 -19 -14  -2 85.8028 622.143   1
 -19 -14  -2 1499.47 821.398   4
 -33  14  -2 1080.49 727.794   2
 -19 -14   1 891.530 654.106   2
  14  19   1 1328.06 745.581   3
 -14  33   1-169.490 594.427   3
 -14  33   1 125.225 648.143   4
 -14  33   1 450.567 465.797   2
  19 -33   1 1291.94 790.437   1
 -33  14   1 1683.54 816.290   4
 -19 -14   1 909.064 768.907   1
 -19 -14   1 377.073 677.272   4
 -33  14   1 144.479 643.964   2
 -19 -14   4-177.017 543.704   2
  14  19   4 2143.07 887.401   3
 -14  33   4 1585.42 791.271   3
  19 -33   4 1132.15 973.933   1
 -14  33   4-393.981 769.500   4
 -14  33   4 408.673 660.567   2
 -33  14   4 378.307 630.050   4
 -19 -14   4 368.580 720.421   1
 -33  14   4 1986.66 846.432   2
 -18 -15  -3 1470.11 760.795   2
 -15  33  -3 1626.08 741.035   4
  18 -33  -3 4167.39 977.691   1
 -33  15  -3 2914.59 998.260   4
 -18 -15  -3 1928.85 679.071   1
 -33  15  -3 3000.51 887.610   2
 -18 -15   0 793.853 682.930   2
  15  18   0-852.507 662.018   3
 -15  33   0-348.205 679.964   4
 -15  33   0 190.529 418.750   2
 -33  15   0 257.583 605.106   4
  18 -33   0 700.634 722.089   1
 -18 -15   0 397.185 647.771   1
 -18 -15   0 475.548 642.969   4
 -33  15   0-34.3180 683.097   2
 -18 -15   3 2816.94 745.273   2
  15  18   3 1970.98 786.514   3
  18 -33   3 3273.59 1212.43   1
 -15  33   3 1357.17 691.283   3
 -15  33   3 2332.49 851.776   4
 -15  33   3 1539.83 723.775   2
 -33  15   3 3919.95 936.568   4
 -18 -15   3 3449.46 994.263   1
 -33  15   3 4562.98 1035.48   2
 -16  33  -4 1273.96 672.640   4
 -33  16  -4 715.261 806.292   4
  17 -33  -4 1320.18 757.493   1
 -33  16  -4 1720.02 824.959   2
 -17 -16  -1 373.973 608.528   2
  16  17  -1 195.660 632.956   3
 -16  33  -1-908.662 635.448   4
 -33  16  -1-73.2070 630.340   4
 -17 -16  -1 924.525 698.866   1
  17 -33  -1-428.866 732.743   1
 -33  16  -1-160.950 633.375   2
 -17 -16   2-156.631 577.474   2
  16  17   2 1332.15 712.573   3
  17 -33   2 301.187 742.370   1
 -16  33   2 662.708 675.350   3
 -16  33   2 849.124 689.367   4
 -16  33   2 1174.68 602.701   2
 -33  16   2 1474.27 734.342   4
 -17 -16   2 1510.96 778.307   1
 -33  16   2 54.8225 635.528   2
 -16 -17  -2 551.812 773.742   2
  17  16  -2 737.259 541.313   3
 -17  33  -2 938.682 652.630   4
 -33  17  -2 1286.30 724.043   4
 -16 -17  -2 1150.78 680.872   1
  16 -33  -2 853.143 745.680   1
 -33  17  -2 616.457 687.200   2
 -16 -17   1-3.40731 543.213   2
  17  16   1-106.302 635.102   3
  16 -33   1-737.371 751.829   1
 -17  33   1-303.322 615.227   3
 -17  33   1-1042.45 724.955   4
 -17  33   1-175.096 451.504   2
 -33  17   1-287.885 555.782   4
 -16 -17   1-274.767 637.337   1
 -33  17   1-309.884 584.658   2
  17  16   4 912.578 746.660   3
 -17  33   4 691.863 627.309   3
 -17  33   4 464.949 789.972   4
 -17  33   4 587.787 631.076   2
 -33  17   4 655.431 688.341   4
 -16 -17   4 2274.28 965.340   1
 -33  17   4 1250.21 817.095   2
  16 -33   4-116.960 863.225   1
 -18  33  -3 2013.76 836.545   4
 -33  18  -3 1941.47 833.314   4
 -15 -18  -3 3292.19 823.684   1
 -33  18  -3 3999.39 951.482   2
  15 -33  -3 2067.54 840.081   1
  18  15   0 475.070 582.231   3
 -15 -18   0-177.346 552.545   2
  15 -33   0 1422.11 815.254   1
 -18  33   0-232.673 608.286   4
 -33  18   0-244.135 600.386   4
 -18  33   0 55.8040 430.189   2
 -15 -18   0 3.02416 615.583   1
 -33  18   0 411.189 648.645   2
  18  15   3 4329.78 932.788   3
 -15 -18   3 2005.66 633.969   2
 -18  33   3 4018.36 949.591   3
 -18  33   3 1058.19 765.603   4
 -18  33   3 1116.26 619.573   2
 -33  18   3 1885.66 785.230   4
 -15 -18   3 1020.92 830.856   1
 -33  18   3 2773.84 862.159   2
  15 -33   3 1728.58 959.736   1
  14 -33  -4 589.236 692.031   1
 -19  33  -4 827.525 676.772   4
 -33  19  -4 217.518 633.882   4
 -33  19  -4 2004.20 820.044   2
  19  14  -1 394.940 599.977   3
 -14 -19  -1 1054.71 729.430   2
  14 -33  -1 1244.47 755.643   1
 -19  33  -1 474.816 605.101   4
 -33  19  -1 144.433 647.569   4
 -14 -19  -1 1181.68 694.274   1
 -33  19  -1 327.544 711.021   2
  19  14   2 677.582 688.732   3
 -14 -19   2 404.009 532.893   2
 -19  33   2 915.930 676.389   3
 -19  33   2 1349.60 745.175   4
 -19  33   2 1574.92 695.111   2
 -33  19   2 742.890 698.679   4
 -14 -19   2 1048.98 724.785   1
 -33  19   2 181.188 617.217   2
  14 -33   2 1512.99 786.558   1
 -20  33  -2 1866.70 760.943   4
  13 -33  -2 896.047 714.101   1
 -33  20  -2 2987.11 842.794   4
 -13 -20  -2 2575.02 798.135   1
 -33  20  -2 1078.42 651.577   2
  20  13   1 408.598 543.780   3
 -13 -20   1-102.589 514.962   2
 -20  33   1 176.166 656.267   4
 -33  20   1 179.098 625.787   4
 -20  33   1 251.955 466.857   2
 -33  20   1 649.796 663.644   2
 -13 -20   1 190.250 635.128   1
  13 -33   1 155.258 771.024   1
  20  13   4-26.4090 649.983   3
 -20  33   4 1302.46 753.488   3
 -20  33   4-545.138 756.072   4
 -20  33   4 1234.58 694.253   2
 -33  20   4 910.673 729.231   4
 -33  20   4-301.544 687.057   2
 -13 -20   4 1520.50 937.577   1
  13 -33   4 548.554 851.870   1
 -21  33  -3 2781.63 828.234   4
 -33  21  -3 4204.34 990.622   4
  12 -33  -3 2127.48 847.847   1
 -33  21  -3 3255.55 873.788   2
 -12 -21  -3 2281.15 709.459   1
  12 -33   0 97.1137 705.087   1
  21  12   0 1353.06 670.820   3
 -21  33   0 1409.16 789.491   4
 -33  21   0 1764.46 783.072   4
 -21  33   0 799.434 521.485   2
 -33  21   0 1647.15 716.220   2
 -12 -21   0 1498.31 769.543   1
  21  12   3 3405.70 892.305   3
 -21  33   3 3968.44 926.199   3
 -21  33   3 3265.06 944.771   4
 -21  33   3 3373.87 839.718   2
 -33  21   3 4455.79 987.270   4
 -33  21   3 3113.85 844.073   2
  12 -33   3 4768.35 1197.24   1
 -12 -21   3 5468.03 1132.73   1
  11 -33  -1 1873.01 840.437   1
  22  11  -1 2648.81 705.444   3
 -22  33  -1 1071.51 733.128   4
 -33  22  -1 2370.66 895.639   4
 -22  33  -1 2293.27 598.635   2
 -33  22  -1 2368.84 793.647   2
 -11 -22  -1 1546.51 724.412   1
  22  11   2 569.278 589.093   3
 -22  33   2 254.921 686.089   4
 -33  22   2 596.404 669.750   4
 -22  33   2 68.7478 573.307   2
 -33  22   2 1138.62 706.041   2
  11 -33   2 42.9748 749.762   1
 -11 -22   2 492.143 691.030   1
  10 -33  -2 973.773 772.566   1
 -23  33  -2 438.354 636.138   4
 -33  23  -2 411.790 752.196   4
 -33  23  -2 1406.50 804.249   2
 -10 -23  -2 244.707 599.887   1
  23  10   1 9.16440 551.356   3
 -23  33   1 588.455 631.959   4
 -33  23   1 283.640 649.959   4
 -23  33   1 220.562 536.638   2
 -33  23   1 451.153 607.238   2
  10 -33   1 1014.45 866.621   1
 -10 -23   1-679.868 694.727   1
 -24  33  -3 632.505 631.039   4
 -33  24  -3 669.053 723.768   4
  24   9   0 1193.65 571.311   3
 -24  33   0-96.4830 629.875   4
 -33  24   0 1553.33 771.101   4
 -24  33   0 1519.02 574.551   2
 -33  24   0 1875.04 773.171   2
   9 -33   0 584.477 724.695   1
  -9 -24   0 1267.51 733.615   1
 -24  33   3 560.318 714.438   4
 -33  24   3 2719.77 916.608   4
   9 -33   3 1511.30 942.237   1
  -9 -24   3 1739.26 875.084   1
  -8 -25  -1 854.378 670.385   1
 -25  33  -1 1836.27 745.639   4
 -33  25  -1 1816.56 837.678   4
 -25  33  -1 732.710 515.326   2
 -33  25  -1 2409.60 798.928   2
  25   8   2 503.306 577.971   3
 -25  33   2 334.904 664.032   4
 -33  25   2 370.995 660.013   4
 -25  33   2 816.566 683.464   2
   8 -33   2 1124.28 859.942   1
 -33  25   2-47.6404 684.183   2
  -8 -25   2 757.925 823.942   1
  -7 -26   1 797.572 750.232   1
 -26  33   1-1020.64 788.239   4
 -33  26   1 490.595 721.135   4
 -26  33   1 590.059 553.048   2
   7 -33   1 940.476 835.362   1
 -33  26   1-24.1781 656.694   2
  24 -34   1 876.710 957.104   1
 -24 -10   1 1636.47 731.801   2
  10  24   1 1444.18 772.474   3
 -10  34   1 1026.57 740.091   3
 -24 -10   1 1627.05 857.034   1
 -34  10   1 2028.20 827.466   4
 -24 -10   1 888.104 768.817   4
 -34  10   1 1572.91 818.164   2
 -23 -11   0 172.713 619.055   2
  23 -34   0 472.189 838.544   1
  11  23   0 814.032 715.989   3
 -11  34   0 74.8511 679.412   3
 -11  34   0 1887.23 889.151   4
 -23 -11   0 1228.08 839.640   1
 -34  11   0 206.558 675.042   4
 -23 -11   0-902.334 766.430   4
 -34  11   0-722.425 728.506   2
 -22 -12  -1 116.397 596.241   2
  12  22  -1 248.135 696.294   3
  22 -34  -1 1034.76 872.144   1
 -12  34  -1 447.692 672.594   4
 -22 -12  -1 518.051 765.591   1
 -34  12  -1 147.894 882.837   4
 -22 -12  -1 1870.51 812.832   4
 -34  12  -1 1076.63 785.227   2
 -22 -12   2 721.046 654.663   2
  12  22   2 1357.29 813.311   3
 -12  34   2-306.125 639.144   3
 -12  34   2-190.641 543.386   2
 -22 -12   2 582.812 778.350   1
 -34  12   2-907.590 723.553   4
  22 -34   2 899.217 1029.02   1
 -22 -12   2 343.206 677.886   4
 -34  12   2-177.308 646.990   2
 -21 -13  -2 1416.25 845.027   2
  13  21  -2 2322.48 854.062   3
 -13  34  -2 606.348 624.965   4
 -21 -13  -2 2005.69 763.379   1
 -34  13  -2 1328.15 820.441   4
  21 -34  -2 848.401 800.616   1
 -21 -13  -2 1565.26 826.281   4
 -34  13  -2-89.7643 702.851   2
 -21 -13   1 382.902 641.778   2
  13  21   1-284.281 645.971   3
 -13  34   1-19.3945 665.100   3
 -13  34   1-377.046 687.122   4
 -13  34   1-196.675 473.377   2
 -21 -13   1 55.3173 724.090   1
 -34  13   1-347.814 720.766   4
 -21 -13   1-1293.10 824.783   4
  21 -34   1-485.549 850.330   1
 -34  13   1 699.321 646.223   2
 -20 -14   0 2173.87 838.886   2
  14  20   0 1256.67 740.718   3
 -14  34   0 808.341 713.382   4
 -34  14   0 2597.04 839.065   4
 -20 -14   0 2648.17 905.056   1
 -20 -14   0 270.482 709.378   4
  20 -34   0 1984.39 952.863   1
 -34  14   0 1355.56 785.845   2
 -19 -15  -1 528.831 611.481   2
  15  19  -1-644.996 615.763   3
 -15  34  -1 556.246 634.270   4
 -34  15  -1 912.369 731.538   4
 -19 -15  -1 626.443 657.802   1
 -19 -15  -1-263.898 708.771   4
  19 -34  -1 510.735 753.405   1
 -34  15  -1 278.511 630.575   2
 -19 -15   2-323.268 595.715   2
  15  19   2 854.158 721.876   3
 -15  34   2 1647.54 777.867   3
 -15  34   2-464.490 753.009   4
  19 -34   2 404.610 764.025   1
 -15  34   2 814.628 615.930   2
 -34  15   2 1164.86 728.195   4
 -19 -15   2 1041.80 772.297   1
 -34  15   2 542.158 652.195   2
  18 -34  -2 755.095 740.955   1
 -18 -16  -2 186.206 615.188   2
  16  18  -2 628.557 684.517   3
 -16  34  -2 843.552 688.323   4
 -34  16  -2 1218.63 825.540   4
 -18 -16  -2 952.249 699.038   1
 -34  16  -2 828.879 719.128   2
 -18 -16   1 915.522 624.528   2
  16  18   1 1010.51 709.770   3
 -16  34   1 1741.92 783.258   3
 -16  34   1-549.068 667.461   4
  18 -34   1-429.809 797.025   1
 -16  34   1 430.923 535.820   2
 -34  16   1 231.319 660.684   4
 -18 -16   1 839.119 717.981   1
 -34  16   1 2105.13 776.446   2
  17 -34  -3 913.015 811.197   1
 -17 -17  -3 3025.63 911.619   2
 -17  34  -3 673.670 657.538   4
 -34  17  -3 1920.03 830.583   4
 -17 -17  -3 1591.96 720.084   1
 -34  17  -3 1375.02 845.189   2
 -17 -17   0 5021.23 955.403   2
  17  17   0 3166.53 845.862   3
 -17  34   0 1189.45 813.052   4
  17 -34   0 2436.02 1016.82   1
 -34  17   0 3087.81 887.804   4
 -17 -17   0 2735.08 805.292   1
 -34  17   0 1425.80 734.689   2
  17 -34   3 1612.24 973.220   1
  17  17   3 3288.83 929.875   3
 -17 -17   3 3643.52 818.406   2
 -17  34   3 2510.68 820.388   3
 -17  34   3 3193.37 989.683   4
 -17  34   3 2011.29 711.681   2
 -34  17   3 3200.95 931.687   4
 -17 -17   3 2915.30 931.024   1
 -34  17   3 1364.91 735.830   2
 -16 -18  -1 696.563 670.068   2
  18  16  -1 1403.33 687.919   3
 -18  34  -1 666.740 642.147   4
 -34  18  -1-4.64819 662.510   4
  16 -34  -1 662.619 743.839   1
 -16 -18  -1-78.7303 680.008   1
 -34  18  -1 221.415 623.593   2
  16 -34   2 344.448 794.103   1
  18  16   2 1083.93 677.859   3
 -16 -18   2 495.689 586.610   2
 -18  34   2 487.900 667.184   3
 -18  34   2 865.802 708.870   4
 -18  34   2 321.892 554.895   2
 -34  18   2 28.9138 607.564   4
 -16 -18   2 789.029 779.386   1
 -34  18   2 941.436 722.639   2
 -19  34  -2 454.642 682.011   4
 -34  19  -2-468.837 674.464   4
  15 -34  -2-15.5848 699.421   1
 -15 -19  -2 290.003 600.849   1
 -34  19  -2 846.849 701.014   2
  15 -34   1-1626.24 903.995   1
  19  15   1 252.345 634.924   3
 -15 -19   1 452.581 573.079   2
 -19  34   1 134.112 642.337   4
 -19  34   1-160.644 479.498   2
 -34  19   1-221.351 623.707   4
 -15 -19   1-556.865 733.862   1
 -34  19   1 626.319 714.198   2
  14 -34   0 581.836 779.196   1
  20  14   0 1641.38 695.093   3
 -14 -20   0 776.438 654.745   2
 -20  34   0 1157.67 731.632   4
 -34  20   0 520.103 657.602   4
 -20  34   0 781.599 500.141   2
 -14 -20   0 1019.12 804.634   1
 -34  20   0 1877.91 802.088   2
  21  13  -1 250.134 546.071   3
  13 -34  -1-537.030 731.103   1
 -21  34  -1 718.918 722.147   4
 -34  21  -1 204.601 649.668   4
 -34  21  -1 1332.69 721.411   2
 -13 -21  -1-274.476 725.136   1
  21  13   2 1139.28 748.903   3
 -13 -21   2 1122.26 655.903   2
 -21  34   2-622.834 710.758   4
 -34  21   2-696.620 752.373   4
 -21  34   2 417.197 561.091   2
 -34  21   2 771.056 694.612   2
 -13 -21   2 1418.07 848.666   1
  13 -34   2 888.224 830.050   1
 -22  34  -2 399.224 676.078   4
  12 -34  -2 1263.60 846.752   1
 -34  22  -2 1546.93 809.858   4
 -34  22  -2 1390.94 731.483   2
 -12 -22  -2 607.276 710.874   1
  22  12   1 362.404 587.453   3
 -22  34   1 799.966 698.656   4
 -34  22   1-795.128 707.193   4
 -22  34   1 380.446 576.090   2
 -34  22   1 605.355 710.952   2
 -12 -22   1 563.358 813.640   1
  12 -34   1 463.494 768.647   1
  23  11   0 471.034 589.405   3
 -23  34   0 651.706 697.640   4
 -34  23   0 299.872 758.324   4
 -23  34   0 309.485 510.005   2
 -34  23   0 563.635 669.699   2
 -11 -23   0 373.050 656.830   1
  11 -34   0 454.205 817.651   1
  10 -34  -1-563.291 753.014   1
 -24  34  -1 1374.90 768.502   4
 -34  24  -1 1494.82 758.387   4
 -34  24  -1 267.564 665.434   2
 -10 -24  -1 663.611 691.113   1
 -19 -16   0 3306.94 897.488   2
  16  19   0 3704.29 939.878   3
 -16  35   0 1552.57 827.469   4
 -35  16   0 3787.01 998.603   4
 -19 -16   0 3693.82 1012.18   1
  19 -35   0 1953.03 958.159   1
 -35  16   0 4012.16 976.611   2
 -17  35  -1-288.843 698.880   4
 -35  17  -1 84.5910 673.972   4
 -18 -17  -1 465.527 648.504   1
 -18  35   1-833.634 755.388   4
 -35  18   1 888.870 748.438   4
 -17 -18   1 2002.90 814.019   1
  19  16   0 3328.24 888.445   3
 -16 -19   0 2083.57 764.564   2
 -19  35   0 3993.37 983.027   4
  16 -35   0 2532.17 967.234   1
 -35  19   0 3852.61 1070.53   4
 -16 -19   0 4695.68 1026.72   1
 -35  19   0 2349.97 880.130   2
   0   0   0    0.00    0.00   0

TITL YY_Zn_Gly_Pyr_DMSO in R3c
REM R3c (#161 in standard setting)
CELL 0.71073  28.095171  28.095171  10.151741  90.0000  90.0000 120.0000
ZERR   18.00   0.001372   0.001372   0.000537   0.0000   0.0000   0.0000
LATT -3
SYMM -y, x-y, z
SYMM -x+y,-x, z
SYMM -y,-x, z+1/2
SYMM -x+y, y, z+1/2
SYMM  x, x-y, z+1/2
SFAC C H N O Zn
UNIT 144.00 144.00 54.00 54.00 18.00
TREF
HKLF 4
END
;
_shelx_hkl_checksum              3522
_olex2_submission_special_instructions 'No special instructions were received'
_oxdiff_exptl_absorpt_empirical_details
;
Empirical correction (ABSPACK) includes:
- Absorption correction using spherical harmonics
- Frame scaling
- Detector area scaling
;
_oxdiff_exptl_absorpt_empirical_full_max 3.531
_oxdiff_exptl_absorpt_empirical_full_min 0.828
loop_
_space_group_symop_operation_xyz
'x, y, z'
'-y, x-y, z'
'-x+y, -x, z'
'-x+y, y, z+1/2'
'x, x-y, z+1/2'
'-y, -x, z+1/2'
'x+2/3, y+1/3, z+1/3'
'-y+2/3, x-y+1/3, z+1/3'
'-x+y+2/3, -x+1/3, z+1/3'
'-x+y+2/3, y+1/3, z+5/6'
'x+2/3, x-y+1/3, z+5/6'
'-y+2/3, -x+1/3, z+5/6'
'x+1/3, y+2/3, z+2/3'
'-y+1/3, x-y+2/3, z+2/3'
'-x+y+1/3, -x+2/3, z+2/3'
'-x+y+1/3, y+2/3, z+7/6'
'x+1/3, x-y+2/3, z+7/6'
'-y+1/3, -x+2/3, z+7/6'
loop_
_atom_site_label
_atom_site_type_symbol
_atom_site_fract_x
_atom_site_fract_y
_atom_site_fract_z
_atom_site_U_iso_or_equiv
_atom_site_adp_type
_atom_site_occupancy
_atom_site_site_symmetry_order
_atom_site_calc_flag
_atom_site_refinement_flags_posn
_atom_site_refinement_flags_adp
_atom_site_refinement_flags_occupancy
_atom_site_disorder_assembly
_atom_site_disorder_group
Zn1 Zn 0.35381(5) 0.33000(6) 0.32963(15) 0.0263(4) Uani 1 1 d . U . . .
O1 O 0.4005(3) 0.3285(3) 0.4723(7) 0.0287(17) Uani 1 1 d . . . . .
C4 C 0.5534(5) 0.4644(5) 0.5131(11) 0.036(3) Uani 1 1 d . . . . .
O3 O 0.5459(5) 0.4527(4) 0.3940(8) 0.060(3) Uani 1 1 d . . . . .
C6 C 0.4315(5) 0.3610(4) 0.5595(11) 0.026(2) Uani 1 1 d . . . . .
C3 C 0.5911(5) 0.5213(4) 0.5563(11) 0.029(2) Uani 1 1 d . U . . .
N3 N 0.5290(4) 0.4264(4) 0.6079(10) 0.029(2) Uani 1 1 d . . . . .
H3 H 0.5376 0.4357 0.6910 0.035 Uiso 1 1 calc R . . . .
C5 C 0.4878(4) 0.3691(4) 0.5739(11) 0.027(2) Uani 1 1 d . . . . .
H5A H 0.4875 0.3443 0.6436 0.032 Uiso 1 1 calc R . . . .
H5B H 0.4986 0.3590 0.4904 0.032 Uiso 1 1 calc R . . . .
N2 N 0.3872(4) 0.3565(4) 0.0471(9) 0.0267(15) Uani 1 1 d . U . . .
N1 N 0.4027(4) 0.3596(4) 0.1772(9) 0.0267(15) Uani 1 1 d . U . . .
C2 C 0.6132(5) 0.5668(5) 0.4771(11) 0.035(3) Uani 1 1 d . U . . .
H2 H 0.6077 0.5660 0.3846 0.042 Uiso 1 1 calc R . . . .
O2 O 0.4164(3) 0.3838(4) 0.6469(9) 0.0368(19) Uani 1 1 d . . . . .
C1 C 0.6083(4) 0.5416(5) 0.6845(11) 0.028(2) Uani 1 1 d . U . . .
H1 H 0.5992 0.5202 0.7626 0.033 Uiso 1 1 calc R . . . .
S1 S 0.4179(5) 0.4938(5) 0.2107(11) 0.058(3) Uiso 0.378(11) 1 d . U P A 1
O4 O 0.4183(8) 0.4880(8) 0.3579(11) 0.026(5) Uiso 0.378(11) 1 d G U P A 1
C7 C 0.390(2) 0.539(2) 0.177(3) 0.107(16) Uiso 0.378(11) 1 d G U P A 1
H7A H 0.3894 0.5436 0.0819 0.161 Uiso 0.378(11) 1 calc R . P A 1
H7B H 0.3530 0.5223 0.2129 0.161 Uiso 0.378(11) 1 calc R . P A 1
H7C H 0.4137 0.5745 0.2189 0.161 Uiso 0.378(11) 1 calc R . P A 1
C8 C 0.4879(7) 0.5420(18) 0.162(3) 0.107(16) Uiso 0.378(11) 1 d G . P A 1
H8A H 0.4894 0.5470 0.0658 0.161 Uiso 0.378(11) 1 calc R . P A 1
H8B H 0.5001 0.5774 0.2050 0.161 Uiso 0.378(11) 1 calc R . P A 1
H8C H 0.5120 0.5277 0.1874 0.161 Uiso 0.378(11) 1 calc R . P A 1
S1A S 0.4242(8) 0.4796(8) 0.302(2) 0.112(7) Uiso 0.378(11) 1 d . U P A 2
C7A C 0.396(2) 0.5153(18) 0.394(5) 0.14(3) Uiso 0.378(11) 1 d G U P A 2
H7AA H 0.3924 0.5410 0.3352 0.208 Uiso 0.378(11) 1 calc R . P A 2
H7AB H 0.3600 0.4885 0.4287 0.208 Uiso 0.378(11) 1 calc R . P A 2
H7AC H 0.4209 0.5356 0.4665 0.208 Uiso 0.378(11) 1 calc R . P A 2
C8A C 0.4926(11) 0.5383(13) 0.282(5) 0.10(2) Uiso 0.378(11) 1 d G . P A 2
H8AA H 0.4913 0.5646 0.2208 0.150 Uiso 0.378(11) 1 calc R . P A 2
H8AB H 0.5064 0.5560 0.3677 0.150 Uiso 0.378(11) 1 calc R . P A 2
H8AC H 0.5172 0.5260 0.2471 0.150 Uiso 0.378(11) 1 calc R . P A 2
O4A O 0.4290(10) 0.4410(8) 0.396(2) 0.042(6) Uiso 0.378(11) 1 d G U P A 2
loop_
_atom_site_aniso_label
_atom_site_aniso_U_11
_atom_site_aniso_U_22
_atom_site_aniso_U_33
_atom_site_aniso_U_23
_atom_site_aniso_U_13
_atom_site_aniso_U_12
Zn1 0.0358(8) 0.0384(7) 0.0102(6) 0.0020(4) 0.0021(5) 0.0226(7)
O1 0.037(4) 0.029(4) 0.018(4) -0.003(3) -0.005(3) 0.014(4)
C4 0.037(6) 0.036(6) 0.023(7) 0.004(5) -0.001(5) 0.008(5)
O3 0.080(8) 0.037(5) 0.019(5) 0.001(4) -0.021(5) -0.004(5)
C6 0.033(6) 0.023(5) 0.016(6) 0.001(4) 0.001(4) 0.011(4)
C3 0.029(5) 0.027(5) 0.020(6) -0.001(4) -0.008(4) 0.007(4)
N3 0.026(5) 0.035(5) 0.017(5) -0.002(4) -0.011(4) 0.008(4)
C5 0.028(5) 0.026(5) 0.021(6) 0.001(4) 0.001(4) 0.009(4)
N2 0.031(4) 0.029(3) 0.012(3) -0.005(2) -0.004(3) 0.010(3)
N1 0.031(4) 0.029(3) 0.012(3) -0.005(2) -0.004(3) 0.010(3)
C2 0.047(7) 0.034(6) 0.009(6) 0.005(4) -0.002(5) 0.008(5)
O2 0.027(4) 0.038(5) 0.034(5) -0.014(4) 0.006(3) 0.007(3)
C1 0.022(5) 0.030(6) 0.025(6) 0.004(4) -0.002(4) 0.008(4)
loop_
_atom_type_symbol
_atom_type_description
_atom_type_scat_dispersion_real
_atom_type_scat_dispersion_imag
_atom_type_scat_source
C C 0.0033 0.0016 'International Tables Vol C Tables 4.2.6.8 and 6.1.1.4'
H H 0.0000 0.0000 'International Tables Vol C Tables 4.2.6.8 and 6.1.1.4'
N N 0.0061 0.0033 'International Tables Vol C Tables 4.2.6.8 and 6.1.1.4'
O O 0.0106 0.0060 'International Tables Vol C Tables 4.2.6.8 and 6.1.1.4'
S S 0.1246 0.1234 'International Tables Vol C Tables 4.2.6.8 and 6.1.1.4'
Zn Zn 0.2839 1.4301 'International Tables Vol C Tables 4.2.6.8 and 6.1.1.4'
loop_
_geom_angle_atom_site_label_1
_geom_angle_atom_site_label_2
_geom_angle_atom_site_label_3
_geom_angle
_geom_angle_site_symmetry_1
_geom_angle_site_symmetry_3
_geom_angle_publ_flag
O1 Zn1 O2 99.7(3) . 15_554 ?
N2 Zn1 O1 113.7(4) 8 . ?
N2 Zn1 O2 105.8(4) 8 15_554 ?
N1 Zn1 O1 104.9(4) . . ?
N1 Zn1 N2 118.5(4) . 8 ?
N1 Zn1 O2 112.7(4) . 15_554 ?
C6 O1 Zn1 136.8(7) . . ?
O3 C4 C3 120.8(11) . . ?
O3 C4 N3 122.3(11) . . ?
N3 C4 C3 116.9(10) . . ?
O1 C6 C5 118.5(10) . . ?
O1 C6 O2 124.6(11) . . ?
O2 C6 C5 116.5(10) . . ?
C2 C3 C4 125.6(10) . . ?
C2 C3 C1 105.1(10) . . ?
C1 C3 C4 129.1(10) . . ?
C4 N3 C5 120.6(9) . . ?
N3 C5 C6 112.5(9) . . ?
N1 N2 Zn1 120.4(7) . 15_554 ?
C2 N2 Zn1 132.4(8) 6_664 15_554 ?
C2 N2 N1 107.2(9) 6_664 . ?
N2 N1 Zn1 126.8(7) . . ?
C1 N1 Zn1 124.6(8) 6_664 . ?
C1 N1 N2 108.3(9) 6_664 . ?
N2 C2 C3 111.2(10) 6_665 . ?
C6 O2 Zn1 117.4(7) . 8 ?
N1 C1 C3 108.2(10) 6_665 . ?
O4 S1 C7 106.9 . . ?
O4 S1 C8 106.9 . . ?
C8 S1 C7 96.4 . . ?
C8A S1A C7A 96.4 . . ?
O4A S1A C7A 106.9 . . ?
O4A S1A C8A 106.9 . . ?
loop_
_geom_bond_atom_site_label_1
_geom_bond_atom_site_label_2
_geom_bond_distance
_geom_bond_site_symmetry_2
_geom_bond_publ_flag
Zn1 O1 1.969(7) . ?
Zn1 N2 1.965(9) 8 ?
Zn1 N1 1.957(10) . ?
Zn1 O2 1.981(8) 15_554 ?
O1 C6 1.257(13) . ?
C4 O3 1.244(15) . ?
C4 C3 1.473(16) . ?
C4 N3 1.343(15) . ?
C6 C5 1.490(16) . ?
C6 O2 1.285(14) . ?
C3 C2 1.370(16) . ?
C3 C1 1.406(15) . ?
N3 C5 1.480(14) . ?
N2 Zn1 1.965(9) 15_554 ?
N2 N1 1.380(13) . ?
N2 C2 1.340(16) 6_664 ?
N1 C1 1.362(15) 6_664 ?
C2 N2 1.340(16) 6_665 ?
O2 Zn1 1.981(8) 8 ?
C1 N1 1.362(15) 6_665 ?
S1 O4 1.5039 . ?
S1 C7 1.8122 . ?
S1 C8 1.8121 . ?
S1A C7A 1.8121 . ?
S1A C8A 1.8120 . ?
S1A O4A 1.5034 . ?
