#------------------------------------------------------------------------------
#$Date: 2021-07-04 04:44:05 +0300 (Sun, 04 Jul 2021) $
#$Revision: 266969 $
#$URL: file:///home/coder/svn-repositories/cod/cif/4/13/56/4135633.cif $
#------------------------------------------------------------------------------
#
# This file is available in the Crystallography Open Database (COD),
# http://www.crystallography.net/
#
# All data on this site have been placed in the public domain by the
# contributors.
#
data_4135633
loop_
_publ_author_name
'Geng, Shubo'
'Lin, En'
'Li, Xia'
'Liu, Wansheng'
'Wang, Ting'
'Wang, Zhifang'
'Sensharma, Debobroto'
'Darwish, Shaza'
'Andaloussi, Yassin H.'
'Pham, Tony'
'Cheng, Peng'
'Zaworotko, Michael J.'
'Chen, Yao'
'Zhang, Zhenjie'
_publ_section_title
;
 Scalable Room-Temperature Synthesis of Highly Robust Ethane-Selective
 Metal-Organic Frameworks for Efficient Ethylene Purification.
;
_journal_issue                   23
_journal_name_full               'Journal of the American Chemical Society'
_journal_page_first              8654
_journal_page_last               8660
_journal_paper_doi               10.1021/jacs.1c02108
_journal_volume                  143
_journal_year                    2021
_chemical_formula_moiety         'Br0.5 C2.5 Cu0.5 N2, 0.25(C H2)'
_chemical_formula_sum            'C2.75 H0.5 Br0.5 Cu0.5 N2'
_chemical_formula_weight         133.28
_chemical_name_systematic        br-yx
_space_group_crystal_system      orthorhombic
_space_group_IT_number           52
_space_group_name_Hall           '-P 2a 2bc'
_space_group_name_H-M_alt        'P n n a'
_atom_sites_solution_hydrogens   difmap
_atom_sites_solution_primary     dual
_audit_creation_date             2021-02-13
_audit_creation_method
;
Olex2 1.3
(compiled 2020.11.12 svn.r5f609507 for OlexSys, GUI svn.r6226)
;
_cell_angle_alpha                90
_cell_angle_beta                 90
_cell_angle_gamma                90
_cell_formula_units_Z            8
_cell_length_a                   10.9748(3)
_cell_length_b                   8.5812(3)
_cell_length_c                   10.0596(4)
_cell_measurement_reflns_used    2914
_cell_measurement_temperature    120(3)
_cell_measurement_theta_max      25.3090
_cell_measurement_theta_min      3.6210
_cell_volume                     947.38(6)
_computing_cell_refinement       'CrysAlisPro 1.171.40.53 (Rigaku OD, 2019)'
_computing_data_collection       'CrysAlisPro 1.171.40.53 (Rigaku OD, 2019)'
_computing_data_reduction        'CrysAlisPro 1.171.40.53 (Rigaku OD, 2019)'
_computing_molecular_graphics    'Olex2 1.3 (Dolomanov et al., 2009)'
_computing_publication_material  'Olex2 1.3 (Dolomanov et al., 2009)'
_computing_structure_refinement  'SHELXL 2018/3 (Sheldrick, 2015)'
_computing_structure_solution    'SHELXT 2014/5 (Sheldrick, 2014)'
_diffrn_ambient_environment      N~2~
_diffrn_ambient_temperature      120(3)
_diffrn_detector                 'CCD plate'
_diffrn_detector_area_resol_mean 16.2116
_diffrn_detector_type            Eos
_diffrn_measured_fraction_theta_full 0.994
_diffrn_measured_fraction_theta_max 0.994
_diffrn_measurement_details
;
List of Runs (angles in degrees, time in seconds):

  # Type    Start    End  Width  t~exp~   \w     \q     \k     \f   Frames
--------------------------------------------------------------------------
  1  \w     44.00  76.00   1.00    4.50    --   18.78-125.00  48.00   32
  2  \w     -8.00  58.00   1.00    4.50    --   18.78  77.00-120.00   66
  3  \w     -2.00  73.00   1.00    4.50    --   18.78  57.00-180.00   75
  4  \w    -89.00 -62.00   1.00    4.50    --  -19.88-178.00-150.00   27
  5  \w    -95.00 -64.00   1.00    4.50    --  -19.88-178.00 -30.00   31
  6  \w    -36.00  26.00   1.00    4.50    --  -19.88  37.00  30.00   62
  7  \w    -80.00  53.00   1.00    4.50    --  -19.88   0.00 -30.00  133
;
_diffrn_measurement_device       'four-circle diffractometer'
_diffrn_measurement_device_type  'SuperNova, Single source at offset/far, Eos'
_diffrn_measurement_method       '\w scans'
_diffrn_orient_matrix_type
'CrysAlisPro convention (1999,Acta A55,543-557)'
_diffrn_orient_matrix_UB_11      0.0028551000
_diffrn_orient_matrix_UB_12      0.0618506000
_diffrn_orient_matrix_UB_13      0.0466841000
_diffrn_orient_matrix_UB_21      0.0643983000
_diffrn_orient_matrix_UB_22      0.0010199000
_diffrn_orient_matrix_UB_23      -0.0056974000
_diffrn_orient_matrix_UB_31      -0.0044289000
_diffrn_orient_matrix_UB_32      0.0548667000
_diffrn_orient_matrix_UB_33      -0.0525249000
_diffrn_radiation_monochromator  mirror
_diffrn_radiation_probe          x-ray
_diffrn_radiation_type           'Mo K\a'
_diffrn_radiation_wavelength     0.71073
_diffrn_reflns_av_R_equivalents  0.0343
_diffrn_reflns_av_unetI/netI     0.0194
_diffrn_reflns_Laue_measured_fraction_full 0.994
_diffrn_reflns_Laue_measured_fraction_max 0.994
_diffrn_reflns_limit_h_max       11
_diffrn_reflns_limit_h_min       -13
_diffrn_reflns_limit_k_max       10
_diffrn_reflns_limit_k_min       -10
_diffrn_reflns_limit_l_max       12
_diffrn_reflns_limit_l_min       -11
_diffrn_reflns_number            6260
_diffrn_reflns_point_group_measured_fraction_full 0.994
_diffrn_reflns_point_group_measured_fraction_max 0.994
_diffrn_reflns_theta_full        25.242
_diffrn_reflns_theta_max         25.343
_diffrn_reflns_theta_min         3.120
_diffrn_source                   'micro-focus sealed X-ray tube'
_diffrn_source_type              'SuperNova (Mo) X-ray Source'
_exptl_absorpt_coefficient_mu    6.469
_exptl_absorpt_correction_T_max  1.00000
_exptl_absorpt_correction_T_min  0.53530
_exptl_absorpt_correction_type   multi-scan
_exptl_absorpt_process_details
;
CrysAlisPro 1.171.40.53 (Rigaku Oxford Diffraction, 2019)
Empirical absorption correction using spherical harmonics,
 implemented in SCALE3 ABSPACK scaling algorithm.
;
_exptl_crystal_colour            'metallic light white'
_exptl_crystal_colour_lustre     metallic
_exptl_crystal_colour_modifier   light
_exptl_crystal_colour_primary    white
_exptl_crystal_density_diffrn    1.869
_exptl_crystal_description       block
_exptl_crystal_F_000             504
_exptl_crystal_size_max          0.2
_exptl_crystal_size_mid          0.2
_exptl_crystal_size_min          0.2
_refine_diff_density_max         0.633
_refine_diff_density_min         -0.524
_refine_diff_density_rms         0.080
_refine_ls_extinction_method     none
_refine_ls_goodness_of_fit_ref   1.079
_refine_ls_hydrogen_treatment    refall
_refine_ls_matrix_type           full
_refine_ls_number_parameters     69
_refine_ls_number_reflns         866
_refine_ls_number_restraints     43
_refine_ls_restrained_S_all      1.059
_refine_ls_R_factor_all          0.0226
_refine_ls_R_factor_gt           0.0205
_refine_ls_shift/su_max          0.004
_refine_ls_shift/su_mean         0.000
_refine_ls_structure_factor_coef Fsqd
_refine_ls_weighting_details
'w=1/[\s^2^(Fo^2^)+(0.0288P)^2^+0.9315P] where P=(Fo^2^+2Fc^2^)/3'
_refine_ls_weighting_scheme      calc
_refine_ls_wR_factor_gt          0.0538
_refine_ls_wR_factor_ref         0.0547
_reflns_Friedel_coverage         0.000
_reflns_number_gt                808
_reflns_number_total             866
_reflns_threshold_expression     'I > 2\s(I)'
_cod_data_source_file            ja1c02108_si_002.cif
_cod_data_source_block           a
_cod_depositor_comments
'Adding full bibliography for 4135632--4135635.cif.'
_cod_original_formula_sum        'C2.75 H0.50 Br0.50 Cu0.50 N2'
_cod_database_code               4135633
_shelx_shelxl_version_number     2018/3
_shelx_space_group_comment
;
The symmetry employed for this shelxl refinement is uniquely defined
by the following loop, which should always be used as a source of
symmetry information in preference to the above space-group names.
They are only intended as comments.
;
_shelx_estimated_absorpt_t_max   0.358
_shelx_estimated_absorpt_t_min   0.358
_reflns_odcompleteness_completeness 89.33
_reflns_odcompleteness_iscentric 1
_reflns_odcompleteness_theta     26.32
_olex2_refinement_description
;
1. Restrained distances
 C1-C1_$1
 1.4 with sigma of 0.02
 H1B-H1A
 1.568 with sigma of 0.01
 H1A_$1-H1B_$1
 1.568 with sigma of 0.01
 C1-H1B = C1-H1A = C1_$1-H1B_$1 = C1_$1-H1A_$1
 0.96 with sigma of 0.001
 H1B-H1A_$1
 2.537 with sigma of 0.01
 H1A-H1B_$1
 2.537 with sigma of 0.01
 H1B-H1B_$1
 2.966 with sigma of 0.001
 C1-H1A \\sim C1-H1B
 with sigma of 0.0001
2. Restrained planarity
 C1_$1, C1, H1A_$1, H1B_$1, H1A, H1B
 with sigma of 0.001
3. Rigid body (RIGU) restrains
 All non-hydrogen atoms
 with sigma for 1-2 distances of 0.001 and sigma for 1-3 distances of 0.001
4. Others
 Fixed Sof: C1(0.25) H1A(0.25) H1B(0.25)
;
_shelx_res_file
;
TITL a_a.res in Pnna
    a.res
    created by SHELXL-2018/3 at 21:29:49 on 13-Feb-2021
REM Old TITL a_a.res in Pnna
REM SHELXT solution in Pnna
REM R1 0.140, Rweak 0.003, Alpha 0.022, Orientation as input
REM Formula found by SHELXT: C4 N5 Br2
CELL 0.71073 10.9748 8.5812 10.0596 90 90 90
ZERR 8 0.0003 0.0003 0.0004 0 0 0
LATT 1
SYMM 0.5-X,-Y,+Z
SYMM 0.5-X,0.5+Y,0.5-Z
SYMM +X,0.5-Y,0.5-Z
SFAC C H Br Cu N
UNIT 22 4 4 4 16
EQIV $1 1.5-X,2-Y,+Z
DFIX 1.4 C1 C1_$1
RIGU 0.001 0.001
SADI 0.0001 C1 H1a C1 H1b
DFIX 1.568 0.01 H1b H1a
FLAT 0.001 C1_$1 C1 H1a_$1 H1b_$1 H1a H1b
DFIX 1.568 0.01 H1a_$1 H1b_$1
DFIX 0.96 0.001 C1 H1b C1 H1a C1_$1 H1b_$1 C1_$1 H1a_$1
DFIX 2.537 0.01 H1b H1a_$1
DFIX 2.537 0.01 H1a H1b_$1
DFIX 2.966 0.001 H1b H1b_$1

L.S. 100
PLAN  50
SIZE 0.2 0.2 0.2
CONF
FREE C1 H1b_$1
FREE C1 H1a_$1
FREE H1b H1a_$1
list 4
MORE -1
fmap 2
acta
BOND $H
OMIT 3 0 1
OMIT 3 2 3
OMIT 1 4 3
OMIT 2 2 2
REM <olex2.extras>
REM <HklSrc "%.\\A.hkl">
REM </olex2.extras>

WGHT    0.028800    0.931500
FVAR       0.36808
BR01  3    0.920523    0.750000    0.750000    10.50000    0.00413    0.03615 =
         0.03294   -0.02060    0.00000    0.00000
CU02  4    0.250000    0.500000    0.468066    10.50000    0.00480    0.01337 =
         0.00991    0.00000    0.00000   -0.00047
N003  5    0.686842    0.664381    0.663454    11.00000    0.00682    0.01453 =
         0.01477   -0.00347    0.00130    0.00007
N004  5    0.383108    0.582411    0.576217    11.00000    0.00947    0.01744 =
         0.01271   -0.00380    0.00223    0.00119
C005  1    0.568395    0.697617    0.697443    11.00000    0.00590    0.01485 =
         0.01275   -0.00010    0.00090    0.00118
C006  1    0.750095    0.750000    0.750000    10.50000    0.00379    0.01756 =
         0.01541   -0.00323    0.00000    0.00000
C007  1    0.466085    0.633583    0.630288    11.00000    0.00827    0.01352 =
         0.01128   -0.00249    0.00281    0.00273
C1    1    0.693913    0.961223    0.432284    10.25000    0.09559    0.06985 =
         0.08420    0.04547   -0.04181    0.00564
H1A   2    0.615025    1.009601    0.432284    10.25000    0.04426
H1B   2    0.682501    0.850287    0.432284    10.25000    0.17032
HKLF 4




REM  a_a.res in Pnna
REM wR2 = 0.0547, GooF = S = 1.079, Restrained GooF = 1.059 for all data
REM R1 = 0.0205 for 808 Fo > 4sig(Fo) and 0.0226 for all 866 data
REM 69 parameters refined using 43 restraints

END

WGHT      0.0292      0.9061

REM Highest difference peak  0.633,  deepest hole -0.524,  1-sigma level  0.080
Q1    1   0.7500  1.0000  0.4582  10.50000  0.05    0.63
Q2    1   0.6382  0.6702  0.6807  11.00000  0.05    0.32
Q3    1   0.7214  0.6675  0.7176  11.00000  0.05    0.30
Q4    1   0.7022  0.6126  0.5987  11.00000  0.05    0.28
Q5    1   0.1895  0.4938  0.3932  11.00000  0.05    0.27
Q6    1   0.2580  0.6093  0.5860  11.00000  0.05    0.27
Q7    1   0.5490  0.7500  0.7500  10.50000  0.05    0.25
Q8    1   0.9600  0.7725  0.7991  11.00000  0.05    0.24
Q9    1   0.5080  0.6705  0.6583  11.00000  0.05    0.24
Q10   1   0.2500  0.5000  0.3423  10.50000  0.05    0.22
Q11   1   0.3206  0.5003  0.5455  11.00000  0.05    0.22
Q12   1   0.8844  0.8147  0.6995  11.00000  0.05    0.21
Q13   1   0.9689  0.8647  0.7359  11.00000  0.05    0.20
Q14   1   0.1943  0.5911  0.4806  11.00000  0.05    0.18
Q15   1   0.7129  1.0035  0.2891  11.00000  0.05    0.18
Q16   1   0.6803  0.5865  0.6700  11.00000  0.05    0.18
Q17   1   0.7387  0.8403  0.4425  11.00000  0.05    0.18
Q18   1   0.7500  0.5000  0.7687  10.50000  0.05    0.18
Q19   1   0.9251  0.8640  0.8690  11.00000  0.05    0.18
Q20   1   0.9207  0.8840  0.6119  11.00000  0.05    0.17
Q21   1   0.4524  0.6300  0.5622  11.00000  0.05    0.16
Q22   1   0.6991  0.7233  0.6210  11.00000  0.05    0.16
Q23   1   0.9135  0.8625  0.6426  11.00000  0.05    0.16
Q24   1   0.6880  1.0017  0.5584  11.00000  0.05    0.16
Q25   1   0.4020  0.6614  0.6138  11.00000  0.05    0.15
Q26   1   0.4774  0.5833  0.6094  11.00000  0.05    0.15
Q27   1   0.4332  0.5544  0.6354  11.00000  0.05    0.15
Q28   1   0.3434  0.5767  0.6220  11.00000  0.05    0.15
Q29   1   0.2644  0.6355  0.4956  11.00000  0.05    0.14
Q30   1   0.9126  0.7490  0.6229  11.00000  0.05    0.14
Q31   1   0.3330  0.5852  0.4969  11.00000  0.05    0.14
Q32   1   0.2901  0.6151  0.5062  11.00000  0.05    0.14
Q33   1   0.4545  0.4917  0.5046  11.00000  0.05    0.14
Q34   1   0.4059  0.6400  0.7830  11.00000  0.05    0.14
Q35   1   0.5440  0.9702  0.4244  11.00000  0.05    0.14
Q36   1   0.4029  0.5103  0.6990  11.00000  0.05    0.13
Q37   1   0.4330  0.5069  0.5669  11.00000  0.05    0.13
Q38   1   0.7419  0.7500  0.2500  10.50000  0.05    0.13
Q39   1   0.9753  0.7823  0.5992  11.00000  0.05    0.13
Q40   1   0.5631  1.0990  0.3489  11.00000  0.05    0.13
Q41   1   0.6350  0.5558  0.7607  11.00000  0.05    0.12
Q42   1   0.6391  0.7500  0.2500  10.50000  0.05    0.12
Q43   1   0.6831  0.6704  0.3328  11.00000  0.05    0.12
Q44   1   0.6211  1.1921  0.5207  11.00000  0.05    0.12
Q45   1   0.5508  0.5055  0.7867  11.00000  0.05    0.12
Q46   1   0.5411  0.8365  0.5855  11.00000  0.05    0.12
Q47   1   0.5883  0.8891  0.3948  11.00000  0.05    0.12
Q48   1   0.6350  0.8646  0.4868  11.00000  0.05    0.12
Q49   1   0.6500  0.6915  0.5172  11.00000  0.05    0.11
Q50   1   0.8620  0.8144  0.8021  11.00000  0.05    0.11
;
_shelx_res_checksum              50999
_shelx_hkl_file
;
  -2   0   0  227.78    7.17
  -2   0   0  251.36    8.08
   2   0   0  243.10    7.54
  -3   0   0   -0.30    0.72
   3   0   0   -0.08    0.64
  -3   0   0    0.44    0.66
  -4   0   0  291.55   10.89
  -5   0   0    0.27    1.11
  -6   0   0 4908.33   85.27
  -7   0   0    1.33    1.62
  -8   0   0    2.07    1.94
  -9   0   0   -0.16    1.88
 -10   0   0  171.47   12.76
 -11   0   0    5.99    3.66
 -12   0   0 1280.05   42.24
 -13   0   0    8.05    3.96
   2   0   1    0.82    0.56
   2   0  -1    1.58    0.81
  -2   0  -1    0.35    0.69
   2   0   1    0.76    0.80
  -2   0  -1   -0.31    0.54
  -2   0   1    0.96    0.69
  -3   0   1  745.97   17.74
   3   0   1  714.32   19.50
   3   0  -1  767.86   18.16
   3   0   1  771.82   18.74
  -3   0  -1  741.59   18.57
  -3   0  -1  717.21   17.39
   4   0   1    0.28    0.43
  -4   0   1    0.86    1.08
   4   0   1    0.29    1.40
  -4   0  -1    1.28    1.20
  -4   0   1    1.11    0.50
  -5   0   1 1137.74   27.87
  -5   0  -1 1194.90   28.09
  -6   0  -1    0.40    1.51
  -6   0   1    0.15    1.35
  -7   0   1  187.35   11.22
  -7   0  -1  190.03   11.15
  -8   0  -1    0.44    1.62
  -8   0   1    3.46    2.40
  -9   0  -1 1074.09   32.84
  -9   0   1 1053.65   33.02
 -10   0  -1    5.35    3.08
 -10   0   1    3.24    2.89
 -11   0  -1  882.52   32.19
 -11   0   1  856.91   32.32
 -12   0   1   -4.19    3.45
 -12   0  -1    1.29    2.83
 -13   0  -1   59.27    8.61
 -13   0   1   54.04    9.00
   0   0   2  556.89   12.35
   0   0  -2  560.04   13.18
   0   0   2  570.47   13.11
   0   0  -2  590.64   12.24
  -1   0  -2    0.38    0.53
   1   0  -2   -0.02    0.54
  -1   0   2    1.07    0.42
  -1   0   2    0.09    0.52
   1   0  -2    0.95    0.50
   1   0   2   -0.03    0.56
   1   0   2    1.44    0.77
   1   0  -2    0.67    0.40
  -1   0   2    1.81    0.74
   1   0   2    0.51    0.79
  -1   0  -2    0.54    0.47
   1   0   2    0.55    0.56
  -2   0  -2 3154.93   51.36
   2   0   2 3064.97   54.09
   2   0  -2 3113.55   48.42
  -2   0  -2 3129.47   48.56
  -2   0  -2 3308.41   54.06
  -2   0  -2 3098.55   50.82
   2   0   2 3138.59   52.44
   2   0   2 3068.82   51.16
  -3   0  -2    0.57    0.69
   3   0   2    1.11    1.12
  -3   0  -2    1.59    1.00
   3   0  -2    1.42    0.63
   3   0   2    0.49    0.94
  -3   0   2    1.05    0.78
  -3   0  -2    1.49    1.16
   4   0  -2 1250.75   26.97
  -4   0   2 1333.72   29.05
   4   0   2 1262.76   32.35
  -4   0  -2 1311.56   28.52
  -5   0   2    0.90    1.30
   5   0   2    1.46    0.70
  -5   0   2    1.29    0.75
   5   0   2   -0.49    1.40
  -5   0  -2    0.23    1.00
   6   0   2  110.92    5.05
  -6   0   2  123.65    4.91
   6   0   2  114.24    9.99
  -6   0  -2  117.56    8.03
  -6   0   2  113.59    8.13
  -7   0   2    1.76    1.56
  -7   0  -2   -1.43    1.95
   7   0   2    1.43    1.94
  -8   0   2 2380.79   54.00
  -8   0  -2 2385.88   52.77
  -9   0  -2   -0.04    1.85
  -9   0   2    0.33    2.13
 -10   0   2  488.89   22.71
 -10   0  -2  460.87   21.41
 -11   0  -2   -1.87    3.03
 -11   0   2   -0.25    2.97
 -12   0   2  121.04   12.24
 -12   0  -2  119.33   11.81
 -13   0   2   -1.38    3.02
 -13   0  -2   -0.98    3.20
   0   0   3   -0.07    0.53
   0   0  -3    0.97    0.70
   0   0  -3    0.54    0.62
   0   0   3    2.39    1.03
  -1   0   3  533.72   13.55
   1   0   3  496.64   14.60
  -1   0   3  528.03   10.23
  -1   0   3  539.52   14.83
   1   0   3  507.05   14.19
   1   0   3  501.46   16.35
  -1   0  -3  529.14   13.71
  -1   0  -3  500.38   14.10
   1   0  -3  532.25   14.74
  -2   0   3    0.64    0.50
   2   0  -3    0.40    0.38
   2   0   3    1.95    0.85
   2   0  -3    2.99    1.08
  -2   0  -3    0.22    1.13
  -2   0  -3    0.32    0.63
   2   0   3    1.35    0.93
   2   0   3    1.05    0.92
   2   0   3    0.47    0.95
  -2   0   3    0.66    1.10
  -2   0  -3    0.25    0.66
   3   0   3 4708.94   85.31
   3   0   3 4955.80   82.98
  -3   0  -3 4656.10   75.92
  -3   0  -3 5085.09   80.81
   3   0  -3 5134.27   79.24
  -3   0  -3 4768.65   79.67
  -3   0   3 5086.82   82.40
   3   0  -3 5176.24   75.84
  -4   0   3    0.43    0.95
   4   0   3    0.25    1.35
  -4   0  -3    1.54    1.31
  -4   0  -3    1.22    1.04
  -4   0  -3    0.91    1.09
   4   0  -3    0.34    0.67
  -5   0   3  135.11    6.95
  -5   0  -3  123.12    7.19
  -5   0   3  127.08    8.31
  -5   0  -3  125.37    8.00
   5   0   3  139.40   10.58
   5   0   3  132.78    7.63
   6   0   3    0.22    2.26
   6   0   3    0.35    0.97
  -6   0   3    1.54    1.83
  -6   0  -3    2.16    1.81
  -6   0   3   -0.17    0.91
   7   0   3    2.49    1.02
  -7   0   3    2.39    1.79
  -7   0  -3    3.59    1.95
  -7   0   3    3.85    1.20
   7   0   3    4.97    2.56
   8   0   3   -0.84    3.73
  -8   0  -3    1.33    2.31
  -8   0   3   -1.17    2.39
  -9   0   3  924.44   31.84
  -9   0  -3 1034.05   32.01
 -10   0  -3    1.36    2.44
 -10   0   3   -3.68    3.22
 -11   0  -3   22.91    5.38
 -11   0   3   20.71    4.73
 -12   0   3   -3.84    2.78
 -12   0  -3    1.89    3.28
   0   0   4 1991.46   38.17
   0   0   4 1998.90   39.45
   1   0   4   -0.30    1.06
  -1   0   4    2.03    0.72
  -1   0   4    0.64    0.92
  -1   0  -4    0.78    0.82
  -1   0   4    2.31    1.44
  -1   0   4    0.25    0.65
  -1   0  -4    0.85    0.97
   1   0   4   -0.47    1.14
   2   0   4  119.94    6.68
   2   0   4  113.48    7.09
  -2   0  -4  122.84    6.85
  -2   0   4  114.23    6.45
   2   0  -4  125.73    6.80
  -2   0   4  112.13    4.59
  -2   0   4  111.56    7.31
   2   0   4  105.57    7.97
   2   0   4  108.47    7.30
  -2   0  -4  113.67    7.02
  -3   0  -4   -0.57    1.08
  -3   0  -4    0.90    0.83
   3   0   4    0.04    1.30
   3   0  -4   -0.22    0.57
  -3   0   4   -0.43    1.15
   3   0  -4    2.07    1.26
   3   0   4    2.06    2.00
  -4   0  -4   81.67    6.25
  -4   0   4   80.28    6.29
  -4   0  -4   67.28    4.60
  -4   0   4   73.37    6.59
   4   0  -4   80.68    5.80
   4   0  -4   85.54    4.90
   4   0   4   72.38    7.55
  -5   0   4   -1.92    1.55
  -5   0  -4   -0.73    1.12
  -5   0  -4    3.26    1.99
  -5   0   4    0.84    1.37
   5   0  -4   -0.03    1.34
   5   0   4    3.16    2.49
   6   0   4 2966.01   69.11
  -6   0   4 3060.15   61.98
  -6   0  -4 2963.46   53.55
  -6   0   4 3168.66   61.92
  -6   0  -4 3074.81   60.00
  -7   0  -4    3.61    2.18
   7   0   4    1.99    2.57
  -7   0   4   -1.16    2.13
  -8   0  -4    4.70    2.83
   8   0   4    7.93    4.38
  -8   0   4    6.56    2.74
  -9   0   4   -2.46    3.14
   9   0   4    1.48    3.11
  -9   0  -4    0.66    2.22
 -10   0  -4  118.39   10.80
 -10   0   4  105.80   10.90
 -11   0   4    2.70    3.07
 -11   0  -4    3.90    3.70
 -11   0   4    1.54    2.37
 -12   0   4 1226.74   43.35
 -12   0   4 1176.96   40.81
 -12   0  -4 1198.50   41.07
   0   0   5    1.08    1.26
   0   0   5    1.12    1.42
  -1   0   5  872.89   22.60
   1   0   5  917.38   25.88
  -1   0  -5  943.53   22.91
  -1   0   5  945.52   17.82
   1   0   5  950.59   25.16
  -1   0   5  972.87   25.85
  -2   0  -5    1.93    1.26
   2   0   5    0.86    1.20
  -2   0   5    0.46    0.71
   2   0   5   -0.67    1.66
   2   0   5   -0.86    1.37
  -2   0   5   -0.75    1.69
  -3   0   5   15.00    3.26
   3   0  -5   15.00    2.63
   3   0   5   14.20    3.64
  -3   0  -5   19.39    3.07
   3   0   5   12.06    2.79
   3   0   5   19.06    3.05
   4   0   5   -0.42    2.75
  -4   0   5   -0.01    1.55
   4   0  -5    0.13    0.72
   4   0   5    2.49    1.43
   4   0  -5    0.09    1.20
  -4   0  -5    2.41    1.75
  -5   0  -5 2643.65   53.55
  -5   0   5 2712.75   57.23
  -5   0   5 2647.67   54.32
   5   0  -5 2607.15   46.51
   5   0  -5 2578.34   51.07
   5   0   5 2500.45   61.32
  -6   0  -5    1.32    1.58
  -6   0   5   -0.38    1.81
  -6   0  -5   -0.38    1.65
   6   0   5    1.03    2.86
  -6   0   5    1.17    1.82
   6   0  -5    2.86    1.84
  -7   0  -5  796.20   20.75
  -7   0   5  813.19   27.77
   7   0   5  740.91   32.85
   7   0  -5  804.92   25.23
  -7   0  -5  815.17   26.38
  -7   0   5  798.09   28.08
  -8   0   5    1.95    2.21
  -8   0  -5   -0.88    1.26
  -8   0  -5    3.64    2.16
   8   0   5    0.07    4.33
  -8   0   5    0.22    2.14
   9   0   5   19.84    6.42
  -9   0   5   15.09    4.41
  -9   0  -5   15.95    4.40
  -9   0   5   10.57    3.41
 -10   0   5    1.48    3.31
 -10   0  -5    4.88    3.39
  10   0   5   -0.47    3.51
 -10   0   5    7.89    4.09
 -11   0   5  935.78   35.80
 -11   0   5  942.05   36.73
 -11   0  -5  922.29   34.05
 -12   0   5    2.50    3.72
 -12   0   5   -5.06    3.84
 -12   0  -5   -0.70    3.20
   0   0   6  325.08   14.74
   1   0   6    0.55    2.15
  -1   0   6    0.80    0.70
  -1   0   6   -0.71    1.84
  -1   0  -6    0.86    1.36
  -2   0  -6  583.90   18.42
  -2   0   6  572.06   21.00
   2   0   6  551.38   20.08
   2   0   6  549.10   23.64
  -2   0   6  567.93   12.76
   3   0   6    1.57    2.16
  -3   0  -6    0.24    1.26
  -3   0   6    2.17    1.93
   3   0   6    4.31    2.26
   4   0   6  576.35   21.70
   4   0   6  543.72   24.43
   4   0  -6  558.53   19.21
  -4   0   6  540.99   21.64
  -4   0  -6  564.13   19.84
  -5   0  -6    0.45    1.76
   5   0  -6    0.66    1.97
   5   0  -6    1.66    1.33
  -5   0   6    1.58    2.03
   5   0   6    1.98    2.24
  -5   0   6    0.21    1.67
   6   0  -6  536.34   19.54
  -6   0  -6  562.13   21.40
  -6   0   6  509.05   22.47
  -6   0   6  516.95   21.24
   6   0   6  513.65   25.79
  -7   0   6    2.66    2.50
  -7   0   6    4.31    3.02
   7   0  -6    1.38    1.98
  -7   0  -6    0.72    2.00
   7   0   6    0.39    3.13
  -8   0   6   61.96    8.02
  -8   0  -6   57.10    7.20
   8   0   6   63.97   10.34
  -8   0   6   84.42    9.36
   8   0  -6   70.71    7.46
   9   0   6    2.58    3.84
  -9   0  -6   -2.74    2.31
  -9   0   6    1.38    3.16
  -9   0   6    4.04    3.91
   9   0  -6   -0.55    2.39
 -10   0   6   89.58   10.83
  10   0  -6   85.98    9.25
 -10   0   6  100.13   11.17
 -10   0  -6  100.53   10.11
  10   0   6   89.77   13.96
 -11   0   6    3.25    4.50
 -11   0   6    9.71    4.52
  11   0  -6   -1.21    2.98
 -11   0  -6    0.78    2.59
  11   0   6   -0.16    4.56
   0   0   7   -1.10    1.77
  -1   0   7  336.76   16.63
  -1   0  -7  322.38   13.73
  -1   0   7  343.55    9.60
   1   0   7  326.95   16.09
  -2   0   7    0.80    0.85
  -2   0  -7    0.79    1.41
   2   0   7    3.30    2.88
   2   0   7    8.39    3.37
  -2   0   7    2.51    2.78
   3   0   7 1387.87   43.71
  -3   0   7 1522.00   41.22
   3   0   7 1525.04   39.99
  -3   0  -7 1480.17   35.98
   4   0   7    4.70    2.80
  -4   0   7    6.48    3.00
   4   0   7    8.50    3.85
  -4   0  -7    0.82    1.76
   5   0  -7   81.75    7.93
  -5   0   7   85.65    8.27
   5   0   7   72.44   10.29
  -5   0  -7   88.86    8.14
  -5   0   7   88.16    9.74
  -6   0   7   -0.56    1.95
  -6   0   7    1.76    2.81
   6   0   7    0.36    2.59
  -6   0  -7    0.92    2.13
   6   0  -7   -2.12    2.34
   7   0  -7   29.44    5.08
   7   0   7   22.39    6.14
  -7   0   7   26.96    6.08
  -7   0  -7   27.25    5.43
  -7   0   7   25.95    5.32
   8   0   7    0.59    3.33
   8   0  -7    2.32    2.90
  -8   0   7   -0.44    2.64
  -8   0   7    5.12    2.93
  -8   0  -7   -2.42    3.04
  -9   0  -7  875.70   31.76
  -9   0   7  845.87   34.76
   9   0  -7  854.73   29.89
  -9   0   7  834.76   33.14
   9   0   7  886.98   43.44
  10   0   7    1.44    4.71
 -10   0   7   -4.54    3.79
 -10   0   7   -0.55    3.35
  10   0  -7   -2.41    3.13
 -10   0  -7   -1.77    3.31
   0   0   8  227.21   14.37
   1   0   8   -0.42    1.95
   1   0   8   -2.12    2.22
  -1   0   8    0.67    1.05
  -1   0   8    2.39    2.71
  -2   0   8  149.15   11.86
   2   0   8  148.14   11.63
   2   0   8  139.49   13.53
  -2   0  -8  156.26    9.92
  -2   0   8  127.69    5.46
  -3   0   8    1.33    2.47
   3   0   8   -1.93    1.95
  -3   0  -8   -0.43    1.59
  -4   0   8    8.60    4.16
   4   0   8    4.69    4.08
  -4   0  -8    7.81    3.07
   4   0   8    0.21    2.07
   5   0   8    1.57    3.96
  -5   0   8   -0.10    1.97
  -5   0   8    1.22    2.89
  -5   0  -8   -1.20    1.82
  -6   0  -8  236.49   14.23
  -6   0   8  265.32   18.15
   6   0   8  221.73   19.19
  -6   0   8  248.67   15.57
  -7   0   8   -1.88    2.94
  -7   0   8    3.02    2.67
   7   0   8    4.65    4.70
   7   0  -8    0.66    2.18
  -7   0  -8    1.37    3.44
  -8   0   8   69.86    9.15
   8   0   8   59.87   10.96
  -8   0  -8   68.10    8.24
   8   0  -8   61.78    7.76
  -8   0   8   65.15    9.87
  -9   0   8    3.83    3.60
   9   0  -8    4.01    2.55
  -9   0  -8   -0.91    2.66
  -9   0   8   -0.76    3.19
   9   0   8   -3.63    4.68
   0   0   9    0.21    2.74
   1   0   9  902.87   37.01
   1   0   9  940.14   33.07
  -1   0   9  945.88   33.32
   2   0   9    6.55    4.03
  -2   0  -9   -0.59    1.83
  -2   0   9    0.28    2.44
   2   0   9    3.94    2.67
   3   0   9   52.07    7.68
  -3   0   9   44.49    7.41
   3   0   9   39.46    7.67
  -3   0  -9   51.32    6.05
   4   0   9    2.18    2.38
  -4   0  -9   -0.94    1.71
   4   0   9    3.15    4.00
  -4   0   9   -0.59    2.86
  -5   0  -9  397.10   18.60
   5   0   9  388.01   25.45
  -5   0   9  381.40   22.70
   5   0   9  390.95   21.99
  -5   0   9  365.66   19.03
  -6   0  -9    0.06    2.83
  -6   0   9   -2.68    3.22
  -6   0   9    0.88    3.36
   6   0   9    4.58    4.41
   7   0   9  789.00   40.00
  -7   0  -9  857.79   30.36
  -7   0   9  854.15   32.80
  -7   0   9  833.05   35.78
   8   0   9    2.31    4.11
  -8   0   9   -2.81    3.15
  -8   0   9    3.24    3.31
  -8   0  -9   -2.23    2.81
   0   0  10  537.40   25.78
   1   0  10    6.33    4.59
  -1   0  10    2.01    2.72
   1   0  10    1.99    2.43
   2   0  10   15.71    4.94
   2   0  10   21.92    6.73
  -2   0  10   23.32    6.41
   3   0  10    3.23    3.20
  -3   0 -10   -2.52    2.43
   3   0  10   -0.26    3.70
  -3   0  10   -1.43    3.11
  -4   0  10   21.39    6.00
  -4   0 -10   21.81    4.20
   4   0  10   21.07    5.11
   4   0  10   25.38    7.19
   5   0  10   -0.56    2.89
   5   0  10    0.03    4.03
  -5   0  10    1.52    2.69
  -5   0  10    3.62    3.33
  -6   0  10  217.78   18.25
   6   0  10  195.89   19.91
  -6   0  10  226.81   16.16
  -7   0  10   10.34    5.57
   7   0  10    8.43    5.30
  -7   0  10   -0.40    2.84
   0   0  11    8.10    4.77
   0   0  11    1.47    3.15
   1   0  11   24.74    7.38
   1   0  11   24.90    6.29
  -1   0  11   24.19    6.88
   2   0  11    0.06    3.26
  -2   0  11   -3.48    3.85
   2   0  11    2.94    5.04
   3   0  11  271.59   19.44
   3   0  11  242.98   21.26
  -3   0  11  253.05   19.16
   4   0  11    1.27    2.78
   4   0  11   -1.45    4.06
  -4   0  11    0.02    3.82
  -5   0  11   24.05    6.98
   5   0  11   20.45    8.57
   5   0  11   25.08    6.52
   0   0  12    5.56    5.21
   0   0  12    5.36    4.18
  -1   0  12   -6.61    4.62
   1   0  12    1.12    3.69
   1   0  12   -4.22    4.35
   1  -1   0    0.38    0.33
   2   1   0  957.45   19.94
  -2   1   0  921.55   19.31
  -2   1   0  944.28   15.67
  -2   1   0  973.00   19.58
  -2   1   0  942.31   18.71
  -2  -1   0  933.92   19.22
  -3  -1   0    0.51    0.77
   3  -1   0    0.31    0.82
  -3   1   0    0.66    0.87
   3  -1   0    1.33    0.76
  -3   1   0    0.23    0.68
  -4   1   0 2350.26   43.74
  -4  -1   0 2330.44   44.00
  -5   1   0    0.44    0.96
  -5  -1   0    2.68    1.44
  -6  -1   0   23.78    3.79
  -6   1   0   27.15    4.00
  -7   1   0    2.74    1.86
  -7  -1   0    0.28    1.60
  -8   1   0  333.34   16.30
  -8  -1   0  351.61   16.55
  -9   1   0    1.51    3.20
  -9  -1   0    5.26    3.37
 -10  -1   0  148.11   11.93
 -10   1   0  161.37   12.49
 -11  -1   0    2.10    3.56
 -11   1   0   -1.37    3.54
 -12  -1   0   11.99    4.54
 -12   1   0   16.47    4.94
 -13  -1   0    1.45    3.91
 -13   1   0    1.01    2.88
   0   1  -1 3962.91   59.56
   0  -1   1 3896.33   57.24
   0  -1  -1 3861.38   60.32
  -1   1  -1  158.89    5.95
  -1  -1  -1  177.39    5.57
   1   1   1  167.10    6.85
   1  -1  -1  171.90    5.63
   1  -1   1  159.78    5.39
  -1   1  -1  166.49    5.62
  -1   1   1  182.52    5.80
  -1  -1   1  171.66    4.93
  -1   1  -1  174.51    5.51
  -1   1  -1  165.57    6.06
   1   1  -1  173.61    5.78
  -1  -1  -1  170.99    6.62
   1  -1  -1  181.78    5.79
   1  -1   1  162.55    4.41
   1  -1   1  148.12    5.65
  -1   1   1  162.70    5.50
  -2   1  -1  961.28   17.97
  -2   1   1  935.61   19.63
   2   1   1 1049.22   21.23
  -2   1   1  975.71   18.51
   2  -1  -1  901.24   18.85
   2  -1   1  955.18   18.56
  -2   1  -1  969.39   20.32
  -2  -1  -1  921.91   20.39
   2  -1   1  890.86   20.06
  -2  -1   1  929.76   18.87
  -2   1  -1  913.21   18.30
   2   1   1  949.39   21.47
   2  -1  -1  979.45   18.39
  -2  -1  -1  982.52   19.81
   2   1  -1  965.02   18.26
   2  -1   1  925.67   19.92
   2   1  -1  956.57   19.21
   3   1   1   52.84    4.55
  -3   1  -1   51.23    2.90
  -3   1  -1   47.99    4.04
   3   1  -1   52.21    3.09
  -3   1   1   56.71    3.56
   3   1   1   53.47    4.73
  -3   1  -1   56.48    3.85
  -3  -1   1   51.24    3.89
   3  -1   1   50.22    4.50
   3  -1  -1   51.77    3.99
  -3  -1  -1   54.17    4.28
  -3  -1  -1   53.82    4.30
  -3   1   1   52.35    4.11
   3  -1   1   58.27    4.13
   3   1  -1   51.42    4.04
  -4   1  -1  693.24   13.82
  -4  -1   1  659.31   18.24
  -4   1  -1  684.97   18.15
  -4   1   1  688.73   18.86
   4   1   1  694.03   21.31
   4   1  -1  675.44   14.41
   4  -1   1  658.78   20.56
  -4  -1  -1  695.97   19.08
  -5  -1   1 1097.17   27.20
  -5  -1  -1 1111.24   27.68
  -5   1  -1 1153.29   27.14
  -5   1   1 1114.12   27.79
   5  -1   1 1076.50   30.42
  -6  -1   1  823.70   23.94
  -6  -1  -1  816.93   24.06
  -6   1  -1  835.07   23.69
  -6   1   1  811.01   24.19
  -7   1   1  543.96   20.16
  -7  -1   1  520.99   19.72
  -7   1  -1  546.43   19.70
  -7  -1  -1  537.17   19.84
  -8   1   1  701.66   24.89
  -8  -1   1  682.01   24.25
  -8  -1  -1  678.93   24.15
  -8   1  -1  709.22   24.26
  -9   1   1    7.96    3.49
  -9  -1   1    1.89    2.03
  -9  -1  -1    3.78    2.76
  -9   1  -1   -0.21    2.30
 -10   1   1  325.83   18.43
 -10   1  -1  344.85   18.34
 -10  -1  -1  358.61   18.75
 -10  -1   1  321.97   18.05
 -11   1   1  233.82   16.18
 -11  -1   1  236.97   16.13
 -11  -1  -1  239.99   16.01
 -11   1  -1  238.04   16.06
 -12   1   1  136.69   13.27
 -12   1  -1  149.94   13.44
 -12  -1   1  185.34   15.14
 -12  -1  -1  155.29   13.79
 -13   1  -1  513.36   26.46
 -13  -1   1  525.14   26.94
 -13  -1  -1  500.40   26.14
 -13   1   1  532.97   27.56
   0  -1  -2    0.14    0.59
   0  -1  -2    0.93    0.68
   0  -1   2    1.06    0.63
   0  -1   2    0.23    0.62
   0   1  -2    0.31    0.63
   0   1   2    0.47    0.70
   0   1   2    0.26    0.75
   1   1   2  267.71    9.00
  -1  -1  -2  258.38    9.43
   1   1   2  262.26   10.24
  -1  -1   2  266.44    8.84
   1  -1   2  267.97    9.40
   1  -1   2  269.42    6.39
  -1  -1   2  260.05    6.66
  -1  -1  -2  285.65    9.92
  -1   1  -2  292.46    9.36
   1   1   2  263.57    9.59
   1  -1  -2  272.29    7.97
  -1   1  -2  268.91    8.94
   1   1  -2  283.12    8.90
   1   1  -2  266.73    9.07
  -1  -1   2  272.27    9.17
  -1   1   2  285.92    6.56
   1  -1  -2  274.61    9.15
   1  -1   2  265.53    9.23
   1  -1   2  268.22    7.24
  -1   1  -2  262.47    7.20
  -1   1   2  255.97    7.85
  -1   1   2  277.02    9.13
   1  -1   2  287.58   10.23
  -1   1  -2  284.17    6.43
   2   1   2  386.06   13.60
  -2  -1  -2  373.64   11.94
  -2   1   2  396.04   10.90
  -2  -1  -2  409.96   12.95
  -2   1  -2  425.55   13.22
  -2  -1   2  428.05   11.79
   2   1  -2  397.25   11.70
  -2  -1   2  405.65   10.71
   2  -1   2  401.60   13.09
  -2   1  -2  395.83    9.18
  -2   1  -2  406.81   10.18
   2  -1  -2  411.74   11.87
   2   1   2  415.20   12.84
  -2   1  -2  401.92   11.65
  -2  -1  -2  409.26   12.57
   2  -1  -2  427.04    9.01
  -2   1  -2  432.06   11.68
   2  -1   2  403.24   11.90
   2  -1  -2  413.29   10.88
   2  -1   2  421.33   10.69
   2  -1   2  400.47    9.37
  -2   1   2  400.98   11.83
   2   1  -2  438.90   10.93
  -3   1  -2  936.60   22.66
  -3  -1   2  869.03   20.05
   3  -1   2  826.25   22.51
   3  -1   2  899.72   20.52
   3   1   2  861.91   23.02
   3  -1   2  866.87   19.63
  -3   1  -2  864.94   17.07
  -3  -1   2  920.69   19.31
   3   1  -2  935.65   20.73
  -3   1  -2  908.81   19.66
  -3  -1  -2  882.32   22.04
   3   1   2  849.32   23.37
  -3   1  -2  905.13   19.26
  -3   1   2  867.90   20.45
   3  -1  -2  891.45   19.67
  -3   1   2  889.89   20.45
  -3  -1  -2  943.34   22.09
  -4   1  -2 1022.01   23.35
   4   1   2  947.86   27.47
  -4   1   2 1024.65   23.46
  -4  -1  -2 1002.18   25.13
  -4  -1   2 1013.17   23.96
  -4   1   2 1017.44   25.23
   4  -1   2  995.41   27.63
  -4   1  -2  970.46   19.75
   4  -1   2  997.98   24.74
  -4  -1   2 1062.93   20.95
   5   1   2  108.09    9.06
   5  -1   2  100.48    8.65
  -5   1  -2  106.54    6.92
  -5   1   2  103.21    7.44
  -5  -1  -2  106.37    7.57
  -5   1   2  106.64    6.70
  -5  -1   2   96.24    6.88
  -6   1  -2    3.41    2.19
   6   1   2    4.98    2.56
  -6  -1  -2    3.54    1.86
  -6   1   2    5.22    2.05
  -6  -1   2    4.53    2.13
   6  -1   2    6.55    2.55
  -7   1  -2   33.79    4.64
   7  -1   2   26.07    5.52
  -7   1   2   30.47    5.02
  -7  -1  -2   26.55    4.22
  -7  -1   2   26.73    4.35
  -8  -1  -2  384.34   17.52
  -8  -1   2  366.58   17.16
  -8   1  -2  412.06   17.62
  -8   1   2  382.17   17.95
  -8   1   2  376.90    8.60
  -9  -1  -2   -0.21    2.60
  -9   1   2    3.51    2.85
  -9  -1   2    5.81    2.95
  -9   1  -2    4.88    1.84
 -10   1   2  401.13   20.82
 -10  -1   2  410.87   20.59
 -10   1  -2  452.84   21.00
 -10  -1  -2  418.58   20.54
 -11   1   2  141.58   12.94
 -11  -1   2  135.79   12.32
 -11   1  -2  135.71   12.00
 -11  -1  -2  141.76   12.65
 -12   1  -2   35.72    6.86
 -12   1   2   26.34    5.10
 -12  -1   2   32.48    6.72
 -12   1   2   27.90    6.70
 -12  -1  -2   24.84    5.83
   0  -1   3  208.77    8.00
   0  -1  -3  193.45    8.55
   0  -1   3  208.23    6.24
   0  -1   3  224.11    9.68
   0  -1   3  191.34    8.44
   0  -1  -3  195.64    8.76
   0   1   3  214.15    9.17
  -1   1   3 1624.89   29.14
   1   1   3 1596.59   33.56
   1   1   3 1544.50   34.52
  -1  -1  -3 1600.68   33.09
  -1   1   3 1632.09   32.78
   1  -1   3 1742.87   34.44
  -1   1  -3 1651.32   27.52
   1  -1   3 1620.66   27.89
  -1  -1   3 1747.16   34.11
   1   1  -3 1676.22   32.50
  -1  -1  -3 1674.72   33.49
  -1   1  -3 1586.03   30.00
  -1  -1   3 1603.60   31.86
   1  -1   3 1555.48   33.34
  -1  -1   3 1572.17   31.81
   1   1   3 1613.47   33.57
   1  -1  -3 1626.25   32.94
   1  -1   3 1601.63   29.81
  -1   1   3 1620.57   31.98
  -1   1   3 1539.91   28.56
  -2  -1   3  934.03   22.13
  -2  -1  -3  886.40   22.49
   2   1   3  893.77   24.41
   2   1  -3  894.71   21.00
   2   1   3  842.74   22.48
   2  -1   3  909.15   22.61
  -2  -1  -3  840.64   21.97
   2  -1  -3  909.52   18.02
  -2   1  -3  864.33   18.28
   2  -1   3  836.78   23.34
  -2   1   3  902.68   21.97
   2  -1   3  887.05   21.77
  -2   1  -3  843.82   18.73
  -2  -1   3  908.84   18.88
   2   1   3  915.55   15.69
   2   1   3  875.46   22.87
  -2   1   3  847.43   18.77
   2  -1   3  887.10   18.93
   2   1  -3  888.68   14.77
  -2   1  -3  866.25   20.71
  -2  -1  -3  917.03   23.13
   2  -1  -3  848.75   18.68
   2  -1   3  870.05   18.85
  -3   1  -3    1.58    0.82
   3   1  -3    2.83    1.24
  -3  -1  -3    1.62    1.27
   3  -1  -3    0.94    0.74
   3  -1   3    0.72    0.61
   3  -1   3    1.32    1.30
   3  -1   3    2.83    0.96
  -3  -1   3    0.74    0.95
  -3  -1   3    0.74    0.89
   3   1   3    0.27    1.02
  -3   1   3    3.22    1.20
  -3   1  -3    0.78    0.92
  -3   1   3    2.97    1.34
  -3   1  -3    0.90    0.94
   3  -1  -3    0.85    0.78
   3  -1   3    0.86    1.05
  -4  -1   3  474.87   15.29
   4  -1   3  513.06   19.09
   4  -1   3  502.56   15.70
  -4  -1  -3  479.01   16.61
  -4  -1  -3  475.45   10.57
  -4   1  -3  443.99   14.56
  -4   1   3  495.82   16.19
  -4   1  -3  514.16   15.01
   4   1   3  480.43   18.60
  -4   1  -3  456.50   12.93
  -4  -1   3  516.31   14.89
   5  -1   3  670.54   24.63
  -5  -1  -3  693.02   21.81
  -5   1  -3  671.17   17.30
  -5   1   3  696.98   22.08
  -5  -1   3  676.95   20.52
  -5   1   3  704.19   21.09
  -5  -1   3  757.15   18.56
   5  -1   3  712.66   19.48
   5   1   3  695.92   25.52
  -5   1  -3  735.87   20.33
   6   1   3  684.12   27.17
  -6   1  -3  694.49   18.25
   6  -1   3  672.79   26.82
  -6   1   3  706.83   22.10
  -6  -1   3  708.63   22.40
  -6   1  -3  713.17   21.40
  -6   1   3  690.17   23.22
  -6  -1  -3  705.62   22.93
  -7   1   3  533.20   19.45
  -7   1  -3  512.59   18.89
   7   1   3  517.88   25.04
  -7  -1   3  500.79   19.67
  -7   1   3  497.06   20.43
  -7   1  -3  479.73   15.27
   7  -1   3  468.87   23.62
  -7  -1  -3  528.08   20.33
   8   1   3  596.70   28.63
  -8  -1  -3  601.62   23.01
  -8   1   3  582.34   23.54
  -8   1  -3  538.25   20.86
   8  -1   3  591.45   28.40
  -8  -1   3  579.28   22.60
  -8   1   3  567.50   21.48
  -9   1   3    7.05    2.74
  -9  -1   3    5.22    2.81
  -9  -1  -3    1.29    2.04
  -9   1   3    2.93    2.62
  -9   1  -3    7.40    3.08
 -10  -1   3  234.36   15.56
 -10   1   3  254.90   16.59
 -10   1  -3  239.40   15.06
 -10  -1  -3  242.14   15.76
 -10   1   3  257.45   15.15
 -11   1   3  191.26   13.73
 -11  -1  -3  187.19   14.55
 -11   1  -3  197.30   14.38
 -11  -1   3  187.48   14.61
 -11   1   3  204.82   15.82
 -12  -1  -3  213.30   16.26
 -12   1  -3  202.63   15.44
 -12   1   3  199.40   16.34
 -12  -1   3  190.26   15.67
 -12   1   3  201.51   14.59
   0  -1   4    3.00    1.41
   0  -1   4    1.60    0.79
   0   1   4    1.09    1.06
   0  -1  -4    0.35    0.94
   0   1   4    2.66    1.35
   1  -1   4  188.40    7.48
   1   1   4  175.26    9.67
  -1  -1  -4  201.76    9.63
  -1   1   4  186.35    9.54
  -1   1   4  181.46    7.64
  -1   1   4  175.95    7.04
  -1  -1   4  189.04    9.06
   1   1   4  198.19   10.51
   1  -1   4  180.36    8.28
  -1   1  -4  185.05    8.54
  -1   1  -4  191.96    6.80
  -1  -1   4  187.71    6.88
  -2   1  -4  740.53   17.52
   2  -1   4  691.43   20.69
   2  -1   4  666.61   22.97
   2   1  -4  733.25   20.14
  -2   1   4  742.17   17.18
  -2   1   4  744.06   17.59
  -2  -1  -4  714.52   20.97
   2   1   4  750.96   22.05
   2  -1   4  707.12   18.47
   2   1   4  684.70   21.94
  -2  -1   4  744.53   20.99
  -2   1   4  743.17   21.29
   2  -1   4  736.46   18.04
  -2   1  -4  713.20   18.77
  -3   1  -4  918.77   21.17
   3   1  -4  883.69   22.94
   3  -1   4  855.30   22.12
  -3  -1   4  891.47   21.46
  -3   1  -4  882.26   21.35
   3   1   4  849.35   25.79
   3  -1  -4  863.91   20.08
   3   1  -4  909.08   16.14
   3  -1   4  837.26   26.50
   3   1   4  869.03   25.30
  -3   1   4  886.62   24.46
   3  -1  -4  877.67   20.07
   3  -1   4  862.31   21.35
  -3   1   4  870.77   20.79
  -3  -1  -4  917.68   24.85
   4   1  -4  306.32   12.85
  -4   1   4  305.13   13.53
  -4   1  -4  302.88   11.25
   4  -1   4  301.80   15.60
  -4  -1  -4  301.54   13.67
  -4   1  -4  280.80   11.40
  -4   1  -4  303.40   11.63
  -4   1   4  301.03   11.75
   4   1   4  320.40   15.68
   4  -1  -4  317.07   10.75
   4   1  -4  298.84    9.32
  -4  -1   4  317.40   12.43
  -5   1  -4  610.24   17.81
   5  -1  -4  637.61   17.28
  -5   1  -4  616.26   18.70
  -5  -1  -4  579.63   13.30
   5   1  -4  582.50   16.25
  -5   1   4  610.24   20.78
  -5  -1  -4  591.45   20.47
   5  -1   4  522.83   22.68
   5   1   4  569.12   23.50
  -5  -1   4  580.43   19.21
  -5   1   4  584.89   20.76
  -5   1  -4  588.28   17.10
  -6  -1   4    7.61    2.49
   6  -1   4    6.94    3.62
  -6   1  -4    8.32    2.00
  -6  -1  -4   11.35    2.95
  -6   1   4    9.61    2.85
   6   1   4   12.35    4.42
  -6   1  -4   12.95    2.61
  -6   1   4   10.05    2.94
  -6  -1  -4    7.16    1.39
  -6   1  -4    9.12    2.34
  -7   1   4  218.90   13.60
  -7  -1  -4  229.50   13.31
   7  -1   4  213.51   16.18
  -7   1   4  232.54   13.31
  -7   1  -4  228.62   11.27
  -7   1  -4  233.97   12.47
   7   1   4  227.61   16.90
  -7  -1   4  224.49   13.01
   8   1   4  484.60   26.67
  -8  -1   4  453.69   20.27
  -8   1   4  487.93   20.79
  -8   1  -4  470.80   19.42
   8  -1   4  478.44   26.34
  -8   1   4  498.94   22.19
  -8  -1  -4  469.52   20.54
   9   1   4  225.56   19.25
  -9  -1  -4  238.19   15.07
  -9   1   4  264.23   16.69
   9  -1   4  217.55   18.86
  -9   1   4  226.41   14.32
  -9  -1   4  237.56   15.10
  -9   1  -4  243.65   14.36
 -10   1  -4  633.16   25.63
 -10  -1  -4  654.42   26.98
 -10  -1   4  652.13   27.34
 -10   1   4  640.38   26.27
  10  -1   4  604.86   33.75
 -10   1   4  667.67   28.62
 -11  -1   4  227.04   16.45
 -11   1   4  225.00   15.72
 -11   1  -4  206.45   14.95
 -11  -1  -4  221.84   16.06
 -11   1   4  227.72   17.08
 -12   1   4   24.30    6.33
 -12  -1  -4   16.80    4.82
 -12   1  -4   17.76    5.40
 -12   1   4   11.02    3.55
 -12  -1   4   14.14    5.59
   0  -1  -5  107.78    7.47
   0   1   5  114.57    8.35
   0  -1   5  120.87    7.78
   0  -1   5  105.14    6.22
  -1  -1   5 1043.55   23.18
  -1   1  -5 1102.44   22.77
   1  -1   5 1103.32   26.76
  -1   1   5 1092.70   23.22
  -1  -1  -5 1103.48   27.88
  -1  -1   5 1117.13   28.26
  -1   1   5 1149.19   29.38
   1   1   5 1122.96   29.58
   1  -1   5 1065.76   25.21
   1   1   5 1127.07   31.28
  -2   1  -5  420.41   12.96
   2  -1   5  419.23   14.79
  -2   1   5  421.01   12.30
   2   1  -5  407.26   15.51
  -2  -1  -5  409.25   15.79
   2  -1   5  425.62   14.26
   2   1   5  427.88   17.11
  -2   1   5  422.73   16.72
   2  -1   5  407.25   18.88
  -2  -1   5  421.71   16.68
   2   1   5  412.68   17.86
  -3   1  -5    0.39    0.90
  -3   1   5    1.81    1.10
   3   1   5    3.93    2.15
   3   1  -5    3.18    1.78
   3   1   5    0.79    0.75
   3  -1   5    4.26    2.32
  -3  -1   5    1.13    1.62
  -3  -1   5   -0.08    1.06
   3  -1   5   -0.23    0.91
   3   1   5    0.78    1.29
   3  -1   5    1.66    1.34
  -3  -1  -5   -0.31    1.52
  -3   1   5    1.05    1.90
  -4  -1  -5  342.35   15.29
   4  -1  -5  349.95   12.65
   4   1  -5  342.91   14.42
   4   1   5  330.67   17.13
  -4   1  -5  340.88   13.23
  -4  -1   5  369.92   16.36
  -4   1   5  343.21   12.70
   4  -1   5  300.01   17.12
   4   1  -5  341.12    9.03
  -4   1   5  331.88   15.40
   4  -1   5  354.39   14.07
  -4  -1   5  358.51   13.91
   5  -1   5  135.83   11.74
  -5   1  -5  163.15    9.38
   5   1  -5  155.49    9.83
   5  -1  -5  162.43    8.49
  -5  -1  -5  154.30   10.41
  -5   1   5  148.22   10.65
  -5   1  -5  159.60    8.80
   5   1   5  164.81   12.74
  -5  -1   5  148.45   10.65
  -5  -1   5  151.47    9.58
   5   1  -5  165.49    6.95
   6   1   5  125.61   11.76
   6  -1   5  113.14   11.42
  -6   1  -5  129.24    8.23
  -6   1  -5  153.70    9.65
   6   1  -5  124.91    9.31
   6  -1  -5  131.66    8.02
  -6  -1  -5  122.12    9.68
  -6   1   5  127.72   10.15
  -6   1   5  132.63   10.40
  -6  -1   5  123.33    9.28
   7   1  -5  640.36   23.72
   7  -1  -5  659.36   20.89
  -7   1  -5  676.47   22.78
  -7  -1   5  644.23   23.74
  -7   1  -5  602.37   19.70
  -7  -1  -5  662.38   16.03
   7  -1   5  622.88   29.87
  -7  -1  -5  662.37   24.56
   7   1   5  606.69   29.44
  -7   1   5  632.34   24.93
  -7   1   5  653.32   24.98
  -8   1  -5   41.92    4.96
   8  -1   5   40.09    8.72
  -8  -1   5   50.12    7.08
   8  -1  -5   42.06    5.25
   8   1   5   40.76    8.27
  -8   1   5   33.91    6.00
  -8   1   5   41.60    6.68
  -8   1  -5   40.82    5.72
  -8  -1  -5   40.23    6.25
   9  -1   5   76.89   11.55
   9   1   5   73.62   11.43
  -9  -1   5   72.89    8.65
  -9  -1  -5   80.22    8.88
  -9   1  -5   80.89    7.35
  -9   1   5   92.48    9.99
  -9   1   5   79.74    9.01
  -9   1  -5   87.54    8.71
 -10  -1   5   98.72   10.63
  10  -1   5   89.45   13.25
 -10  -1  -5   88.20    9.76
 -10   1  -5   98.57    9.92
 -10   1   5   97.33   10.39
 -10   1   5  100.50   11.42
  10   1   5   98.52   13.97
  11  -1   5  238.65   22.73
 -11   1   5  243.47   18.02
 -11  -1   5  228.42   17.12
 -11   1   5  213.85   16.38
 -11  -1  -5  258.14   17.43
 -11   1  -5  233.52   16.00
   0   1   6    0.85    1.56
   0  -1   6   -0.77    1.32
   0  -1   6    0.34    1.06
  -1   1  -6  624.37   16.69
   1   1   6  637.87   22.50
  -1   1   6  618.91   22.04
  -1   1   6  635.65   16.47
   1  -1   6  611.81   19.55
  -1  -1   6  573.13   17.39
   1  -1   6  641.81   20.69
  -1  -1   6  658.71   21.93
  -1  -1  -6  617.99   20.46
   1   1   6  619.74   24.00
   2   1   6 1076.21   33.30
   2  -1   6 1112.84   28.96
  -2  -1   6 1152.00   31.21
   2   1   6 1083.67   31.61
  -2   1   6 1071.72   30.91
  -2   1   6 1055.69   23.26
  -2   1  -6 1069.39   24.91
   2  -1   6 1045.05   27.56
   2  -1   6 1069.78   35.30
  -2  -1  -6 1054.43   29.20
  -3  -1   6  515.67   16.83
   3   1  -6  508.35   19.07
   3  -1   6  493.22   18.34
  -3  -1   6  538.22   20.62
   3   1   6  553.72   15.73
  -3   1  -6  497.91   16.19
   3   1   6  462.39   21.21
   3   1   6  483.23   20.43
  -3   1   6  513.46   20.59
  -3  -1  -6  520.47   19.39
   3  -1   6  467.30   22.33
  -3   1   6  504.74   14.97
   4  -1   6  385.26   16.21
  -4   1   6  381.35   13.53
  -4  -1  -6  396.16   17.22
  -4   1  -6  393.76   15.04
   4  -1   6  345.53   19.73
  -4   1   6  370.48   17.77
  -4  -1   6  375.08   15.12
  -4  -1   6  393.66   18.22
   4   1   6  355.22   19.24
   4   1  -6  370.70   16.26
  -5  -1   6  730.73   23.33
  -5   1   6  698.26   26.00
   5   1  -6  715.58   15.92
   5   1   6  652.48   28.25
   5  -1   6  657.73   29.26
   5  -1  -6  711.15   21.17
  -5   1  -6  695.77   22.21
  -5  -1   6  699.10   26.33
   5   1  -6  728.10   23.89
  -5  -1  -6  739.62   25.20
  -6   1   6   19.76    4.75
   6  -1  -6   26.17    3.95
  -6   1   6   15.97    3.72
  -6   1  -6   16.71    3.48
  -6  -1   6   28.05    5.63
  -6  -1   6   20.39    4.13
  -6  -1  -6   24.59    4.54
   6   1   6   18.46    5.17
   6  -1   6   26.64    5.70
   6   1  -6   17.42    3.96
  -7   1   6  211.72   14.34
   7   1  -6  205.16   13.07
   7  -1  -6  209.66   11.46
   7  -1   6  195.53   16.95
  -7  -1  -6  216.22   14.02
   7   1   6  200.57   16.95
  -7   1  -6  219.19   12.59
  -7   1   6  214.69   15.09
  -7  -1   6  218.28   13.66
  -7   1  -6  212.99   11.09
  -7  -1   6  215.81   14.82
   8   1   6  280.87   21.63
  -8   1   6  290.60   18.18
  -8   1   6  310.25   18.47
  -8  -1   6  337.13   17.96
  -8   1  -6  312.53   14.15
  -8   1  -6  304.80   16.04
   8   1  -6  343.35   17.69
   8  -1   6  318.44   23.13
  -8  -1   6  291.97   18.36
   8  -1  -6  302.48   14.77
  -8  -1  -6  297.67   17.24
  -9   1  -6  351.17   18.20
   9  -1  -6  383.52   17.53
   9   1   6  390.69   26.80
  -9  -1   6  374.20   20.21
   9   1  -6  365.92   19.43
  -9  -1   6  342.70   20.66
  -9   1   6  368.62   20.83
  -9  -1  -6  345.07   19.33
   9  -1   6  356.44   26.25
  -9   1   6  375.90   21.45
 -10   1  -6  406.85   20.64
 -10   1   6  389.01   22.77
 -10  -1   6  434.50   24.12
 -10   1   6  433.48   24.18
  10   1  -6  435.07   22.38
 -10  -1   6  418.30   22.68
  10   1   6  453.98   30.75
 -10  -1  -6  386.33   21.45
  10  -1   6  455.94   31.18
 -11   1  -6  194.24   14.57
 -11   1   6  186.21   16.48
  11  -1   6  149.01   19.09
  11   1  -6  191.69   15.39
 -11  -1   6  202.36   16.42
 -11   1   6  154.29   14.67
 -11  -1  -6  184.74   15.25
 -11  -1   6  158.17   14.76
  11   1   6  214.02   22.58
   0  -1   7   23.25    4.63
   0   1   7   19.26    4.28
  -1  -1  -7  506.37   19.43
   1   1   7  531.22   21.83
  -1  -1   7  527.60   21.15
   1  -1   7  530.78   20.10
  -1   1   7  541.21   15.31
  -1   1   7  509.11   21.26
   1   1   7  523.77   23.58
  -2   1   7   16.41    2.56
   2   1   7   14.84    4.52
  -2  -1   7   14.65    3.88
   2  -1   7   15.60    3.52
  -2   1   7   13.91    3.87
  -2   1  -7    9.50    2.26
   2   1   7   19.65    4.66
   2  -1   7   13.72    5.01
  -2  -1  -7   17.03    3.49
   3  -1   7   18.77    3.88
  -3   1   7   10.20    2.19
   3  -1   7    5.69    3.38
  -3  -1   7   12.60    3.79
   3   1   7    8.74    2.47
   3   1   7    9.96    3.76
  -3  -1  -7    5.82    2.45
  -3   1  -7    4.14    1.85
  -3   1   7   10.35    3.57
   3   1   7    5.60    2.31
   4   1   7   95.46   10.57
  -4   1   7  110.87    7.11
   4   1  -7  104.46    9.10
  -4  -1  -7  123.53    9.80
  -4   1  -7  114.42    7.95
   4  -1   7  100.81   11.33
  -4  -1   7  116.60    8.54
   4  -1   7  117.65    9.47
  -4  -1   7  109.35   10.05
  -4   1   7  105.73   10.01
   4   1   7  111.70   10.37
  -5   1  -7  231.11   12.38
  -5   1   7  244.36   15.44
   5  -1   7  229.50   13.71
  -5  -1  -7  238.95   14.20
   5   1  -7  235.64   13.88
   5   1   7  220.77   16.69
   5  -1   7  201.90   17.12
  -5  -1   7  238.10   15.78
  -5  -1   7  265.25   13.84
   6  -1  -7    2.44    2.37
  -6   1   7   -1.74    2.39
  -6   1  -7    2.05    2.33
  -6   1   7    1.71    2.23
  -6  -1   7    9.54    3.60
  -6  -1   7    8.46    4.49
   6   1  -7    2.68    2.91
  -6  -1  -7   -3.02    2.74
   6   1   7    5.87    2.93
   6  -1   7    9.78    7.53
  -7   1  -7  536.66   21.24
   7  -1  -7  494.31   19.19
  -7   1   7  497.10   24.24
  -7  -1   7  502.42   24.74
   7   1   7  483.60   28.03
   7  -1   7  444.16   27.14
  -7  -1   7  504.76   22.11
  -7   1   7  503.65   23.54
  -7  -1  -7  512.12   22.71
   7   1  -7  518.99   22.00
  -8   1   7   12.37    4.53
  -8  -1   7    7.71    3.31
   8   1  -7    6.54    3.75
   8   1   7    6.07    4.01
  -8   1  -7    2.73    2.06
   8  -1   7    6.55    4.80
  -8  -1   7   14.02    5.06
  -8  -1  -7    5.56    3.03
  -8   1   7   13.70    5.20
   8  -1  -7    3.08    2.18
   9   1  -7   39.54    6.69
  -9  -1   7   45.84    8.24
   9  -1   7   35.29    9.01
  -9  -1  -7   38.02    6.79
  -9   1   7   40.09    7.93
  -9   1   7   45.58    7.82
  -9  -1   7   46.97    7.60
  -9   1  -7   42.36    6.32
   9   1   7   35.32    8.58
  10  -1   7   17.18    6.31
 -10  -1   7   20.34    6.39
  10   1  -7   13.72    4.47
 -10   1   7    7.68    4.25
 -10  -1   7   17.06    5.10
  10   1   7   16.47    7.06
 -10  -1  -7   13.93    4.54
 -10   1   7   12.59    5.30
 -10   1  -7   10.63    3.77
   0  -1   8   -1.49    1.83
   0   1   8   -0.95    2.32
  -1   1   8  682.23   26.64
   1  -1   8  650.52   24.53
   1   1   8  677.64   28.98
   1   1   8  735.78   27.50
  -1  -1   8  692.94   25.94
  -1   1   8  671.10   18.10
   1  -1   8  646.03   29.74
   2  -1   8  405.62   18.81
  -2   1   8  433.83   20.96
  -2  -1   8  411.03   19.89
   2  -1   8  393.64   23.41
  -2  -1  -8  386.71   17.56
  -2   1  -8  380.34   14.71
  -2   1   8  423.31   13.22
   2   1   8  471.36   22.11
   2   1   8  377.87   21.85
   3   1   8  323.44   20.09
  -3   1   8  354.61   12.53
  -3   1   8  367.17   19.44
   3   1   8  395.75   20.45
  -3  -1  -8  342.79   16.73
  -3   1  -8  338.28   14.06
  -3  -1   8  337.75   18.79
   3  -1   8  322.23   20.90
   3  -1   8  361.16   18.02
   4   1   8  459.57   25.06
  -4  -1   8  436.68   22.44
   4   1   8  476.21   23.47
  -4  -1   8  465.69   18.68
   4  -1   8  452.79   20.73
  -4  -1  -8  462.25   20.25
  -4   1   8  464.94   15.28
  -4   1  -8  444.59   17.36
  -4   1   8  474.95   23.08
   4  -1   8  394.95   24.16
  -5   1   8  271.56   17.82
   5  -1   8  261.98   15.74
  -5   1  -8  273.71   13.88
   5   1   8  270.29   19.92
   5  -1   8  245.01   19.39
  -5  -1   8  251.21   14.35
  -5  -1  -8  305.94   16.52
  -5  -1   8  283.31   17.96
   6  -1   8  115.15   14.15
  -6  -1  -8  107.71   10.10
  -6  -1   8  100.99   11.40
  -6   1   8   92.25    9.87
   6   1   8  111.29   13.10
   6   1  -8   92.48    9.33
  -6  -1   8   94.98    9.18
  -6   1   8  110.53   12.05
  -6   1  -8  101.50    8.88
   7   1  -8  355.67   19.15
   7   1   8  364.81   25.00
  -7  -1  -8  358.44   19.29
  -7   1   8  341.94   21.30
  -7   1  -8  364.71   17.67
   7  -1   8  303.69   23.31
  -7  -1   8  361.50   21.86
  -7   1   8  364.29   20.62
  -7  -1   8  391.88   19.87
   8   1   8  113.00   15.05
  -8   1   8   95.78   10.86
  -8  -1  -8   96.30   10.24
  -8   1   8   92.07   11.69
  -8   1  -8   98.13    9.60
  -8  -1   8  100.53   10.47
   8  -1   8   86.18   13.24
  -8  -1   8   97.61   11.98
   8   1  -8   98.08   10.29
  -9   1  -8  163.43   12.95
  -9   1   8  186.52   16.40
  -9  -1   8  185.27   16.38
   9   1  -8  166.63   13.76
   9   1   8  172.87   19.72
  -9  -1   8  168.29   14.30
  -9   1   8  180.53   15.78
   9  -1   8  175.84   19.87
  -9  -1  -8  182.25   14.60
   0   1   9   75.29    9.31
   0  -1   9   70.80    8.35
   0   1   9   71.29    5.82
   1  -1   9  266.16   20.11
   1   1   9  285.75   17.96
   1   1   9  305.09   20.12
   1  -1   9  292.97   16.97
  -1  -1   9  282.85   17.08
  -1   1   9  282.67   17.83
  -2  -1   9   42.44    6.98
   2  -1   9   40.07    6.46
  -2   1   9   50.45    7.54
   2   1   9   40.24    7.87
   2   1   9   43.24    7.23
   2  -1   9   41.45    8.39
  -2  -1  -9   37.70    5.41
  -3   1   9    1.08    2.43
  -3  -1   9    2.84    2.53
   3   1   9   -0.78    3.29
  -3   1  -9    0.88    1.50
   3   1   9    0.88    2.83
  -3  -1  -9   -0.90    2.59
   3  -1   9   -1.04    4.27
   3  -1   9    3.33    2.54
   4   1   9    5.32    4.16
  -4  -1  -9   -0.23    1.95
  -4   1  -9    2.64    1.92
  -4   1   9    2.16    2.99
   4  -1   9    1.08    3.58
   4   1   9   -0.69    3.23
  -4  -1   9    2.06    2.70
  -4  -1   9   -0.18    2.19
   4  -1   9   -1.92    2.20
  -5   1  -9  306.10   15.40
   5  -1   9  313.77   23.35
   5  -1   9  338.39   19.45
  -5   1   9  328.18   20.73
   5   1   9  350.40   24.01
  -5  -1   9  349.80   17.51
  -5  -1   9  335.70   21.29
  -5  -1  -9  351.02   18.40
  -6   1   9   13.81    4.61
  -6  -1   9   17.48    4.59
  -6  -1  -9   24.86    5.52
  -6   1   9   24.10    6.53
   6  -1   9    7.61    4.20
  -6  -1   9   24.98    6.92
   6   1   9   21.91    7.35
  -7   1   9  285.48   20.32
  -7  -1   9  261.51   19.86
   7  -1   9  260.65   22.88
  -7  -1  -9  281.46   17.39
   7   1   9  251.58   21.66
  -7  -1   9  266.74   16.92
  -7   1   9  262.16   18.13
  -8  -1  -9    7.65    3.64
   8   1   9    8.68    4.98
  -8  -1   9    0.69    3.19
  -8   1   9    6.80    3.36
  -8  -1   9    5.50    3.64
  -8   1   9   15.44    6.27
   8  -1   9    9.03    5.97
   8   1  -9    5.15    3.99
   0  -1  10    0.03    2.55
   0   1  10    5.29    3.71
  -1   1  10  217.19   16.51
   1   1  10  188.64   17.48
   1   1  10  252.39   18.07
   1  -1  10  215.48   15.73
  -1  -1  10  236.77   16.78
   1  -1  10  211.33   18.56
   2  -1  10  180.11   14.23
  -2   1  10  170.80   15.03
   2   1  10  192.42   15.81
  -2  -1  10  149.35   13.64
   2   1  10  136.06   14.39
   2  -1  10  159.78   16.66
   3  -1  10  200.37   15.30
  -3  -1 -10  203.66   13.93
  -3   1  10  201.57   16.47
  -3  -1  10  206.26   16.55
   3   1  10  208.81   18.28
   3   1  10  224.41   17.35
   3  -1  10  177.78   17.80
   4  -1  10  344.78   20.49
   4   1  10  323.08   23.28
  -4   1  10  330.00   21.35
  -4  -1  10  330.14   21.76
   4   1  10  374.36   23.06
  -4  -1 -10  338.85   18.25
   4  -1  10  324.73   24.50
  -5  -1 -10  105.62   10.27
  -5   1  10  100.97   12.42
   5  -1  10   96.20   13.66
   5  -1  10  110.36   11.76
  -5  -1  10  102.09   12.72
   5   1  10  116.08   14.64
  -6   1  10   12.47    4.62
   6  -1  10   15.67    5.88
   6   1  10    1.75    3.61
  -6  -1 -10   24.70    5.85
  -6   1  10   10.76    4.92
  -6  -1  10    7.41    4.22
  -7   1  10  351.21   23.93
  -7  -1  10  353.22   24.45
  -7  -1 -10  388.28   21.26
   7   1  10  326.31   25.96
  -7   1  10  349.45   21.64
   7  -1  10  343.95   27.86
   0   1  11   42.45    8.78
   0  -1  11   50.71    9.91
   0   1  11   45.31    8.94
   0  -1  11   36.19    7.61
   1  -1  11  118.12   12.34
  -1   1  11  122.99   13.48
   1   1  11  128.53   14.98
   1   1  11  126.09   13.86
  -1  -1  11  130.84   13.34
   1  -1  11  132.63   16.07
   2  -1  11   54.55    8.62
  -2   1  11   54.10    9.18
  -2  -1  11   55.47    9.15
   2   1  11   54.60    9.73
   2  -1  11   27.88    7.84
   2   1  11   63.82    9.72
  -3  -1  11   41.51    8.47
   3   1  11   43.01    8.94
   3  -1  11   30.63    8.20
   3  -1  11   38.87    7.49
   3   1  11   31.65    7.44
  -3   1  11   35.16    7.75
   4  -1  11  131.63   16.11
  -4   1  11  134.12   14.53
   4   1  11  150.27   16.75
  -4  -1  11  152.09   15.71
   4  -1  11  135.56   13.65
   4   1  11  127.09   14.41
  -5   1  11  103.80   13.39
  -5  -1  11  119.56   14.04
   5   1  11   98.93   14.15
   5  -1  11  107.54   15.35
   0   1  12   -8.29    6.17
   0  -1  12   -1.37    3.31
   0   1  12    6.09    5.31
   0  -1  12    5.67    5.57
  -1  -1  12  106.49   12.79
   1   1  12  118.12   14.31
  -1   1  12  121.80   14.28
   1  -1  12  108.04   12.78
   1   1  12  107.37   14.28
   1  -1  12  122.54   16.25
   0   2   0  401.47   10.91
   0   2   0  415.54   11.05
   0  -2   0  424.22   11.15
   0   2   0  391.66   11.00
   1  -2   0    0.26    0.44
   1  -2   0    0.15    0.28
   1  -2   0    0.44    0.54
  -1   2   0    0.40    0.68
  -1  -2   0    1.12    0.84
   1   2   0    1.26    0.69
  -1   2   0    0.57    0.43
   1  -2   0    0.98    0.54
  -2   2   0 3363.63   57.48
  -2   2   0 3442.91   55.00
  -2  -2   0 3440.85   57.53
  -2   2   0 3420.92   52.46
   2  -2   0 3468.87   51.92
   2  -2   0 3415.58   56.93
   2   2   0 3463.69   58.53
  -3   2   0    1.75    1.42
  -3   2   0    0.25    0.48
  -3   2   0    0.04    0.83
   3   2   0    1.05    0.88
  -4  -2   0 1542.65   33.67
  -4   2   0 1595.35   34.08
  -4   2   0 1579.77   33.11
  -4   2   0 1555.41   27.10
  -5   2   0    0.55    0.65
  -5   2   0   -2.54    1.74
  -5  -2   0    0.23    1.31
  -6   2   0   65.14    6.20
  -6  -2   0   76.06    6.79
  -6   2   0   69.66    4.46
   7   2   0    0.27    0.83
  -7  -2   0   -3.08    2.09
  -8  -2   0 2461.56   54.98
  -8   2   0 2439.37   38.67
  -9  -2   0   -1.51    2.28
  -9   2   0    0.66    2.54
 -10  -2   0  520.81   23.29
 -10   2   0  528.53   23.67
 -11   2   0   -2.93    2.60
 -11  -2   0    3.75    2.65
 -12  -2   0   71.67    9.44
 -12   2   0   93.42   10.81
   0   2  -1   -0.14    0.53
   0  -2   1    0.56    0.74
   0   2   1    0.47    0.68
   0   2  -1    0.44    0.69
   0   2  -1   -0.08    0.36
   0  -2   1    1.10    0.48
   0  -2   1    0.30    0.59
   0  -2  -1    1.20    1.13
   0   2  -1    0.74    0.71
   0  -2   1    0.49    0.51
   0  -2  -1    0.71    0.75
   1   2  -1 1164.79   22.03
  -1  -2  -1 1249.11   20.87
   1   2   1 1120.06   26.22
   1  -2   1 1195.33   23.18
  -1   2   1 1171.37   23.96
  -1   2   1 1161.77   23.79
   1   2   1 1166.49   21.37
  -1  -2  -1 1126.60   25.53
   1  -2  -1 1184.01   23.39
   1  -2  -1 1216.33   24.23
   1   2   1 1230.25   21.62
  -1   2   1 1204.64   24.43
   1  -2   1 1228.09   22.68
   1  -2   1 1165.08   22.91
  -1   2  -1 1174.30   22.71
  -1  -2   1 1175.90   22.32
  -1   2  -1 1150.18   24.84
   2  -2   1   74.38    4.57
  -2   2   1   68.83    4.63
  -2   2  -1   75.40    4.06
  -2  -2  -1   80.33    4.30
   2   2   1   78.33    4.72
   2   2   1   75.98    5.72
  -2  -2  -1   74.42    5.39
  -2  -2  -1   73.97    3.31
  -2   2   1   70.03    4.21
   2  -2  -1   75.37    4.15
  -2   2  -1   74.63    4.60
   2  -2  -1   74.39    4.85
  -2  -2   1   72.42    4.36
   2   2  -1   76.65    4.61
  -2   2  -1   73.37    4.88
   2  -2   1   71.74    4.55
  -3  -2  -1 2359.88   45.83
  -3  -2   1 2357.16   43.63
  -3   2   1 2438.70   41.49
   3  -2   1 2357.24   45.25
   3   2  -1 2460.13   44.80
  -3   2  -1 2392.60   42.64
  -3   2   1 2409.22   45.61
   3  -2  -1 2387.54   40.65
  -3   2  -1 2498.11   44.70
  -4   2   1   84.47    4.87
   4  -2   1   87.00    6.81
  -4  -2  -1   93.82    6.80
  -4   2  -1   93.53    5.95
  -4  -2   1   88.43    6.15
  -4   2   1   81.74    6.33
  -5  -2  -1  451.24   16.79
  -5   2   1  469.42   16.91
   5  -2   1  452.79   17.96
  -5   2   1  453.27   13.29
  -5   2  -1  477.31   15.94
  -5  -2   1  460.58   16.22
   5   2  -1  446.89   13.09
  -5   2  -1  460.05   12.43
  -6   2   1   25.33    4.07
  -6  -2  -1   23.37    3.89
   6   2  -1   24.90    2.82
  -6  -2   1   26.79    4.21
  -6   2  -1   26.40    2.52
  -6   2  -1   29.96    4.14
  -6   2   1   31.64    3.45
   7   2  -1   51.56    3.85
  -7   2  -1   47.95    3.28
  -7   2   1   48.77    6.09
  -7   2  -1   51.95    5.88
  -7  -2  -1   53.06    6.24
  -7  -2   1   45.33    5.59
  -7   2   1   44.12    4.34
  -8   2   1    7.20    2.19
  -8   2   1    3.42    2.11
  -8   2  -1    5.81    2.72
  -8  -2   1    7.90    3.05
  -8  -2  -1    6.08    2.86
  -9   2   1 1025.62   33.37
  -9   2  -1 1065.48   32.73
  -9  -2  -1 1010.51   32.62
  -9  -2   1 1025.66   32.61
  -9   2   1 1000.97   27.24
 -10   2   1   94.17    9.72
 -10  -2  -1   80.76    8.90
 -10   2  -1   81.70    8.96
 -10  -2   1   71.48    8.33
 -10   2   1   84.93    7.25
 -11   2   1  239.81   16.84
 -11  -2   1  278.40   17.49
 -11  -2  -1  262.84   17.21
 -11   2  -1  276.18   17.51
 -12  -2   1    6.31    3.66
 -12   2   1    2.23    3.13
 -12   2  -1   -2.13    3.27
 -12  -2  -1    6.69    3.23
   0   2   2 9555.69  147.98
   0  -2   2 9517.84  148.48
   0   2   2 9480.85  148.02
   0   2  -2 9719.05  146.40
   0  -2   2 9843.98  145.32
   0  -2  -2 9999.00  147.35
   0  -2  -2 9805.05  148.31
   0   2  -2 9657.54  145.79
   0  -2   2 9657.33  140.67
   0   2  -2 9657.80  140.45
   1   2   2  896.96   24.09
  -1   2   2  887.92   21.82
   1   2  -2  934.22   21.85
   1   2  -2  921.33   16.78
  -1   2  -2  915.75   15.48
   1   2  -2  913.95   21.25
  -1  -2   2  934.55   17.05
   1  -2   2  925.96   21.32
   1   2   2  943.01   19.48
   1  -2   2  906.60   22.96
  -1  -2  -2  957.74   23.55
  -1   2  -2  911.61   22.34
  -1  -2  -2 1005.64   23.24
   1  -2   2  906.07   22.05
   1  -2  -2  943.26   21.62
   1   2  -2  961.08   17.40
   1  -2   2  940.44   19.03
  -1   2   2  901.16   20.82
  -1   2  -2  935.79   19.27
  -1   2   2  966.70   22.17
  -1   2  -2  937.50   21.63
   2  -2  -2  241.26    9.22
   2   2   2  238.17    9.34
  -2   2   2  236.24    9.54
  -2   2  -2  235.50    9.86
  -2  -2  -2  253.37   10.62
  -2   2  -2  235.40    7.07
   2   2  -2  250.80    8.07
  -2  -2   2  241.88    8.06
  -2   2  -2  236.73    9.26
   2  -2   2  226.88    9.71
   2  -2  -2  251.01    9.49
  -2  -2  -2  265.64    9.19
  -2   2  -2  262.37   10.46
  -2   2   2  237.71    9.23
  -2  -2  -2  236.16   10.71
   2   2  -2  238.86    9.61
   2  -2   2  222.95    5.56
   2  -2   2  215.71    8.80
  -3  -2  -2   42.32    4.61
  -3   2  -2   52.49    3.70
  -3  -2   2   45.92    3.90
  -3   2   2   46.75    4.14
   3   2  -2   46.14    3.88
   3  -2   2   43.67    4.51
  -3   2  -2   48.81    4.62
   3   2  -2   43.30    4.00
  -3   2  -2   41.50    3.79
   3  -2   2   37.28    3.31
   3  -2  -2   51.57    4.19
  -3   2   2   43.08    4.15
   3   2   2   47.01    4.88
  -3  -2  -2   44.65    4.03
  -4   2   2  251.24   10.05
  -4  -2   2  246.28   10.40
  -4  -2  -2  241.93   11.68
  -4   2  -2  238.52    9.65
  -4   2  -2  226.66    9.06
   4  -2   2  220.08    9.90
   4   2   2  226.89   12.27
   4  -2   2  207.69   11.52
  -4   2   2  233.53   10.92
   4   2  -2  234.74    9.84
   5  -2   2    9.49    2.98
  -5   2   2   10.94    2.19
  -5   2  -2   12.20    2.11
  -5  -2   2    7.85    2.07
  -5   2  -2    8.91    2.14
  -5   2   2   14.51    3.43
   5   2  -2    8.47    2.00
   5   2   2   10.40    3.11
  -5   2  -2   10.90    1.23
  -5  -2  -2   13.49    3.24
  -6  -2   2 3832.63   71.01
   6   2  -2 3871.53   65.92
   6  -2   2 3868.53   78.30
  -6   2   2 4186.70   68.80
  -6  -2  -2 3959.69   73.50
  -6   2   2 4024.25   74.05
  -6   2  -2 3992.71   63.66
  -6   2  -2 3976.76   70.06
  -7   2   2   11.88    2.47
  -7   2  -2    8.55    2.65
   7  -2   2   12.30    3.61
  -7  -2   2   10.00    2.96
  -7  -2  -2   14.73    3.62
  -7   2   2    7.68    2.74
  -8   2   2   16.30    3.96
  -8   2   2   10.21    2.75
  -8  -2  -2    6.39    2.60
  -8  -2   2    6.27    2.66
  -8   2  -2   10.26    3.05
  -9   2  -2    3.05    2.50
  -9  -2  -2   -2.13    2.56
  -9   2   2    0.11    2.16
  -9   2   2    4.57    2.32
  -9  -2   2    4.01    2.43
 -10   2  -2  169.85   12.77
 -10  -2   2  164.54   13.00
 -10  -2  -2  171.37   13.39
 -10   2   2  197.27   14.72
 -10   2   2  182.69   11.57
 -11  -2   2    2.96    2.71
 -11   2  -2   -1.98    3.06
 -11   2   2    2.38    2.05
 -11   2   2    7.47    3.93
 -11  -2  -2   -0.27    2.47
 -12   2  -2 1330.01   42.97
 -12  -2   2 1296.04   43.30
 -12  -2  -2 1292.93   43.49
 -12   2   2 1360.35   45.83
   0   2  -3    0.20    1.16
   0   2   3    2.28    1.38
   0   2  -3    0.56    0.49
   0  -2  -3    1.84    1.32
   0  -2   3    0.85    0.56
  -1  -2  -3 1352.91   31.47
   1   2  -3 1351.48   29.44
  -1   2  -3 1343.97   29.77
   1   2  -3 1354.16   21.64
   1   2  -3 1287.99   29.77
   1   2   3 1301.98   28.24
   1   2   3 1312.41   31.63
   1  -2   3 1313.04   25.61
   1  -2   3 1306.77   31.80
  -1   2   3 1278.93   27.83
   1  -2   3 1367.74   25.25
  -1  -2   3 1358.83   22.55
  -1   2   3 1361.95   30.44
  -2   2  -3  141.23    7.79
   2  -2   3  140.14    5.48
   2   2  -3  138.54    8.00
  -2   2  -3  145.60    5.10
   2  -2   3  144.75    5.21
   2   2  -3  130.59    7.66
   2   2  -3  155.28    5.98
   2  -2   3  134.11    8.40
  -2  -2   3  147.32    6.01
  -2   2  -3  133.64    7.95
  -2  -2  -3  159.95    9.25
   2   2   3  149.46    8.09
   2  -2  -3  136.71    7.07
  -2   2   3  148.31    7.44
  -2   2   3  139.87    7.97
   2  -2   3  133.98    7.00
  -2  -2  -3  161.22    8.27
   3   2  -3  189.49    7.95
   3   2  -3  180.32    9.48
  -3   2   3  180.70    8.60
   3  -2  -3  181.94    5.48
  -3   2  -3  157.32    8.60
   3  -2   3  170.81    5.93
  -3   2  -3  175.04    6.97
  -3  -2  -3  195.51   10.66
  -3  -2   3  175.39    7.77
   3   2   3  166.08    9.44
  -3   2   3  183.80    9.31
   3  -2   3  167.95    7.22
   3  -2   3  171.10   10.20
   3   2  -3  176.71    9.18
  -3   2  -3  167.14    8.50
  -4   2  -3   63.47    5.17
   4  -2  -3   65.50    3.63
   4   2  -3   61.71    5.47
   4   2   3   68.33    7.14
   4  -2   3   68.36    5.23
   4  -2   3   59.72    6.26
  -4   2  -3   67.63    4.81
  -4   2   3   65.77    5.64
  -4   2  -3   57.71    3.05
  -4  -2  -3   68.47    6.39
  -4  -2   3   56.92    4.92
  -4   2   3   53.16    5.17
  -4   2  -3   67.37    5.78
  -5  -2   3 1923.21   40.33
  -5  -2  -3 1936.01   43.68
  -5   2  -3 1991.94   38.97
  -5   2  -3 1926.75   38.18
   5   2   3 1893.93   47.16
   5  -2   3 1768.42   45.56
  -5   2  -3 1862.12   32.02
  -5   2   3 1885.83   40.49
  -5   2   3 1896.45   41.88
  -6   2  -3    2.60    0.94
   6   2   3    2.47    2.04
   6  -2   3    3.80    2.34
  -6  -2  -3    0.43    1.75
  -6   2  -3    1.72    1.24
  -6   2   3    7.94    2.85
  -6  -2   3    2.98    1.88
  -6   2   3    0.97    1.38
  -7  -2  -3  524.01   21.08
  -7   2  -3  527.96   19.05
  -7   2   3  525.04   21.69
   7  -2   3  483.45   24.00
  -7  -2   3  522.55   20.07
   7   2   3  483.14   24.66
  -7   2   3  525.31   19.11
  -7   2  -3  481.78   13.39
   8  -2   3   35.81    7.09
  -8  -2   3   21.09    4.16
  -8   2   3   27.79    4.58
  -8   2  -3   38.49    5.34
  -8   2   3   28.40    5.46
  -8  -2  -3   33.79    5.70
   9  -2   3  124.66   13.74
  -9   2  -3  157.18   11.32
  -9   2   3  156.98   10.93
  -9   2   3  138.21   12.12
  -9  -2  -3  139.95   11.62
  -9  -2   3  132.01   11.03
 -10  -2   3   67.38    8.41
 -10   2  -3   82.11    8.73
 -10  -2  -3   72.71    8.60
 -10   2   3   76.24    8.00
 -10   2   3   76.64    9.33
 -11   2   3  973.21   36.74
 -11  -2   3  873.26   33.53
 -11  -2  -3  929.15   34.55
 -11   2   3  868.86   30.26
 -11   2  -3  983.49   33.85
 -12   2   3    2.49    2.99
 -12  -2  -3    1.23    2.80
 -12  -2   3   -0.35    2.61
 -12   2  -3    1.91    2.99
   0   2  -4  242.80   11.77
   0  -2  -4  250.13   11.96
   0  -2   4  248.55   10.16
   0  -2   4  237.41    6.40
   0   2   4  242.02   12.06
  -1  -2   4   18.28    1.65
   1   2  -4   19.57    3.35
  -1   2   4   18.70    3.36
   1  -2   4   17.85    2.52
   1  -2   4   17.96    1.33
   1   2  -4   18.28    3.28
  -1   2  -4   18.50    3.31
   1  -2   4   19.24    2.17
  -1  -2  -4   17.92    3.28
   1   2   4   19.63    3.25
  -1   2   4   19.03    2.76
   1   2   4   14.34    3.44
   2   2  -4 1390.56   33.28
  -2   2  -4 1366.06   32.34
   2   2   4 1359.59   34.89
  -2   2   4 1389.18   25.38
   2   2  -4 1375.39   31.98
   2  -2   4 1287.81   34.99
  -2  -2   4 1362.30   25.98
   2  -2   4 1403.78   24.85
  -2  -2  -4 1321.05   33.46
  -2   2  -4 1360.94   24.87
  -2   2   4 1364.68   32.71
   2   2   4 1346.24   32.57
  -2   2   4 1355.54   29.44
   2  -2   4 1378.07   27.48
   2  -2   4 1388.43   29.02
   3  -2   4    2.96    1.14
  -3  -2   4    0.15    0.94
  -3   2   4    0.15    0.94
  -3   2   4    1.02    1.29
  -3  -2  -4    0.31    1.44
  -3   2  -4    3.38    1.68
  -3   2  -4    2.88    1.16
   3  -2   4    2.89    2.06
  -3   2  -4    1.11    0.96
   3   2  -4    3.10    1.46
   3   2   4    1.22    1.75
   3  -2   4    1.43    0.72
  -4  -2   4  925.25   23.51
   4   2  -4  936.83   26.52
   4  -2   4  882.30   29.34
  -4   2  -4  977.13   22.39
  -4   2  -4  885.03   19.82
  -4  -2  -4  949.58   28.21
  -4   2  -4  888.47   24.88
   4   2   4  917.99   28.44
   4  -2  -4  964.62   19.73
   4  -2   4  975.53   21.24
  -4   2   4  950.18   26.70
  -4   2   4  978.14   25.57
   4  -2   4  944.75   23.53
   5   2  -4   62.01    6.47
   5  -2  -4   60.24    4.18
  -5  -2   4   49.60    5.20
  -5   2  -4   55.95    5.56
  -5   2  -4   51.58    4.77
  -5   2  -4   53.24    3.90
   5  -2   4   61.89    7.40
  -5   2   4   54.35    5.64
  -5   2   4   59.08    6.14
  -5  -2  -4   63.02    6.80
   5   2   4   59.16    7.35
  -6  -2  -4  247.88    6.12
  -6   2  -4  268.94   12.15
  -6   2   4  259.82   14.62
  -6   2  -4  244.71   12.43
   6  -2   4  261.43   16.86
  -6  -2   4  263.73   13.08
  -6   2  -4  252.29    9.26
  -6   2   4  277.93   13.92
   6   2   4  284.13   17.71
  -6  -2  -4  268.78   14.67
  -7   2  -4   64.30    6.26
  -7  -2   4   56.66    6.38
   7   2   4   64.32    9.14
   7  -2   4   51.77    8.08
  -7   2   4   49.85    6.34
  -7  -2  -4   69.56    7.77
  -7   2  -4   73.96    6.95
  -7  -2  -4   67.06    3.56
  -7   2   4   71.94    8.03
  -8  -2  -4  747.13   27.62
  -8  -2   4  722.84   26.03
  -8   2   4  746.09   28.59
   8   2   4  752.26   33.94
  -8   2   4  737.83   25.99
   8  -2   4  685.75   32.20
  -8   2  -4  732.43   24.59
   9  -2   4   60.29   10.12
  -9  -2   4   54.06    7.16
  -9   2  -4   66.54    7.37
  -9   2   4   54.49    8.04
  -9  -2  -4   58.81    7.81
  -9   2   4   59.77    7.50
 -10  -2   4  233.98   15.77
  10  -2   4  261.04   21.68
 -10  -2  -4  229.93   16.04
 -10   2   4  227.98   14.80
 -10   2   4  236.67   17.05
 -10   2  -4  262.64   15.66
 -11   2   4   13.00    3.75
 -11   2   4   24.42    6.17
 -11  -2   4   22.70    5.40
 -11   2  -4   20.68    5.03
 -11  -2  -4   27.00    6.26
 -12   2  -4   90.21   10.28
 -12   2   4   88.00   11.19
 -12  -2   4   85.23   10.62
 -12  -2  -4   89.51   10.92
   0   2   5    2.34    2.25
   0  -2   5    0.48    0.49
   0  -2   5    0.45    0.60
   0  -2   5    0.60    1.56
   0  -2  -5   -1.03    1.69
   1  -2   5   48.16    3.55
  -1  -2  -5   51.99    5.79
  -1  -2   5   48.81    3.13
  -1   2   5   56.20    6.19
   1  -2   5   53.65    4.86
  -1   2   5   50.50    4.74
   1  -2   5   47.09    2.88
  -1  -2   5   51.80    5.55
   1   2   5   51.06    5.85
  -1  -2   5   48.80    3.24
   1   2   5   43.10    5.80
  -2   2  -5  266.97    8.31
  -2   2   5  251.35   13.18
  -2  -2   5  254.83    8.94
   2   2  -5  272.59   13.15
   2  -2   5  247.26    8.35
   2   2   5  237.57   13.60
  -2   2   5  255.87   10.62
  -2   2   5  247.05    9.13
  -2  -2  -5  251.89   13.31
   2  -2   5  250.39   10.53
   2   2   5  264.45   13.48
   2  -2   5  264.80   15.26
  -2  -2   5  270.36   13.14
   2  -2   5  256.82   10.33
  -3   2  -5 2600.27   45.59
  -3  -2  -5 2632.46   55.21
  -3  -2   5 2603.57   46.93
   3   2  -5 2607.77   53.00
   3  -2   5 2551.79   58.57
  -3   2   5 2594.82   54.17
   3   2   5 2530.65   55.40
  -3   2   5 2550.65   48.39
  -3   2  -5 2487.46   46.88
   3  -2   5 2597.60   46.18
   3  -2   5 2579.20   47.97
   4  -2   5   51.98    4.69
  -4   2   5   39.32    4.52
   4   2  -5   52.11    5.90
   4  -2   5   41.26    6.54
  -4  -2  -5   43.66    5.72
  -4   2  -5   45.16    4.17
   4   2   5   49.35    6.69
  -4   2  -5   43.34    4.07
   4   2  -5   45.99    2.79
  -4   2   5   44.58    5.96
  -4  -2   5   43.70    4.52
   5   2  -5    5.48    1.19
  -5   2   5    7.69    2.57
  -5   2   5    5.13    2.57
  -5   2  -5   10.07    2.15
   5   2   5    6.99    3.23
  -5   2  -5    9.36    3.03
  -5  -2   5    5.55    2.05
  -5   2  -5   12.53    2.53
   5  -2   5    7.23    3.86
   5  -2  -5    5.30    1.49
   5   2  -5    5.52    2.67
  -5  -2  -5    3.82    2.25
   6  -2   5    8.86    3.55
   6   2  -5    8.56    1.95
   6  -2  -5   13.54    2.46
  -6   2  -5    8.29    2.04
  -6   2   5   13.58    3.47
   6   2   5    9.98    3.78
   6   2  -5    9.75    3.11
  -6   2  -5   11.68    3.18
  -6  -2   5    5.98    2.42
  -6  -2  -5    8.86    3.18
  -6   2  -5   10.85    2.60
   7  -2  -5   18.38    3.01
   7   2  -5   13.50    3.70
  -7   2  -5   20.03    3.69
   7   2   5   24.09    6.28
  -7  -2  -5   21.51    5.02
  -7   2  -5   19.20    3.86
  -7  -2   5   17.26    4.03
  -7   2   5   15.95    3.98
  -7   2   5   16.22    3.92
   7  -2   5    9.13    3.96
   8   2   5    4.59    4.04
   8  -2   5    1.21    3.00
  -8  -2  -5    4.35    3.35
  -8  -2   5    4.79    2.23
  -8   2  -5    7.42    2.72
  -8   2  -5    0.58    2.14
  -8   2   5   -1.52    2.86
  -8   2   5    2.39    2.84
   8  -2  -5    1.54    1.73
   9  -2  -5  980.63   27.78
  -9   2  -5  966.70   29.88
  -9   2  -5 1018.99   31.58
  -9   2   5  992.23   36.25
  -9  -2   5  939.47   32.72
  -9  -2  -5  946.73   34.01
   9   2   5  988.39   43.14
  -9   2   5  915.27   32.91
   9  -2   5 1016.86   43.66
  10  -2   5    3.61    4.69
 -10   2  -5    0.65    2.59
 -10   2   5   -0.86    3.15
 -10  -2   5    1.43    2.50
 -10   2  -5    3.57    2.94
 -10  -2  -5    1.66    2.77
 -10   2   5    3.90    3.40
  10   2   5   -5.24    5.15
  11  -2   5    6.00    5.27
 -11   2   5    3.30    3.40
 -11   2   5   -4.04    4.07
 -11  -2   5    6.76    3.53
 -11   2  -5    1.35    3.06
 -11  -2  -5    0.79    3.02
   0  -2   6  724.24   18.25
   0   2   6  789.15   26.56
   0  -2   6  781.89   23.39
   0  -2   6  755.90   13.83
   1   2   6    2.40    2.22
   1   2   6    0.83    2.21
  -1   2   6   -0.02    1.87
   1  -2   6    0.39    1.47
  -1  -2   6    3.23    2.09
   1  -2   6    1.67    1.00
  -1  -2  -6    1.01    1.76
  -1   2   6    2.33    1.54
   1  -2   6    0.82    0.83
  -2  -2   6   12.16    2.13
  -2   2   6    8.72    3.25
   2  -2   6    8.99    1.99
   2  -2   6    8.58    2.58
  -2  -2   6   16.51    3.51
  -2   2  -6   12.55    1.89
   2  -2   6   13.90    2.20
  -2   2   6    7.86    2.04
  -2  -2  -6    5.20    2.03
   2   2   6   10.37    3.37
  -2  -2   6    9.06    1.90
   2  -2   6    5.72    3.29
   2   2   6    8.65    3.29
   3  -2   6   19.15    3.08
   3   2  -6   19.44    3.98
  -3  -2   6   19.18    4.16
  -3   2   6   14.36    2.65
  -3  -2  -6   22.57    4.33
  -3  -2   6   16.92    2.86
   3  -2   6   13.60    2.29
  -3   2   6   19.68    4.17
  -3   2  -6   17.54    2.45
   3   2   6   17.76    4.02
   3  -2   6   15.95    4.51
   3   2   6   19.14    2.08
   3   2   6   10.77    3.40
   4   2   6   37.87    6.44
  -4   2   6   23.30    4.78
  -4  -2  -6   36.69    5.59
   4  -2   6   35.85    7.09
   4   2  -6   26.84    4.81
  -4  -2   6   34.55    5.64
  -4   2   6   24.45    3.88
  -4  -2   6   33.66    4.26
  -4   2  -6   24.26    3.37
   4  -2   6   27.89    4.12
  -5   2   6   50.52    6.85
   5   2  -6   62.66    7.13
  -5  -2   6   65.59    7.80
   5   2   6   54.96    8.02
  -5  -2   6   62.33    6.19
  -5   2  -6   60.45    5.54
  -5  -2  -6   63.94    7.47
   5  -2   6   56.98    9.16
  -5   2   6   74.97    6.82
   6   2  -6 1026.71   32.27
   6  -2  -6 1083.79   26.23
  -6   2  -6 1005.68   29.28
   6   2   6  996.35   37.41
   6  -2   6  959.44   38.10
  -6  -2  -6 1089.34   34.17
  -6   2   6 1066.99   33.93
  -6  -2   6 1045.47   30.11
  -6   2  -6 1107.79   28.77
   7   2  -6   24.56    5.08
  -7   2   6   22.76    4.83
   7   2   6   21.62    6.04
   7  -2   6   29.09    7.58
  -7  -2  -6   16.13    4.74
   7  -2  -6   16.29    2.88
  -7   2  -6   18.85    4.20
  -7  -2   6   16.95    4.18
  -7   2  -6   21.48    3.91
  -7   2   6   20.89    4.99
   8   2  -6    0.21    2.96
   8   2   6   12.41    4.66
  -8   2   6   11.43    4.03
   8  -2   6    4.76    3.89
  -8   2  -6   10.10    3.27
  -8   2   6   13.18    4.69
  -8  -2   6    5.36    2.62
  -8  -2  -6    7.43    3.18
  -8   2  -6   15.96    3.72
   9   2   6    0.55    4.24
   9  -2   6    6.75    5.42
  -9   2  -6   -0.26    2.21
  -9   2   6   -2.64    3.24
  -9   2  -6    1.55    2.70
  -9  -2   6    0.27    2.09
   9   2  -6   -3.62    3.89
  -9   2   6    3.22    2.79
  -9  -2  -6   -4.43    3.37
  10   2   6   26.56    8.87
  10  -2   6   30.95    8.88
 -10   2   6   10.93    4.25
  10   2  -6   34.96    6.80
 -10  -2   6   18.13    4.98
 -10   2  -6   24.99    5.16
 -10  -2  -6   19.92    6.03
 -10   2   6   15.65    5.14
 -11  -2  -6   12.16    4.90
  11  -2   6   12.05    7.76
 -11   2   6    7.24    4.69
 -11   2   6    7.07    3.76
 -11   2  -6    5.37    3.03
 -11  -2   6    8.18    4.17
  11   2  -6    1.34    3.49
   0  -2   7    0.56    0.40
   0   2   7    1.61    2.64
   0  -2   7    2.73    1.95
   0  -2   7   -0.66    1.41
   1   2   7 1132.75   35.18
   1  -2   7 1009.71   24.29
  -1  -2   7  986.21   25.02
  -1  -2  -7 1137.53   32.84
  -1  -2   7 1145.41   32.37
   1   2   7 1132.04   35.20
  -1   2   7 1112.97   34.29
   1  -2   7 1105.63   30.38
  -1   2   7 1107.89   26.98
   1  -2   7 1038.13   22.43
  -2   2   7   -0.04    2.45
   2  -2   7    5.40    2.25
  -2   2   7    2.04    1.44
  -2   2  -7    6.13    1.50
   2  -2   7    7.87    3.89
  -2  -2   7    2.42    1.36
   2  -2   7    2.32    1.23
  -2  -2   7    4.32    1.47
  -2  -2  -7    6.60    2.87
   2   2   7    2.21    1.97
   2   2   7    6.22    3.10
  -2  -2   7    4.68    2.76
  -3   2   7   19.20    3.26
   3  -2   7   18.42    3.58
  -3   2   7   19.53    4.55
  -3  -2   7   24.49    4.83
  -3   2  -7   24.07    3.11
   3   2   7   14.04    4.24
  -3  -2  -7   17.38    3.97
   3  -2   7   21.65    5.42
  -3  -2   7   22.44    3.38
   3   2   7   20.73    4.63
  -4   2  -7  112.78    7.19
   4   2  -7   95.23    9.23
   4  -2   7  115.07    8.82
  -4  -2   7   95.78    7.32
  -4  -2   7  108.32   10.45
   4   2   7   91.43   10.09
  -4   2   7   93.96    9.47
   4  -2   7   87.00   10.92
  -4  -2  -7   93.86    9.15
  -4   2   7  100.71    7.61
   5   2  -7 1092.39   34.17
  -5  -2   7 1135.82   30.66
  -5   2  -7 1129.17   28.88
   5  -2   7 1123.16   31.83
  -5  -2  -7 1179.34   35.68
   5   2   7 1077.01   39.04
   5  -2   7 1030.13   40.37
  -5   2   7 1118.36   36.36
  -5  -2   7 1135.65   37.07
  -5   2   7 1138.09   30.50
   6   2  -7   49.26    6.91
  -6  -2   7   49.55    7.47
  -6   2   7   49.10    7.48
   6   2   7   39.27    7.42
  -6  -2  -7   50.17    7.49
   6  -2   7   57.36    9.57
  -6  -2   7   51.02    6.30
  -6   2  -7   56.48    5.93
  -7  -2   7  886.63   29.51
   7   2  -7  836.14   30.79
  -7   2   7  885.50   33.30
  -7  -2  -7  882.89   32.15
   7   2   7  894.75   38.50
   7  -2   7  747.86   36.71
  -7   2   7  836.78   32.28
  -7  -2   7  885.97   33.92
  -7   2  -7  884.93   27.51
  -8  -2   7    5.30    3.09
   8  -2   7    4.52    4.31
   8   2   7    4.30    4.07
  -8   2   7    5.96    3.90
   8   2  -7    2.64    3.40
  -8  -2  -7    2.99    3.10
  -8   2   7    3.30    2.69
  -8  -2   7    3.85    3.16
  -8   2  -7    6.11    2.33
   9   2  -7   17.77    4.93
  -9   2   7   23.58    6.12
   9   2   7   14.82    4.85
   9  -2   7   13.54    5.53
  -9   2   7   22.19    6.27
  -9  -2   7   25.26    5.99
  -9  -2   7   17.77    5.06
  -9   2  -7   14.38    3.56
  -9  -2  -7   15.52    4.81
  10   2   7    3.21    4.69
 -10   2   7   13.29    4.75
  10   2  -7    2.34    3.44
 -10  -2   7   -1.16    2.88
 -10   2  -7   10.88    3.78
  10  -2   7    3.70    5.76
 -10  -2  -7    4.72    3.93
 -10  -2   7    8.10    5.18
 -10   2   7    5.13    3.95
   0  -2   8  446.95   19.77
   0   2   8  448.21   22.32
   0   2   8  465.93   17.36
   1   2   8   19.48    5.14
   1  -2   8   12.79    5.14
  -1   2   8    7.29    3.54
   1  -2   8   11.76    3.31
  -1  -2   8    8.77    3.17
  -1  -2  -8    7.65    3.06
  -1   2   8   10.36    2.53
   1   2   8   19.70    5.25
  -2   2   8   40.35    4.54
   2   2   8   35.73    6.67
  -2   2   8   39.63    6.66
   2  -2   8   37.98    5.61
  -2  -2   8   35.84    6.32
  -2  -2   8   28.94    3.75
  -2  -2  -8   32.99    5.58
   2  -2   8   34.11    8.16
   2   2   8   47.29    7.67
   3  -2   8    5.58    3.00
  -3   2   8    4.93    2.00
  -3   2   8    1.02    2.43
   3  -2   8    2.38    3.41
   3   2   8   -0.71    2.68
  -3  -2  -8    1.58    2.25
  -3   2  -8    7.58    2.05
   3   2   8    2.12    2.44
  -3  -2   8    4.17    2.43
  -3  -2   8    4.06    1.77
  -4   2   8   31.26    4.38
  -4   2   8   38.41    7.12
  -4  -2   8   29.04    6.16
  -4  -2   8   36.88    4.85
   4   2   8   26.46    5.86
   4  -2   8   35.62    7.62
   4   2   8   36.70    7.04
  -4   2  -8   32.85    4.12
  -4  -2  -8   27.18    5.25
   4  -2   8   34.15    5.26
  -5  -2  -8   84.46    9.17
   5   2  -8   87.45    9.36
  -5  -2   8   96.58    8.31
   5  -2   8   76.17   11.23
   5  -2   8   85.67    8.74
   5   2   8   99.72   12.00
  -5   2  -8   84.91    7.07
  -5   2   8   84.75   10.02
  -5  -2   8   85.81    9.96
  -5   2   8   88.96    7.60
   6   2  -8  315.57   18.53
   6   2   8  315.27   21.90
  -6  -2  -8  326.68   18.57
  -6   2   8  320.79   19.75
  -6  -2   8  288.29   19.09
  -6  -2   8  298.15   15.78
  -7   2   8   11.37    5.09
  -7  -2   8    5.35    3.61
   7  -2   8    0.78    3.72
  -7  -2   8    6.64    3.31
  -7  -2  -8    2.51    3.96
  -7   2   8    2.48    3.56
   7   2   8    3.46    3.59
   7   2  -8    6.69    4.44
  -8  -2   8    3.06    3.85
  -8   2   8   13.19    4.58
   8   2   8   19.44    6.96
   8  -2   8   12.73    6.54
   8   2  -8   12.33    4.56
  -8   2   8   11.74    4.67
  -8  -2   8   14.22    4.48
  -8  -2  -8   23.61    6.25
  -9   2   8   10.54    4.04
   9  -2   8    4.82    4.52
   9   2  -8   -1.54    3.46
  -9  -2   8    8.02    4.54
   9   2   8    5.04    5.02
  -9   2   8    2.07    3.28
  -9  -2   8    1.78    2.75
  -9  -2  -8   15.79    5.40
   0   2   9   -1.36    2.44
   0  -2   9   -0.50    2.13
   0   2   9    1.01    1.97
   1  -2   9  101.57   13.26
   1   2   9  137.44   12.91
  -1   2   9  128.93   12.52
   1  -2   9  104.21    9.73
  -1  -2   9  122.45   10.92
  -1   2   9  120.30    8.06
   1   2   9  114.57   12.20
  -2   2   9    1.85    1.87
  -2   2   9    0.32    3.17
   2  -2   9   -0.98    2.66
  -2  -2   9    1.95    3.11
  -2  -2  -9   -1.51    3.30
   2   2   9    4.80    3.87
   2  -2   9    5.52    3.30
   2   2   9    0.81    3.44
  -3  -2  -9  658.48   26.56
   3   2   9  766.40   32.37
   3  -2   9  645.08   25.62
  -3   2   9  683.37   29.68
  -3  -2   9  690.15   29.19
   3  -2   9  648.83   33.31
   3   2   9  636.78   30.14
  -4  -2   9   28.43    6.31
  -4   2   9   25.92    6.01
  -4  -2  -9   29.07    5.57
   4   2   9   31.26    7.55
   4  -2   9   25.36    7.16
   4   2   9   24.42    5.79
   4  -2   9   31.21    5.76
  -5   2   9   60.31    9.16
   5   2   9   53.28    9.23
   5  -2   9   49.95   10.29
  -5  -2  -9   61.38    8.17
  -5  -2   9   57.20    8.51
   5  -2   9   54.45    7.47
   6   2   9   27.25    7.47
  -6  -2  -9   27.09    5.79
   6  -2   9   28.86    8.16
  -6   2   9   19.47    5.92
  -6  -2   9   16.01    5.17
  -7   2   9   97.11   11.53
  -7   2   9   98.57   12.28
   7   2  -9  102.72   11.23
  -7  -2   9   94.83   11.95
   7  -2   9   90.25   14.19
  -7  -2  -9  116.51   11.60
   7   2   9  113.69   14.99
  -8   2   9   19.84    6.66
   8  -2   9   12.37    6.54
  -8  -2   9   12.94    5.47
  -8  -2  -9   17.59    5.19
   8   2  -9   21.90    6.28
  -8   2   9    8.05    3.37
   8   2   9   16.99    5.91
   0   2  10   57.47    9.30
   0   2  10   47.35    8.73
   0  -2  10   48.27    7.50
   1  -2  10    4.64    2.33
  -1  -2  10    3.24    3.23
  -1   2  10   -1.53    3.31
   1   2  10    5.77    4.43
   1  -2  10   -0.54    3.79
   1   2  10    5.92    4.17
   2   2  10   99.59   11.99
  -2   2  10  100.19   11.97
  -2  -2  10   97.85   11.11
   2  -2  10   95.82   10.20
   2   2  10  101.81   12.25
   2  -2  10  116.72   14.39
   3  -2  10   46.04    7.23
  -3   2  10   61.65    9.37
  -3  -2 -10   47.64    7.09
  -3  -2  10   54.59    8.81
   3   2  10   55.71    9.54
   3  -2  10   47.06    9.66
   3   2  10   44.73    8.31
  -4   2  10   95.33   12.03
  -4  -2 -10  103.42   10.66
  -4  -2  10  101.79   12.16
   4  -2  10   88.72   13.25
   4  -2  10  113.33   11.18
   4   2  10  103.68   13.20
   4   2  10   88.29   11.85
  -5   2  10    0.12    3.08
  -5  -2  10   -3.29    4.00
   5  -2  10    2.36    4.12
   5   2  10    1.29    4.55
  -5  -2 -10    2.46    2.74
   6   2  10   26.91    6.90
  -6  -2  10   16.32    5.84
   6  -2  10   20.00    7.02
  -6   2  10   22.25    6.95
  -6  -2 -10   29.66    7.07
  -7  -2  10    3.88    4.70
  -7   2  10    8.09    4.48
   7  -2  10    4.20    5.76
  -7  -2 -10    6.53    3.97
   7   2  10    1.13    4.73
   0   2  11   10.14    6.02
   0  -2  11    1.86    4.74
   0  -2  11    1.44    2.58
   0   2  11   -2.80    3.54
   1   2  11  407.09   25.50
  -1   2  11  423.60   25.99
   1  -2  11  402.31   22.68
  -1  -2  11  407.71   23.39
   1   2  11  387.16   25.22
   1  -2  11  402.95   28.50
   2  -2  11   -2.08    3.99
  -2   2  11   -3.57    3.58
  -2  -2  11    1.13    3.50
   2   2  11   -5.60    4.51
   2  -2  11    5.51    4.88
   2   2  11    5.47    4.13
   3  -2  11   14.55    4.88
  -3   2  11    2.15    3.21
   3   2  11   10.41    4.92
  -3  -2  11   20.46    5.69
  -3  -2 -11   11.24    4.33
   3  -2  11   14.03    6.10
   3   2  11    8.62    4.03
  -4   2  11   -1.51    3.90
  -4  -2  11   -3.75    3.07
   4  -2  11   -1.05    5.59
  -4  -2 -11   -1.44    2.99
   4   2  11    4.19    3.82
   4   2  11    0.50    3.91
   0   3   0   -0.77    0.79
   0   3   0    2.69    1.36
   0   3   0    0.55    0.96
   0  -3   0    1.21    0.99
   0   3   0    0.17    0.91
  -1   3   0    2.33    1.34
   1  -3   0    0.34    0.37
  -1   3   0    1.23    0.70
   1   3   0   -0.32    0.89
  -1   3   0    1.55    0.91
  -1  -3   0    1.26    1.06
  -1  -3   0    2.40    1.09
   2  -3   0  160.20    5.88
  -2  -3   0  155.11    8.34
   2  -3   0  148.89    6.00
  -2   3   0  165.66    6.30
  -2   3   0  154.93    7.96
  -2  -3   0  161.98    7.50
   2   3   0  157.45    8.59
  -3   3   0    0.79    1.12
   3  -3   0   -0.29    0.49
  -3   3   0    2.11    1.10
  -3   3   0    3.64    0.93
  -3  -3   0    1.19    1.04
  -4   3   0  339.81   13.01
  -4   3   0  355.66    9.73
  -4   3   0  353.18   14.56
  -4  -3   0  343.36   14.10
  -5  -3   0    3.66    1.74
  -5   3   0    1.90    0.92
  -5   3   0    1.34    1.59
  -6  -3   0   54.42    6.20
  -6   3   0   59.62    4.03
  -6   3   0   58.74    6.28
  -7   3   0    0.60    1.01
  -7   3   0    2.05    1.99
  -7  -3   0   -0.91    1.84
  -8  -3   0  389.39   18.70
  -8   3   0  408.32   18.87
  -8   3   0  400.59   13.15
  -9  -3   0    2.98    2.82
  -9   3   0   -0.03    1.15
  -9   3   0    7.07    3.29
 -10   3   0  735.96   28.78
 -10  -3   0  680.35   27.94
 -11   3   0    5.85    3.89
 -11  -3   0    0.07    2.70
 -12   3   0   46.32    7.95
 -12  -3   0   42.69    7.61
   0   3  -1  261.97   11.02
   0   3  -1  247.88    9.23
   0   3   1  248.82   10.67
   0  -3  -1  269.84   11.21
   0  -3   1  252.57    8.59
   0  -3  -1  268.81   10.57
   0   3   1  272.06   10.78
   0   3  -1  261.76    9.37
   0  -3   1  257.61   10.90
   0   3  -1  252.37    8.70
  -1   3   1 1376.37   29.39
   1   3  -1 1312.91   28.45
   1  -3   1 1370.44   26.95
  -1   3   1 1350.55   22.85
  -1   3  -1 1348.12   30.37
   1   3  -1 1314.45   27.12
  -1  -3   1 1348.72   30.00
   1   3   1 1318.18   31.59
  -1  -3   1 1381.05   28.07
  -1  -3  -1 1421.93   31.60
  -1  -3  -1 1464.08   23.14
  -1   3  -1 1304.28   25.52
  -1   3   1 1309.52   29.29
   1   3   1 1442.60   27.71
   1  -3  -1 1399.52   28.69
   1  -3   1 1305.87   25.12
   1  -3   1 1405.94   28.29
  -1   3  -1 1390.45   28.11
  -2   3   1 1010.27   21.10
   2   3  -1 1067.28   24.21
   2  -3   1 1075.02   22.88
  -2  -3  -1 1043.29   21.22
  -2  -3  -1 1051.25   26.85
   2  -3   1 1089.75   19.62
  -2  -3  -1 1088.70   21.10
  -2   3   1 1061.76   24.00
   2  -3   1 1031.31   22.15
   2  -3  -1 1025.64   22.59
  -2   3   1 1073.76   25.38
  -2   3  -1 1041.27   22.83
  -2   3  -1 1080.85   24.89
  -2  -3   1 1041.82   24.10
  -2   3  -1 1058.95   26.58
  -3   3   1    1.78    1.15
  -3   3   1    1.17    0.96
  -3   3   1    3.74    1.77
  -3   3  -1    3.05    1.77
   3  -3   1    2.23    1.23
   3  -3  -1    1.35    0.89
  -3  -3  -1    2.15    1.11
   3   3  -1    0.58    0.86
  -3   3  -1    0.50    0.80
  -3  -3   1    0.84    1.00
  -3  -3  -1    1.37    1.45
  -3  -3  -1    2.98    1.07
   4  -3   1  662.16   20.42
  -4   3   1  703.49   17.76
  -4  -3   1  690.77   20.28
   4  -3  -1  675.96   16.40
  -4  -3  -1  674.48   21.60
  -4   3  -1  728.73   19.50
  -4   3   1  688.89   19.98
  -4   3   1  672.33   21.60
  -4   3  -1  695.21   21.39
  -5   3  -1  663.80   20.08
  -5  -3   1  661.54   20.92
  -5  -3  -1  620.08   21.43
  -5   3   1  628.29   21.08
  -5   3   1  662.18   17.31
   5  -3   1  642.43   22.03
  -5   3   1  624.25   21.68
  -6  -3  -1  880.33   27.45
  -6   3   1  883.69   27.07
  -6  -3   1  895.53   26.64
  -6   3  -1  924.88   16.36
  -6   3   1  881.93   21.83
  -6   3  -1  884.52   25.72
  -7   3   1  459.85   19.67
  -7   3  -1  473.95   18.84
  -7  -3   1  482.95   19.50
  -7  -3  -1  475.08   20.00
  -7   3  -1  491.52   11.63
  -7   3   1  474.14   15.36
   7   3  -1  456.94   15.63
  -7   3  -1  458.53   14.29
  -8   3   1  722.94   26.59
  -8   3  -1  710.36   25.04
  -8   3  -1  688.97   17.95
  -8  -3   1  685.36   25.23
  -8   3   1  694.31   20.24
  -8   3  -1  683.18   16.20
  -8  -3  -1  732.77   26.54
   8   3  -1  723.45   20.02
  -9   3   1    6.96    3.36
  -9   3  -1    3.76    2.80
  -9  -3  -1    5.18    3.21
  -9   3   1    3.09    1.48
  -9  -3   1    6.30    3.32
 -10  -3   1  345.43   18.99
 -10   3   1  340.21   19.47
 -10  -3  -1  344.82   19.46
 -10   3  -1  343.34   19.02
 -11   3   1  181.26   14.75
 -11  -3  -1  183.06   14.58
 -11  -3   1  170.95   13.94
 -11   3  -1  188.26   14.45
 -12   3   1  291.75   19.91
 -12   3  -1  277.00   18.73
 -12  -3   1  267.14   18.44
 -12  -3  -1  309.62   19.94
   0   3  -2    0.86    0.90
   0   3  -2    1.72    1.25
   0   3  -2    0.01    0.41
   0  -3  -2    0.55    1.33
   0  -3   2    1.58    0.66
   0   3   2    0.64    0.51
   1   3  -2   16.67    1.85
  -1   3  -2   19.03    2.54
   1  -3  -2   16.85    2.84
   1   3   2   24.40    2.60
   1   3  -2   17.53    2.81
  -1   3  -2   23.01    3.49
   1   3   2   23.48    2.35
  -1  -3   2   18.47    2.16
   1  -3   2   23.04    3.01
  -1   3  -2   19.57    1.76
  -1   3   2   12.83    2.67
   1   3  -2   19.41    2.29
  -1   3   2   19.56    3.00
   1  -3   2   20.56    2.60
   2   3  -2 1058.37   26.46
  -2  -3  -2 1070.05   28.66
  -2   3  -2 1031.71   21.14
  -2   3  -2 1089.57   27.45
  -2  -3   2 1074.84   23.11
   2   3   2 1150.50   24.69
  -2   3   2 1095.15   26.37
   2  -3  -2 1063.33   25.20
   2  -3   2 1034.39   24.87
   2   3  -2 1108.79   22.97
  -2  -3  -2 1146.61   23.06
  -2   3   2 1087.13   26.27
  -2   3  -2 1069.27   25.09
  -3  -3  -2   53.30    5.77
  -3   3  -2   58.62    4.15
  -3   3   2   55.58    5.15
   3   3  -2   58.25    4.68
  -3  -3   2   54.00    4.54
  -3   3   2   49.78    4.67
   3  -3   2   60.87    5.28
  -3  -3  -2   63.02    4.70
  -3   3  -2   64.40    6.06
   3  -3  -2   57.48    4.73
   3   3   2   55.82    5.20
  -3   3  -2   56.72    5.27
   4  -3   2  696.84   22.09
   4   3  -2  705.04   20.70
  -4   3  -2  706.34   19.92
  -4  -3  -2  718.61   14.42
  -4  -3   2  733.33   20.45
   4   3   2  697.40   22.99
  -4   3  -2  732.58   19.11
  -4  -3  -2  747.44   23.73
  -4   3   2  698.26   19.74
  -4   3   2  715.39   22.40
  -5  -3   2  299.35   13.12
   5  -3   2  303.36   15.11
  -5   3   2  299.90   12.15
   5   3  -2  270.09   12.35
  -5  -3  -2  299.46   14.77
  -5   3  -2  289.96   11.72
  -5   3   2  328.59   14.86
  -5   3  -2  306.07   12.37
   6  -3   2    1.87    2.76
   6   3  -2    3.79    1.71
  -6   3   2    3.58    1.80
  -6   3  -2    4.50    2.04
  -6  -3   2    3.51    1.87
  -6   3  -2    4.50    1.78
  -6  -3  -2    2.06    1.94
  -6   3   2   10.31    3.27
  -7   3   2  133.52   10.68
   7   3  -2  128.10    8.35
   7  -3   2  133.08   11.67
  -7   3  -2  137.47    7.67
  -7   3  -2  128.44    9.23
  -7   3   2  125.31    8.20
  -7  -3  -2  143.92   10.92
  -7  -3   2  146.58   10.29
   8   3  -2  400.25   15.31
  -8   3  -2  390.93   13.40
  -8  -3  -2  407.35   19.54
  -8   3  -2  405.22   18.05
  -8  -3   2  395.08   18.43
  -8   3   2  391.04   15.74
  -8   3   2  377.80   19.27
  -9   3   2  232.71   15.63
  -9   3  -2  249.30   14.70
  -9  -3   2  234.37   14.92
  -9  -3  -2  240.21   15.60
  -9   3   2  246.44   12.88
 -10  -3   2  303.37   17.72
 -10   3   2  318.36   19.25
 -10   3  -2  307.86   17.35
 -10  -3  -2  305.74   18.34
 -10   3   2  278.73   14.25
 -11   3  -2   10.42    3.77
 -11  -3   2   18.03    5.03
 -11  -3  -2   15.24    4.46
 -12   3   2   12.77    5.16
 -12   3  -2    6.91    4.05
 -12  -3   2    7.54    3.83
 -12  -3  -2    4.77    3.48
   0   3  -3 2095.14   36.58
   0   3  -3 2130.80   43.15
   0  -3  -3 2178.69   46.12
   0   3   3 2117.46   45.72
   0  -3   3 2122.43   37.01
   0   3  -3 2106.05   43.98
  -1  -3  -3  240.14   12.41
   1   3  -3  251.94   11.27
   1   3  -3  244.14    6.43
  -1  -3   3  237.79    7.15
   1   3   3  243.72    9.36
  -1   3   3  258.00   12.28
   1   3  -3  230.12   11.48
  -1   3   3  240.21   10.93
  -1   3  -3  234.93   11.35
   1   3  -3  234.45    7.62
   1  -3   3  242.10    9.00
  -1   3  -3  253.95    9.32
   1  -3   3  238.92   11.80
   2  -3   3  580.63   13.72
   2   3  -3  594.31   19.29
  -2  -3  -3  604.23   21.30
  -2   3  -3  630.48   13.03
  -2  -3   3  635.20   15.28
  -2   3  -3  598.71   20.18
   2   3   3  716.98   13.32
  -2   3   3  600.66   20.16
   2   3   3  634.74   18.21
   2   3  -3  577.94   19.46
  -2   3  -3  619.66   19.51
   2  -3   3  597.23   19.63
  -2   3   3  618.71   18.94
   2   3  -3  645.72   14.81
  -2  -3  -3  682.27   18.40
  -3   3   3   13.85    2.80
  -3   3   3   18.38    3.29
   3   3  -3   21.19    3.61
   3   3   3   23.86    3.75
   3   3  -3   23.16    2.88
  -3   3  -3   16.57    2.18
  -3  -3   3   17.42    2.60
   3  -3   3   15.25    1.38
  -3  -3  -3   19.21    3.51
   3   3  -3   19.49    3.44
  -3   3  -3   16.50    2.98
   3  -3   3   17.38    3.16
  -3   3  -3   14.71    3.34
  -4   3  -3  709.91   18.06
  -4  -3   3  705.93   19.86
  -4   3  -3  645.56   21.79
  -4   3  -3  680.92   20.61
   4   3   3  733.45   24.33
   4   3  -3  661.02   21.43
   4  -3   3  713.93   23.50
  -4   3   3  751.40   21.98
  -4  -3  -3  713.16   24.30
  -4   3   3  672.81   21.86
  -5   3  -3  250.75   10.83
   5  -3   3  245.49   14.41
   5   3   3  266.36   15.28
   5   3  -3  236.52   12.28
  -5  -3  -3  249.26   14.06
  -5   3  -3  242.70   11.45
  -5   3  -3  254.53   13.21
  -5   3   3  253.25   12.22
  -5  -3   3  240.74   11.71
  -5   3   3  244.36   13.08
  -6   3  -3  229.56   11.40
   6   3  -3  209.74   11.73
  -6   3  -3  222.63   10.80
  -6  -3   3  215.47   11.82
   6   3   3  220.16   15.74
  -6  -3  -3  209.60   13.33
  -6   3   3  234.52   12.07
   6  -3   3  224.64   14.91
  -6   3   3  236.68   13.64
  -7  -3   3  656.86   23.15
   7   3  -3  625.19   21.62
  -7   3  -3  651.57   21.79
  -7   3  -3  636.60   19.53
   7  -3   3  647.00   28.02
  -7   3   3  674.97   25.81
  -7  -3  -3  633.51   24.73
  -7   3   3  695.87   22.59
  -8   3   3   93.65    9.78
  -8   3  -3  102.20    8.65
  -8  -3   3   95.79    9.14
   8  -3   3   97.24   11.25
  -8  -3  -3  100.83    9.96
  -8   3   3   98.76    8.37
  -9   3   3   54.33    8.18
  -9   3  -3   63.12    7.19
  -9  -3   3   56.06    7.37
  -9  -3  -3   64.83    8.22
  -9   3   3   55.29    6.64
   9  -3   3   63.91    9.62
 -10   3  -3  224.45   14.68
 -10  -3  -3  226.53   16.17
 -10  -3   3  207.37   14.89
 -10   3   3  224.01   16.59
 -10   3   3  217.86   13.47
 -11   3  -3  260.59   16.73
 -11  -3  -3  244.57   17.54
 -11  -3   3  253.71   17.27
 -11   3   3  261.25   18.94
 -12  -3   3  105.05   11.66
 -12   3   3   98.23   12.38
 -12   3  -3  108.58   11.34
 -12  -3  -3  101.37   11.59
   0   3  -4    1.10    1.75
   0   3  -4    3.15    1.18
   0  -3  -4    1.95    1.97
   0  -3   4    1.11    0.86
   0   3   4    4.04    2.17
   1   3  -4  960.77   26.59
  -1   3   4  916.62   27.49
  -1   3   4  885.81   24.29
   1   3  -4  901.45   26.43
  -1   3  -4  953.97   26.61
  -1  -3  -4  940.11   28.01
   1   3   4  885.74   28.09
   1  -3   4  930.09   20.56
   1   3   4  904.48   23.53
   1  -3   4  976.36   22.05
   1   3  -4  894.16   17.53
  -1  -3   4  927.87   16.24
   1  -3   4  901.19   28.46
  -2   3   4  846.04   15.84
   2   3  -4  853.26   24.99
  -2  -3   4  888.86   18.58
   2   3  -4  865.54   25.78
  -2   3  -4  884.52   15.52
  -2   3  -4  848.05   24.96
  -2  -3  -4  828.66   26.67
   2   3   4  874.98   23.89
   2  -3   4  879.58   19.65
  -2   3   4  847.54   25.83
   2   3  -4  849.07   16.42
  -2   3   4  863.08   23.72
   2  -3   4  867.21   27.24
   3   3  -4  465.58   18.02
   3   3  -4  445.16   17.88
  -3   3  -4  433.16   16.83
  -3  -3   4  483.25   14.06
  -3   3  -4  460.40   11.77
  -3  -3  -4  463.08   19.08
   3   3   4  430.58   17.18
  -3   3   4  451.85   17.91
   3  -3   4  460.41   12.01
   3  -3   4  447.37   18.94
  -3   3   4  420.54   15.90
  -3   3  -4  445.86   17.72
   4   3  -4  813.42   25.81
   4   3  -4  807.96   25.94
   4  -3   4  841.49   17.18
  -4  -3   4  833.34   22.01
  -4   3  -4  832.10   24.50
  -4   3  -4  848.42   19.79
   4   3   4  801.55   26.88
  -4  -3  -4  798.40   27.10
   4  -3   4  837.72   28.08
  -4   3   4  839.08   25.53
  -4   3   4  783.75   24.20
  -4   3  -4  829.93   25.70
   5   3  -4  313.37   15.22
   5   3  -4  324.58   16.22
  -5   3  -4  299.62   13.69
   5  -3  -4  310.41    8.43
  -5  -3   4  314.80   13.42
   5   3   4  315.19   17.48
   5  -3   4  299.69   17.02
  -5   3   4  295.23   14.57
  -5   3  -4  304.68   14.77
  -5   3   4  311.95   15.07
  -5   3  -4  318.29   12.05
  -5  -3  -4  315.52   16.50
  -6   3   4   11.06    3.12
   6   3   4   13.70    4.44
  -6   3   4   14.49    3.43
  -6  -3  -4   15.66    4.30
  -6   3  -4   13.81    3.11
   6  -3   4   15.90    4.40
  -6  -3   4   19.27    3.66
  -6   3  -4   21.83    4.12
  -6   3  -4   17.67    3.15
   6  -3  -4   17.90    2.16
  -7   3   4   91.24    9.56
  -7  -3   4   90.54    8.38
  -7   3  -4  102.70    8.01
  -7   3  -4  100.65    8.98
   7   3   4   94.14   11.27
  -7  -3  -4   98.88    9.77
  -7   3   4  100.31    8.77
   7  -3   4  106.24   11.61
  -8   3   4  239.49   16.12
  -8  -3   4  229.27   14.11
  -8   3  -4  237.14   13.12
  -8   3  -4  229.05   13.99
   8   3   4  245.97   19.30
  -8  -3  -4  235.67   15.55
  -8   3   4  223.29   13.60
   8  -3   4  238.97   18.63
  -9   3   4   85.18    8.81
  -9  -3   4   84.43    9.20
  -9  -3  -4   95.60   10.35
  -9   3   4   95.52   11.13
  -9   3  -4   74.78    8.24
  -9   3  -4   84.84    8.40
   9  -3   4   98.69   13.12
 -10   3  -4  231.95   14.72
 -10  -3   4  249.07   16.31
  10  -3   4  239.74   20.84
 -10  -3  -4  247.78   17.17
 -10   3   4  209.39   14.31
 -10   3   4  278.83   19.01
 -11   3   4  146.05   14.66
 -11  -3   4  136.68   12.73
 -11   3  -4  148.27   12.33
 -11  -3  -4  146.32   13.60
   0   3  -5  189.10   12.08
   0  -3  -5  154.56   10.97
   0   3   5  162.88   11.57
   0  -3   5  174.48    6.16
   0  -3   5  158.97    9.19
   1   3  -5  613.23   22.52
  -1   3  -5  621.11   22.31
  -1  -3  -5  632.01   23.08
   1   3   5  634.81   24.07
  -1   3   5  625.37   23.29
  -1   3   5  641.39   20.39
   1  -3   5  598.24   17.88
   1  -3   5  606.30   15.40
   1   3   5  623.37   20.75
   2   3  -5  111.85    9.35
  -2   3  -5  120.45    9.19
  -2   3   5  107.05    5.11
   2   3  -5  115.71    9.12
  -2  -3   5  125.09    5.60
   2   3   5  119.26   10.23
  -2   3   5  113.26    9.33
   2  -3   5  113.96    6.72
  -2   3   5  111.21    7.96
   2   3   5  115.43    8.54
  -2  -3  -5  113.35    9.46
   2  -3   5  118.11   10.37
  -3   3   5   16.75    3.20
  -3   3   5    9.54    2.89
   3  -3   5   14.94    2.38
   3   3  -5   14.57    3.83
   3   3  -5    8.59    3.02
   3   3   5    9.95    3.22
  -3   3  -5    9.99    1.63
  -3  -3   5   14.63    2.43
   3  -3   5    7.61    3.36
  -3  -3  -5   11.03    3.32
  -3   3  -5   10.03    2.95
   3   3  -5    8.16    0.89
  -4   3  -5  208.52   12.16
   4   3  -5  210.48   12.73
  -4   3  -5  209.63   12.44
   4  -3   5  201.86    8.91
  -4  -3   5  224.66   10.28
  -4  -3  -5  219.50   13.71
  -4   3  -5  225.63    8.89
   4   3   5  203.23   13.15
  -4   3   5  214.10   13.22
   4  -3   5  207.21   14.48
   4  -3   5  216.48    8.93
  -4   3   5  226.11   11.84
   5   3  -5  590.50   23.22
   5  -3   5  587.39   26.10
  -5  -3   5  605.55   19.83
  -5  -3  -5  614.17   24.53
  -5   3   5  599.07   23.02
   5   3   5  658.69   26.74
  -5   3  -5  623.38   22.57
  -5   3  -5  637.38   18.11
  -5   3   5  652.20   22.74
   6   3  -5  185.80   13.03
   6  -3  -5  178.39    7.28
  -6  -3   5  157.75   10.46
  -6   3  -5  168.48    9.46
  -6   3  -5  155.81   11.11
  -6  -3  -5  178.16   13.02
   6   3   5  185.90   14.96
   6  -3   5  161.26   14.51
  -6   3   5  154.59   11.47
  -6   3   5  168.23   11.56
  -7  -3   5  397.39   17.84
   7   3  -5  387.92   20.08
   7  -3   5  372.00   23.17
  -7   3   5  351.83   19.68
  -7   3  -5  377.02   15.65
   7   3   5  351.81   22.17
  -7  -3  -5  399.73   20.48
  -7   3   5  365.22   18.36
  -7   3  -5  351.81   17.15
   8   3  -5  168.97   13.72
  -8   3   5  187.90   14.66
  -8   3  -5  177.78   12.33
   8   3   5  211.22   18.47
  -8  -3  -5  176.43   14.11
   8  -3   5  161.01   16.16
  -8   3  -5  182.35   11.33
  -8   3   5  179.19   13.27
  -8  -3   5  179.13   12.49
   9   3   5   -1.61    3.86
   9  -3   5    1.56    3.18
  -9   3   5    5.26    3.62
  -9   3  -5   -0.97    2.59
  -9   3  -5    1.96    1.96
  -9  -3  -5   -3.98    3.72
  -9   3   5   -1.48    2.57
  -9  -3   5    4.07    3.17
  10  -3   5   82.00   12.57
 -10   3   5   68.50    8.79
 -10  -3   5   65.18    8.54
 -10   3  -5   59.90    7.47
 -10  -3  -5   62.92    9.21
 -10   3   5   81.10   10.68
 -10   3  -5   71.54    8.55
  11  -3   5  144.01   17.75
 -11  -3   5  174.45   14.42
 -11   3   5  145.59   14.97
 -11   3  -5  133.43   11.78
 -11   3  -5  162.30   12.93
 -11   3   5  147.97   13.24
 -11  -3  -5  153.55   14.19
   0  -3   6    2.25    1.45
   0  -3  -6    0.37    2.06
   0   3   6    1.07    2.44
  -1  -3   6  487.54   10.73
  -1  -3  -6  535.57   21.87
   1   3   6  531.14   23.08
  -1   3   6  518.22   22.28
   1  -3   6  528.02   17.96
  -1   3   6  509.96   18.25
   1  -3   6  506.13   13.32
  -1  -3   6  568.17   20.44
   1   3   6  575.18   21.34
  -2   3   6  204.57    8.54
  -2  -3   6  212.09    7.81
  -2  -3  -6  207.86   13.33
   2   3   6  195.90   14.11
  -2   3   6  222.49   14.01
   2  -3   6  213.06   10.50
   2   3   6  218.71   12.92
  -2   3   6  216.64   11.44
  -2  -3   6  236.89   13.21
   2  -3   6  218.43   15.54
   3  -3   6  550.79   13.85
   3   3  -6  618.88   23.62
  -3  -3   6  624.89   17.00
  -3  -3  -6  617.40   24.39
  -3   3   6  604.17   24.16
   3  -3   6  612.03   18.51
   3   3   6  620.20   23.74
  -3   3  -6  602.51   14.13
   3  -3   6  563.55   25.84
  -3   3   6  602.87   20.22
   4   3  -6  437.73   19.65
  -4  -3   6  433.93   15.26
  -4   3  -6  447.76   13.67
  -4  -3  -6  456.34   20.72
   4  -3   6  427.04   15.06
   4   3   6  417.56   20.51
  -4   3   6  409.48   19.63
   4  -3   6  376.66   21.30
  -4   3   6  425.53   16.98
   5   3  -6  241.50   14.93
  -5  -3   6  233.91   12.03
  -5   3  -6  248.86   10.77
  -5  -3  -6  226.94   14.86
   5   3   6  234.99   15.94
   5  -3   6  236.35   17.43
  -5   3   6  261.47   15.55
  -5   3   6  240.46   13.51
  -6   3  -6   87.44    8.52
  -6  -3  -6   84.14    9.46
   6   3  -6   70.76    8.44
  -6   3  -6   81.66    6.55
  -6  -3   6   87.53    7.79
   6  -3   6   73.71    9.93
  -6   3   6   76.57    8.68
  -6   3   6   73.28    7.71
   6   3   6   81.70   10.26
   7   3  -6  496.18   23.32
  -7   3  -6  481.07   20.79
  -7  -3   6  491.21   20.43
  -7  -3  -6  490.02   23.56
  -7   3  -6  498.36   18.34
   7   3   6  480.58   26.96
   7  -3   6  472.78   27.39
  -7   3   6  447.33   21.99
  -8   3  -6  167.42   10.82
   8   3  -6  136.21   12.44
  -8  -3  -6  148.99   13.09
   8   3   6  137.93   15.56
  -8   3   6  164.41   14.39
   8  -3   6  141.10   15.64
  -8   3  -6  146.82   11.30
  -8   3   6  153.10   12.89
  -8  -3   6  149.86   11.54
   9   3  -6  127.85   12.57
   9  -3   6  122.91   15.71
  -9   3   6  115.68   12.56
  -9   3  -6  130.95   10.44
  -9   3  -6  119.88   10.52
   9   3   6  135.33   15.98
  -9  -3  -6  106.27   11.59
  -9   3   6  117.57   11.68
  -9  -3   6  111.38   11.02
  10   3  -6  400.25   23.54
 -10   3   6  369.10   23.63
  10   3   6  415.85   29.45
 -10   3   6  361.15   21.33
 -10   3  -6  385.35   19.81
 -10  -3  -6  397.48   23.06
  10  -3   6  342.97   27.43
 -10   3  -6  370.05   18.94
 -10  -3   6  385.30   21.26
   0   3   7   18.48    5.00
   0  -3   7   16.00    3.44
   0   3   7   27.41    4.86
  -1  -3  -7  505.37   22.01
  -1   3   7  493.94   18.32
   1   3   7  494.31   23.12
  -1   3   7  503.30   23.14
   1  -3   7  460.65   18.18
  -1  -3   7  484.40   20.15
   1   3   7  512.81   22.17
   1  -3   7  472.96   24.98
  -2   3   7   25.33    4.19
  -2   3   7   27.56    5.61
   2  -3   7   21.47    3.68
  -2  -3  -7   18.61    4.49
  -2  -3   7   21.00    4.30
  -2  -3   7   20.05    2.43
   2   3   7   21.23    4.66
   2  -3   7   17.05    5.05
   2   3   7   20.45    4.76
  -3   3   7    6.51    2.31
  -3   3   7    9.15    3.72
   3  -3   7    4.34    2.03
  -3  -3   7    8.25    3.47
   3   3   7   13.01    4.24
  -3  -3   7    4.87    1.69
   3  -3   7    4.57    3.08
  -3  -3  -7    5.08    2.21
  -3   3  -7    8.36    1.44
   3   3   7    2.68    2.79
   4  -3   7    6.56    2.14
  -4   3   7   11.36    3.03
  -4   3   7    9.60    3.54
   4   3  -7    5.24    2.62
  -4  -3   7    1.86    2.38
  -4  -3   7    9.52    2.50
   4  -3   7    9.38    4.35
  -4   3  -7    5.78    1.58
  -4  -3  -7    5.01    2.83
   4   3   7    9.72    3.91
  -5   3   7  265.88   16.90
   5   3  -7  267.24   16.47
  -5  -3   7  284.20   13.55
  -5   3  -7  292.40   12.01
  -5  -3  -7  316.29   18.11
   5  -3   7  291.56   13.67
   5   3   7  291.32   18.71
   5  -3   7  266.96   20.02
  -5  -3   7  286.74   17.66
  -5   3   7  290.12   15.11
  -6   3   7   18.86    4.45
  -6   3   7   18.60    4.95
   6   3   7   25.40    6.39
   6   3  -7   22.45    4.60
  -6  -3   7   24.76    5.55
   6  -3   7   19.24    6.34
  -6  -3   7   30.11    4.64
  -6  -3  -7   18.58    5.10
   7   3   7  314.34   22.59
   7   3  -7  283.99   18.01
  -7  -3   7  298.13   16.02
  -7  -3  -7  339.04   19.75
   7  -3   7  273.07   21.68
  -7   3   7  265.46   17.86
   8   3   7   27.65    7.79
  -8   3   7   24.53    6.04
   8  -3   7   35.35    9.01
   8   3  -7   30.44    6.50
  -8   3   7   19.27    5.51
  -8  -3   7   23.14    4.87
  -8  -3  -7   20.17    5.37
   9   3   7    5.37    4.58
  -9   3   7   12.97    4.93
   9  -3   7   20.95    7.06
   9   3  -7   10.54    3.73
  -9   3  -7   18.26    5.07
  -9  -3   7   25.43    5.46
  -9  -3  -7   10.18    4.90
  -9   3   7   20.51    5.88
  10   3   7   16.77    6.95
  10  -3   7   17.95    6.97
 -10   3   7   18.30    6.09
  10   3  -7   26.14    6.44
 -10  -3  -7   31.49    7.11
 -10   3   7   21.14    6.15
 -10  -3   7   22.74    5.18
   0   3   8    3.69    3.52
   0   3   8    2.05    2.94
   0  -3   8    1.36    2.02
   0   3   8    1.92    2.32
  -1  -3  -8  173.81   13.46
   1   3   8  218.10   15.98
  -1   3   8  226.34   16.07
   1  -3   8  216.75   12.88
  -1  -3   8  196.75   13.23
  -1   3   8  205.00   11.72
   1   3   8  220.10   15.43
   1  -3   8  174.84   16.02
  -2  -3  -8  373.03   19.73
  -2   3   8  384.17   21.08
   2  -3   8  363.14   16.65
  -2  -3   8  383.19   19.44
   2   3   8  368.13   19.96
  -2   3   8  375.55   16.11
   2  -3   8  344.68   23.09
   2   3   8  427.27   23.11
  -3  -3  -8  345.41   19.22
   3   3   8  398.54   22.72
   3  -3   8  358.23   16.68
  -3   3   8  381.02   21.12
   3   3   8  364.10   20.50
  -3  -3   8  372.07   20.23
   3  -3   8  310.38   21.99
  -3   3   8  384.02   16.05
  -4  -3  -8  277.77   17.28
   4  -3   8  260.08   14.23
  -4   3   8  255.18   17.44
   4   3   8  289.93   18.90
   4  -3   8  258.49   20.44
  -4  -3   8  304.45   18.69
  -4   3   8  284.73   14.03
   5   3  -8  373.00   20.79
  -5  -3  -8  400.05   21.25
   5   3   8  351.07   21.86
  -5   3   8  336.76   20.39
   5  -3   8  308.98   23.00
  -5  -3   8  386.20   21.98
  -5   3   8  361.68   17.22
  -6   3   8    7.78    3.07
  -6   3   8    4.48    3.50
   6   3  -8    2.16    3.29
   6   3   8   -2.69    3.61
  -6  -3   8    3.01    2.97
   6  -3   8    9.93    4.97
  -6  -3  -8    8.48    3.74
   7   3  -8  306.62   19.49
  -7  -3  -8  326.85   20.17
   7   3   8  314.57   23.17
   7  -3   8  297.24   23.63
  -7   3   8  310.94   20.23
  -7  -3   8  313.88   20.79
  -8   3   8  232.51   18.20
   8   3   8  288.27   23.72
   8   3  -8  193.98   15.98
  -8  -3  -8  259.20   18.15
  -8   3   8  223.70   17.61
  -8  -3   8  200.95   17.55
   8  -3   8  210.92   21.31
   9  -3   8  375.37   30.26
   9   3  -8  389.33   23.52
  -9   3   8  417.17   25.68
  -9  -3  -8  455.58   24.97
   9   3   8  455.42   31.43
  -9   3   8  365.89   23.54
  -9  -3   8  331.54   23.58
   0   3   9    8.86    4.61
   0  -3   9    5.63    2.96
   0   3   9    8.25    3.01
   0   3   9   12.70    4.57
   1   3   9  218.35   17.23
  -1   3   9  207.67   16.61
   1  -3   9  196.94   13.36
  -1  -3   9  201.14   14.47
  -1   3   9  219.52   12.49
   1   3   9  203.56   15.89
   1  -3   9  194.35   18.36
  -2   3   9    3.17    1.81
  -2   3   9    2.64    3.41
   2  -3   9    9.25    3.10
  -2  -3   9    2.90    3.33
   2   3   9    2.14    3.29
  -2  -3  -9    1.44    2.93
   2  -3   9    0.76    3.51
   2   3   9    3.16    3.87
  -3   3   9   35.83    4.89
   3  -3   9   37.51    5.95
  -3   3   9   41.10    7.42
  -3  -3   9   40.72    7.46
   3   3   9   39.68    7.29
   3  -3   9   14.29    5.67
  -3  -3  -9   32.88    6.38
   3   3   9   28.05    6.61
  -4   3   9   46.93    8.05
  -4  -3   9   47.61    8.34
   4   3   9   49.65    9.04
   4  -3   9   42.28    9.00
  -4  -3  -9   43.76    7.08
  -5   3   9   59.53    9.54
   5   3   9   62.91    9.93
  -5  -3   9   69.41    9.85
   5  -3   9   81.34   12.72
  -5  -3  -9   75.32    9.59
  -6   3   9   18.35    5.43
  -6  -3   9    9.74    4.55
   6   3  -9   10.75    5.18
   6   3   9   12.67    5.10
   6  -3   9   17.27    6.49
  -6  -3  -9   19.49    5.55
   7   3  -9  240.52   18.40
  -7  -3  -9  273.77   18.76
   7   3   9  267.71   22.32
   7  -3   9  218.86   22.02
  -7   3   9  226.77   18.26
  -7  -3   9  272.48   20.55
   0  -3  10    0.64    2.52
   0   3  10   -0.69    3.22
   0   3  10    0.08    3.07
   1   3  10  340.72   22.88
  -1   3  10  409.55   24.72
   1  -3  10  359.57   19.82
  -1  -3  10  376.01   21.29
   1   3  10  412.44   19.73
   1   3  10  380.97   22.92
   1  -3  10  366.35   26.79
   2   3  10  159.00   15.87
  -2   3  10  128.64   14.37
   2  -3  10  129.99   11.61
  -2  -3  10  146.76   13.62
   2   3  10  161.44   15.07
   2  -3  10  127.63   15.49
  -3   3  10   93.75   12.06
  -3  -3  10   88.07   11.17
   3   3  10   85.79   10.96
   3  -3  10   88.46   13.29
  -3  -3 -10   85.06    9.97
   3   3  10   87.71   12.00
   3  -3  10   94.89    9.86
  -4  -3 -10  156.80   13.73
  -4   3  10  152.23   15.26
  -4  -3  10  155.73   14.88
   4   3  10  173.08   16.58
   4  -3  10  138.35   16.82
  -5  -3 -10  256.76   17.96
   5   3  10  302.97   22.63
   5  -3  10  267.69   23.87
  -5  -3  10  281.07   20.83
  -5   3  10  265.59   20.45
  -6  -3  10    4.82    4.23
  -6   3  10   -0.85    4.24
   6   3  10   -3.53    3.98
   6  -3  10    3.74    3.91
  -6  -3 -10    4.82    3.28
   0  -3  11  109.42   15.35
   0   3  11  118.75   14.28
   0  -3  11  132.75   12.91
   0   3  11  112.37   13.39
   1   3  11  169.88   16.89
  -1   3  11  153.43   15.85
   1  -3  11  136.33   12.84
  -1  -3  11  151.38   14.08
   1   3  11  146.34   15.37
   1  -3  11  137.33   17.51
  -1   3  11  138.35   15.28
  -2   3  11   86.04   12.33
   2  -3  11   69.94    9.16
  -2  -3  11   65.77    9.71
   2   3  11   66.79   10.53
   2  -3  11   99.18   14.61
   2   3  11   77.85   11.51
  -3   3  11    6.40    4.70
  -3  -3  11    7.73    4.76
   3   3  11   -1.67    4.03
   3  -3  11   -2.83    4.44
  -3  -3 -11   -3.87    4.25
   3   3  11    2.86    3.94
  -4   3  11   28.74    7.51
  -4  -3  11   19.32    6.14
   4   3  11   37.83    9.18
   0   4   0 2477.84   49.40
   0   4   0 2591.34   46.18
   0   4   0 2658.81   50.09
   0  -4   0 2635.59   50.20
   0   4   0 2758.70   51.30
  -1   4   0    0.10    1.18
  -1   4   0    3.22    1.22
  -1   4   0    1.22    1.35
   1  -4   0    3.45    1.31
  -2  -4   0  408.32   15.83
   2  -4   0  435.08   11.59
   2  -4   0  434.33   13.12
  -2   4   0  419.12   10.85
  -2   4   0  412.98   15.30
  -3  -4   0   -0.55    0.99
  -3   4   0    0.08    1.59
   3  -4   0   -0.18    0.77
   3  -4   0    0.63    0.72
  -3   4   0    0.99    0.75
  -3  -4   0    1.37    1.22
  -4   4   0  351.99   13.03
   4  -4   0  330.97    9.42
  -4  -4   0  344.47   15.22
  -4   4   0  333.70   15.45
  -5   4   0   -0.78    2.17
  -5  -4   0   -0.09    1.75
  -5   4   0    1.48    0.72
  -5   4   0    1.14    1.30
  -6   4   0 3354.35   67.68
  -6   4   0 3472.47   56.42
  -6  -4   0 3466.28   69.46
  -7   4   0    1.95    1.25
  -7   4   0    1.85    2.11
  -7  -4   0    6.84    2.90
  -8   4   0   59.64    7.59
  -8  -4   0   50.35    6.81
  -9   4   0   -0.31    2.33
  -9  -4   0    1.87    2.53
 -10   4   0  221.52   15.80
 -10  -4   0  232.30   16.22
 -11   4   0   -0.33    2.91
 -11  -4   0    6.86    3.90
 -12   4   0 1494.35   48.73
 -12  -4   0 1472.37   47.93
   0   4  -1    2.42    1.32
   0   4  -1    0.56    1.26
   0   4   1   -0.69    1.10
   0   4  -1    0.84    1.43
   0  -4  -1    0.03    1.50
   0  -4   1    1.90    1.07
   0   4   1    1.30    1.30
   0   4  -1    0.18    1.36
   1  -4   1  592.88   16.34
   1   4  -1  574.44   17.60
  -1   4   1  591.91   13.51
  -1  -4   1  597.50   18.02
  -1   4  -1  583.05   19.61
   1   4  -1  563.61   17.07
   1   4   1  620.49   17.91
  -1   4  -1  570.67   16.03
  -1  -4  -1  597.99   20.39
   1  -4   1  582.93   13.79
   1   4  -1  606.65   17.86
  -1   4   1  577.04   18.89
  -1  -4  -1  636.05   11.49
  -1   4  -1  609.49   18.00
   2  -4   1  212.23    8.73
  -2   4  -1  194.46   11.22
  -2  -4   1  198.00   10.05
  -2  -4  -1  208.86   11.44
  -2   4  -1  212.35    8.89
   2  -4   1  206.98    7.93
   2  -4   1  204.08    8.03
  -2   4   1  215.00    6.79
  -2  -4  -1  214.36    7.15
   2  -4  -1  209.42    9.53
  -2   4   1  225.92   11.08
  -2   4  -1  202.43   10.03
   2   4  -1  203.98   10.00
   3  -4  -1  842.53   16.17
   3  -4   1  869.35   21.44
  -3  -4  -1  840.34   20.20
  -3  -4   1  912.98   24.73
  -3  -4  -1  873.06   26.28
   3  -4   1  875.55   21.94
  -3   4   1  928.20   20.91
  -3   4   1  872.20   22.49
  -3  -4  -1  935.71   20.69
   3  -4   1  877.33   17.24
   3  -4  -1  875.78   21.26
  -3   4  -1  893.08   21.93
  -3   4   1  872.08   24.95
  -3   4  -1  876.83   25.25
   4  -4   1    1.29    1.15
  -4   4   1    1.96    1.95
  -4   4  -1    1.59    1.99
  -4   4   1    0.39    1.08
   4  -4  -1    1.64    1.00
   4  -4  -1    1.12    0.59
  -4  -4  -1    0.43    0.98
  -4   4  -1    0.32    0.99
  -4  -4   1   -0.65    1.27
  -4  -4  -1   -1.06    1.63
  -4   4   1    1.26    1.46
  -5  -4  -1  955.71   29.72
  -5   4   1 1031.42   24.92
  -5  -4   1 1001.31   28.48
  -5   4  -1 1013.85   27.05
  -5   4   1  999.23   30.32
  -5   4  -1 1030.53   30.37
  -6   4   1    6.95    2.03
  -6   4   1    5.13    3.14
  -6   4   1    5.80    2.80
  -6   4  -1    6.91    2.30
  -6  -4   1    6.85    2.89
  -6  -4  -1    7.65    3.06
  -7   4   1  266.07   15.19
  -7  -4   1  279.60   15.21
  -7  -4  -1  250.08   14.89
  -7   4   1  261.20   11.42
  -7   4  -1  240.76   13.61
  -8   4   1   14.53    3.91
  -8   4   1    9.26    2.50
   8   4  -1    8.59    2.52
  -8   4  -1    9.80    3.32
  -8  -4   1    5.87    2.97
  -8  -4  -1    9.46    3.44
  -8   4  -1    7.28    2.34
  -9   4   1  119.31   11.32
  -9   4  -1  129.05   11.12
  -9  -4   1  128.04   11.27
  -9  -4  -1  114.79   10.95
 -10   4   1    1.53    3.17
 -10   4  -1    0.03    2.51
 -10  -4   1    2.38    2.65
 -10  -4  -1    0.10    2.53
 -11  -4  -1  305.07   19.74
 -11   4   1  317.57   20.40
 -11   4  -1  316.45   19.53
 -11  -4   1  308.91   19.42
 -12   4   1    7.67    5.03
 -12   4  -1    7.08    4.30
 -12  -4   1    7.45    4.16
 -12  -4  -1    4.63    4.51
   0   4  -2   63.01    5.52
   0   4  -2   58.98    4.03
   0  -4  -2   59.74    6.32
   0   4   2   59.54    2.62
   0   4   2   58.14    5.83
   0   4  -2   61.03    4.88
  -1   4   2   31.06    2.19
   1   4   2   28.27    2.50
   1   4   2   31.89    3.48
   1   4  -2   28.18    2.93
  -1   4  -2   30.32    2.86
  -1  -4   2   40.39    3.83
  -1   4  -2   33.30    4.77
   1   4  -2   28.98    3.91
  -1  -4  -2   29.82    4.90
   1   4  -2   31.90    3.54
   1  -4   2   29.40    3.38
  -1   4  -2   33.22    3.77
  -1   4   2   28.18    4.08
   2   4  -2 1794.68   39.72
   2   4  -2 1839.45   35.57
   2   4   2 1760.07   34.82
  -2   4  -2 1761.58   41.43
  -2  -4   2 1802.70   36.69
  -2  -4  -2 1726.52   42.07
  -2   4  -2 1744.84   32.99
  -2   4   2 1741.18   39.74
   2  -4   2 1803.23   36.32
  -2   4   2 1703.35   39.52
  -2   4  -2 1765.93   38.15
  -3   4   2    1.97    1.56
  -3   4  -2    1.58    1.37
   3  -4   2    1.90    1.35
  -3   4  -2    2.34    2.21
  -3   4  -2    0.10    1.08
  -3  -4  -2    1.68    1.13
  -3  -4  -2    2.46    1.98
  -3  -4   2    1.10    1.12
   3  -4   2    1.69    0.57
  -3   4   2    1.71    1.59
  -4   4  -2 1336.68   29.32
  -4   4  -2 1284.12   35.13
  -4  -4  -2 1234.45   24.60
  -4   4   2 1303.77   30.75
  -4  -4  -2 1320.76   35.87
   4  -4   2 1314.06   32.83
  -4  -4   2 1312.76   31.57
  -4   4   2 1354.07   32.35
  -4   4   2 1299.44   34.01
  -4   4  -2 1328.56   33.85
  -5   4   2   38.49    5.64
   5  -4   2   44.37    5.89
  -5  -4   2   43.82    5.40
  -5  -4  -2   37.28    3.11
   5   4  -2   42.18    5.46
  -5   4  -2   36.28    4.26
  -5   4   2   45.13    5.10
  -5  -4  -2   45.14    6.17
  -6   4  -2   97.64    7.49
  -6   4  -2  104.12    7.95
  -6  -4   2   84.93    7.83
   6  -4   2  102.40    9.35
  -6  -4  -2   97.44    9.23
  -6   4   2   95.07    7.42
  -6   4   2  105.47    9.27
   6   4  -2  101.61    8.28
   7  -4   2   48.99    7.32
  -7   4  -2   55.08    6.28
  -7  -4   2   60.39    6.88
  -7   4   2   49.55    6.89
  -7  -4  -2   46.49    6.62
   7   4  -2   56.36    6.28
  -7   4   2   58.16    5.93
  -7   4  -2   57.29    5.80
  -8   4   2  849.82   31.45
  -8   4  -2  862.95   28.55
  -8  -4   2  887.72   30.01
  -8  -4  -2  878.78   31.52
  -8   4  -2  895.54   24.80
   8   4  -2  913.88   27.72
  -8   4   2  925.90   26.46
  -9   4   2   57.16    8.22
  -9   4  -2   50.77    7.08
  -9  -4   2   43.74    6.81
  -9  -4  -2   51.16    7.62
 -10   4   2  374.27   21.67
 -10   4  -2  361.81   19.29
 -10  -4   2  330.72   19.33
 -10  -4  -2  352.16   20.40
 -11   4   2   21.08    5.50
 -11   4  -2   15.60    4.79
 -11  -4   2   12.44    4.54
 -11  -4  -2   18.57    5.78
   0   4  -3    1.91    1.18
   0   4  -3    0.51    1.77
   0   4  -3    4.98    2.63
   0   4  -3    1.07    0.57
   0   4   3    1.31    0.83
   0  -4  -3    2.10    2.18
   0   4   3    2.87    2.25
   1   4  -3    3.43    1.38
  -1   4  -3    4.71    1.70
   1   4  -3    3.46    2.20
   1   4  -3    4.62    2.12
   1   4   3    1.24    1.00
  -1   4  -3    3.85    1.95
   1   4  -3    2.48    0.89
  -1   4  -3    3.10    0.74
  -1  -4   3    3.02    1.11
  -1  -4  -3    5.80    2.61
   1  -4   3    4.89    2.10
  -1   4   3    2.95    1.86
   2   4  -3  134.82    9.40
  -2   4  -3  133.16    9.22
   2   4  -3  130.92    9.06
  -2   4  -3  127.09    5.32
   2   4  -3  137.29    6.40
  -2   4  -3  130.94    9.69
  -2  -4  -3  120.57    9.66
  -2   4  -3  133.26    5.34
   2   4   3  141.93    7.89
  -2   4   3  120.40    9.33
   2  -4   3  128.49    8.65
   2   4  -3  131.18    6.88
   2   4   3  152.08    6.61
  -2   4   3  121.14    8.61
  -2  -4   3  141.08    7.26
  -2   4  -3  142.05    8.40
   3   4  -3 1300.42   33.74
  -3   4  -3 1228.18   25.11
   3   4  -3 1262.89   27.52
  -3   4  -3 1271.39   34.18
  -3  -4   3 1251.27   28.19
   3   4   3 1208.02   30.95
  -3  -4  -3 1187.08   34.42
  -3   4   3 1181.01   32.68
   3  -4   3 1341.73   32.87
   3  -4   3 1228.07   21.34
  -3   4   3 1173.17   31.62
  -3   4  -3 1255.74   30.84
   3   4  -3 1184.20   32.59
  -3   4  -3 1217.31   31.99
  -4   4   3    1.80    1.88
   4   4   3   -0.29    1.91
  -4   4   3    1.73    2.48
  -4   4  -3    0.90    1.51
   4   4  -3    2.68    2.07
   4   4  -3    3.25    2.16
   4  -4   3    4.28    2.28
  -4   4  -3    4.15    2.59
  -4   4  -3    0.94    1.16
  -4  -4   3    5.57    1.87
  -4  -4  -3   -0.08    1.80
   5   4   3   16.73    4.22
  -5   4   3   11.82    3.16
  -5   4   3   20.53    4.32
   5  -4   3   26.92    4.85
  -5   4  -3   14.72    3.72
  -5   4  -3   13.89    2.76
  -5  -4   3   13.61    3.16
  -5  -4  -3   15.75    3.82
   5   4  -3   18.19    4.09
  -5   4  -3   13.66    2.99
  -6   4   3   39.15    5.93
   6  -4   3   40.67    6.50
   6   4  -3   47.46    6.25
  -6   4   3   49.22    5.86
  -6   4  -3   39.92    5.90
  -6   4  -3   44.18    5.26
  -6   4  -3   38.92    4.85
  -6  -4   3   39.51    5.28
  -6  -4  -3   39.02    6.23
   7  -4   3    3.08    2.58
  -7   4   3    4.73    2.30
  -7   4   3    0.27    2.59
  -7   4   3    3.48    2.79
  -7   4  -3    0.95    1.44
  -7  -4   3    7.91    3.23
  -7  -4  -3   -0.74    3.04
   7   4  -3    0.33    1.94
  -7   4  -3    4.33    2.25
   8  -4   3   16.70    4.95
  -8   4   3   13.14    3.38
   8   4  -3    9.72    2.83
  -8   4  -3   13.97    3.03
  -8   4   3   12.30    4.24
  -8   4  -3   12.79    3.39
  -8  -4   3    9.23    3.14
  -8  -4  -3   14.09    4.53
  -9   4   3 1016.63   37.20
  -9   4  -3 1105.26   33.34
  -9  -4   3 1011.09   33.85
  -9  -4  -3 1035.99   36.71
  -9   4   3  997.73   30.86
 -10   4   3   73.68    9.91
 -10   4  -3   75.18    8.69
 -10  -4   3   72.66    8.84
 -10  -4  -3   64.83    8.85
 -11   4   3  115.18   12.85
 -11   4  -3  109.59   11.01
 -11  -4   3   90.27   10.37
 -11  -4  -3  109.14   12.01
   0  -4  -4 3514.55   72.45
   0   4   4 3608.35   72.89
   0   4  -4 3504.76   69.51
   0   4   4 3585.57   68.82
   0   4  -4 3473.75   59.52
   0   4   4 3574.05   61.63
   1   4  -4  279.57   14.22
   1   4  -4  279.72   14.66
  -1  -4   4  271.34    6.80
  -1  -4  -4  290.45   15.63
  -1   4   4  292.57   15.94
  -1   4  -4  285.02   14.58
   1   4   4  268.96   11.03
  -1   4   4  287.01   13.85
   1   4  -4  281.39    9.45
  -1   4  -4  292.00   11.28
   1  -4   4  284.15   15.06
  -2   4   4   10.64    3.08
   2   4  -4    7.31    2.70
   2  -4   4    8.77    1.83
   2   4   4   10.14    2.60
   2   4   4   10.00    1.67
   2   4  -4    6.97    1.38
   2   4  -4    6.10    2.92
  -2   4  -4    7.26    0.90
  -2  -4   4    7.12    1.60
  -2   4  -4    9.19    3.07
  -2   4  -4    7.17    0.86
  -2  -4  -4    4.53    2.10
   2  -4   4    7.62    2.80
  -2   4   4    5.87    2.94
   2   4  -4    7.65    1.56
   3   4  -4   52.20    4.21
   3   4  -4   51.35    6.32
  -3   4  -4   52.58    3.45
   3   4  -4   53.18    6.50
  -3   4  -4   53.74    6.74
   3   4   4   50.41    5.75
   3  -4   4   45.86    5.95
  -3   4   4   52.17    6.58
  -3  -4  -4   50.34    6.66
   3  -4   4   51.03    3.43
   3   4  -4   52.31    4.16
  -3   4  -4   45.94    5.91
  -3  -4   4   51.53    4.46
  -3   4   4   56.21    6.19
   4   4  -4  135.52   10.50
  -4   4  -4  146.84    7.03
   4   4   4  171.08   11.99
  -4  -4  -4  133.92   11.04
  -4   4  -4  151.45   10.26
  -4   4   4  147.95   10.73
   4  -4   4  128.44   10.84
  -4   4  -4  144.09   10.92
  -4   4   4  154.77   10.39
   4   4  -4  150.74   11.03
  -4  -4   4  147.08    8.62
  -5   4   4   24.00    4.57
  -5   4   4   30.55    5.24
   5   4   4   31.73    5.54
   5   4  -4   40.17    6.45
   5  -4   4   31.00    5.77
  -5   4  -4   36.89    5.62
  -5   4  -4   34.47    3.96
  -5  -4   4   33.33    4.52
  -5  -4  -4   43.70    6.68
   5   4  -4   34.40    5.43
  -5   4  -4   29.05    5.15
   6   4  -4 1451.42   40.05
  -6   4  -4 1457.27   37.21
  -6   4  -4 1482.33   34.21
  -6  -4   4 1497.00   37.35
  -6   4  -4 1409.91   39.83
   6   4   4 1632.36   47.15
  -6  -4  -4 1496.46   42.98
   6  -4   4 1427.50   44.10
  -6   4   4 1542.84   40.10
  -6   4   4 1533.65   41.51
  -7   4   4   48.49    6.60
  -7   4   4   60.75    7.95
   7  -4   4   42.10    7.97
  -7   4  -4   54.16    5.84
   7   4  -4   57.72    7.51
  -7   4  -4   51.89    6.30
  -7   4  -4   53.77    7.06
  -7  -4   4   47.01    6.22
  -7  -4  -4   46.04    7.32
   7   4   4   55.67    8.77
   8  -4   4   -0.95    2.90
  -8   4   4   -0.70    2.19
  -8   4  -4   -0.13    2.56
  -8   4   4    1.91    2.59
  -8   4  -4    0.30    1.68
  -8  -4   4    3.99    3.14
  -8  -4  -4    1.20    2.76
   9  -4   4    4.55    3.85
  -9   4   4    1.65    3.27
  -9   4   4    4.53    2.81
  -9   4  -4    0.32    3.04
  -9   4  -4    2.11    2.81
  -9  -4   4    0.98    2.49
  -9  -4  -4    1.22    3.49
 -10   4  -4   85.63    9.03
 -10  -4   4   82.59    9.58
 -10   4  -4   77.89    9.75
 -10   4   4   93.43   11.40
 -10  -4  -4   83.92   10.46
 -11   4   4   20.97    6.35
 -11   4  -4    8.40    4.00
 -11   4  -4   15.47    4.87
 -11  -4   4   11.89    4.38
 -11  -4  -4    4.45    3.34
   0  -4  -5    0.17    2.47
   0   4  -5    3.35    2.32
   0   4   5    2.35    1.61
   0   4   5    5.17    2.56
   0   4   5    1.83    1.90
   1   4  -5 1398.06   38.52
  -1   4  -5 1448.42   38.53
  -1  -4  -5 1494.93   40.88
   1   4   5 1421.37   41.62
  -1   4   5 1419.28   40.76
  -1   4   5 1463.45   36.88
   1   4   5 1411.32   33.66
   1  -4   5 1433.91   32.01
   1   4  -5 1427.70   27.02
   1  -4   5 1426.99   41.36
  -2   4   5   30.04    4.68
  -2   4   5   29.45    5.61
  -2   4   5   25.33    1.97
   2   4  -5   27.25    4.80
  -2  -4   5   21.95    2.31
   2   4   5   32.19    4.62
  -2  -4  -5   28.85    5.32
   2   4  -5   32.38    5.28
   2  -4   5   27.98    5.15
   2  -4   5   28.58    3.41
  -2   4  -5   33.34    5.28
   2   4  -5   26.35    2.30
  -3   4   5    3.38    2.23
  -3   4   5    3.22    1.88
   3  -4   5    2.57    1.14
   3   4  -5    1.44    2.11
   3   4   5    5.56    2.47
  -3  -4   5    3.80    1.36
   3  -4   5    4.93    2.67
  -3   4  -5    1.57    0.62
   3   4  -5    5.24    2.55
  -3   4  -5    4.83    2.89
  -3  -4  -5   12.15    3.94
   3   4  -5    3.03    1.01
  -4   4   5   44.49    6.31
  -4   4   5   45.35    6.00
   4   4   5   49.32    7.07
   4   4  -5   48.34    6.58
  -4  -4   5   47.43    4.70
  -4   4  -5   47.75    3.68
  -4   4  -5   46.37    6.66
   4   4  -5   38.31    6.03
  -4   4  -5   39.98    5.66
   4  -4   5   45.77    3.51
  -4  -4  -5   45.85    6.73
   4   4  -5   43.96    3.55
   4  -4   5   36.46    6.18
   5   4  -5  750.10   28.23
   5   4  -5  763.43   28.52
  -5   4  -5  801.17   26.87
  -5  -4   5  813.70   23.91
  -5   4  -5  834.90   20.72
  -5   4  -5  780.13   27.79
  -5  -4  -5  854.54   30.63
   5   4   5  848.10   31.73
   5  -4   5  761.10   30.54
  -5   4   5  789.91   28.34
  -5   4   5  795.26   27.47
  -6   4   5   51.74    7.13
  -6   4   5   56.11    6.97
   6   4   5   58.57    8.59
   6   4  -5   63.81    7.78
   6   4  -5   50.59    7.46
  -6   4  -5   51.28    6.65
   6  -4   5   39.73    7.15
  -6  -4   5   60.28    6.48
  -6   4  -5   57.51    5.37
  -6   4  -5   59.80    7.82
  -6  -4  -5   60.15    8.10
   7   4  -5  764.64   30.59
  -7  -4   5  767.76   26.25
  -7   4  -5  802.71   23.80
   7   4   5  860.39   36.63
  -7  -4  -5  796.74   31.25
  -7   4  -5  760.93   28.28
   7  -4   5  757.81   33.83
  -7   4   5  760.29   28.41
  -7   4   5  765.07   29.30
   8   4   5    3.66    4.43
  -8  -4   5    3.33    2.38
  -8   4   5    3.14    2.86
   8  -4   5    2.71    3.37
   8   4  -5    9.23    3.04
  -8   4  -5    3.96    3.36
  -8   4   5    3.78    3.55
  -8   4  -5    2.81    2.07
  -8  -4  -5    2.22    3.29
  -9   4   5   36.59    7.44
   9  -4   5   29.47    7.78
  -9   4   5   31.12    6.46
   9   4  -5   24.86    5.93
  -9   4  -5   29.45    6.11
  -9  -4   5   32.96    6.08
  -9   4  -5   32.18    5.22
  -9  -4  -5   28.69    6.30
  10  -4   5   78.69   12.65
 -10   4   5   71.34    9.12
 -10   4  -5   80.08    8.57
 -10   4  -5   73.27    9.02
 -10   4   5   77.48   10.87
 -10  -4   5   74.17    9.09
 -10  -4  -5   85.23   10.75
   0   4  -6  281.96   16.49
   0  -4  -6  279.42   17.16
   0   4   6  303.85   17.95
   0   4   6  322.73   16.27
   0  -4   6  322.10   14.43
   0   4   6  318.92   15.16
   1  -4   6   33.23    6.28
   1  -4   6   39.04    4.53
  -1  -4   6   31.76    4.87
   1   4  -6   47.05    6.98
  -1   4  -6   29.74    5.43
   1   4   6   25.29    4.28
  -1  -4  -6   40.01    6.44
   1  -4   6   33.47    3.47
   1   4   6   27.04    5.49
  -1   4   6   40.64    5.66
  -1   4   6   39.37    6.26
   2   4  -6  240.73   15.32
  -2   4  -6  207.79   13.79
   2   4  -6  226.66   14.35
  -2  -4   6  198.83    6.36
  -2  -4  -6  215.35   14.58
  -2   4   6  198.59   14.42
   2   4   6  237.83   13.22
   2  -4   6  210.12   10.33
  -2   4   6  242.65   13.16
   2  -4   6  211.21   15.45
  -3   4   6    6.43    2.79
  -3   4   6    5.84    3.24
   3  -4   6    3.65    1.74
   3   4  -6    6.08    3.62
   3   4  -6    2.47    2.86
  -3   4  -6    4.24    3.10
   3   4   6    1.54    2.00
  -3  -4   6    5.20    1.56
   3  -4   6    2.88    2.36
  -3  -4  -6    1.81    2.41
   4   4  -6  100.30   10.18
  -4   4  -6  118.43   10.21
   4   4  -6  112.12   10.35
  -4  -4   6  116.81    7.39
  -4   4  -6  109.76    5.46
  -4  -4  -6  119.78   11.08
   4   4   6   99.97    9.74
   4  -4   6  112.08    6.73
  -4   4   6  112.02   10.57
   4  -4   6   92.43   10.58
  -4   4   6  109.60    9.16
  -5   4   6   39.00    5.72
  -5   4   6   31.37    5.61
   5   4   6   27.23    5.70
   5   4  -6   45.07    6.94
  -5   4  -6   38.03    3.73
   5  -4   6   34.09    7.04
  -5  -4   6   29.72    4.24
  -5  -4  -6   34.73    6.13
  -6   4  -6  105.35   10.23
   6   4  -6  104.99   10.83
  -6  -4  -6  109.03   11.18
   6   4   6  116.85   12.52
   6  -4   6  118.71   12.61
  -6   4   6  114.57   10.92
  -6  -4   6  118.78    9.09
  -6   4   6  109.10   10.21
  -7   4   6   45.72    7.19
  -7   4   6   69.72    8.62
   7   4   6   64.42    9.91
   7   4  -6   59.41    8.47
   7  -4   6   71.66   10.90
  -7  -4   6   66.31    7.19
  -7   4  -6   63.11    8.13
  -7  -4  -6   69.91    9.13
   8   4  -6  351.14   21.34
  -8   4   6  358.64   22.24
  -8  -4   6  363.39   18.52
  -8   4  -6  336.17   18.92
   8   4   6  433.38   27.97
  -8  -4  -6  364.98   21.49
   8  -4   6  347.20   25.04
  -8   4   6  338.94   19.77
   9   4   6   17.34    7.45
  -9   4   6    2.93    2.85
   9  -4   6   15.88    7.09
   9   4  -6    6.82    3.96
  -9   4  -6    6.82    3.47
  -9   4   6   15.89    5.45
  -9  -4   6   13.62    4.16
  -9  -4  -6   12.81    4.94
  10  -4   6   53.18   11.11
 -10   4   6   70.24    9.51
  10   4  -6   62.55    9.82
 -10   4  -6   49.69    7.81
 -10   4   6   55.32    9.66
 -10  -4   6   70.13    8.92
 -10  -4  -6   70.03   10.05
   0  -4   7    0.46    1.56
   0   4   7    1.32    2.11
   0   4   7    4.48    2.97
   0   4   7   -0.07    2.35
   1  -4   7   30.67    4.62
  -1  -4   7   32.78    5.64
  -1  -4  -7   33.00    6.13
   1   4   7   37.87    5.80
   1   4   7   33.32    6.45
  -1   4   7   29.06    5.04
  -1   4   7   34.11    6.68
   1  -4   7   23.50    6.41
  -2  -4  -7   97.36   10.19
   2   4   7   90.47   10.60
  -2   4   7   90.27   10.22
   2  -4   7   75.93    6.81
   2   4   7   79.59    8.39
  -2   4   7   91.12    8.23
   2  -4   7   81.65   10.91
  -2  -4   7   88.19    8.83
   3   4  -7 1271.45   39.63
  -3  -4  -7 1303.86   40.55
  -3   4   7 1181.90   40.03
   3  -4   7 1238.53   30.97
   3   4   7 1368.88   39.37
   3  -4   7 1143.02   42.39
  -3   4   7 1283.06   34.81
  -3  -4   7 1275.75   38.65
  -4  -4  -7  136.02   12.40
   4   4  -7  116.30   11.15
   4   4   7  130.61   11.82
  -4   4   7  115.24   11.36
   4  -4   7  116.22   13.04
  -4   4   7  135.76   10.11
  -5   4   7   23.67    5.94
  -5   4   7   28.99    5.14
   5   4   7   27.08    6.13
   5  -4   7   19.54    5.83
  -5  -4  -7   33.56    6.54
   5   4  -7   38.52    7.03
  -6   4   7    2.84    2.71
  -6   4   7    4.97    2.71
   6   4   7    6.19    3.76
   6  -4   7    1.98    3.24
  -6  -4  -7    5.46    3.56
   6   4  -7    1.30    3.09
   7   4  -7  150.85   13.87
  -7  -4  -7  176.67   14.73
   7  -4   7  166.52   16.99
  -7   4   7  153.73   13.79
   7   4   7  139.71   14.95
  -7   4   7  157.93   12.97
   8   4   7   35.50    8.43
  -8   4   7   24.94    6.40
   8  -4   7   32.07    8.39
   8   4  -7   30.20    6.35
  -8   4   7   21.44    5.79
  -8   4  -7   18.18    5.02
  -8  -4  -7   31.48    7.11
   9   4  -7  661.18   31.87
  -9   4   7  739.01   34.83
   9   4   7  785.94   40.50
  -9   4  -7  673.71   28.37
  -9  -4  -7  756.77   33.36
   9  -4   7  656.29   39.03
  -9   4   7  681.57   31.10
   0   4   8  259.11   18.34
   0   4   8  263.57   15.25
   0  -4   8  247.09   14.68
   0   4   8  245.26   16.17
   1  -4   8    3.28    2.05
  -1  -4   8    2.43    2.72
  -1  -4  -8    5.17    2.64
   1   4   8    9.31    3.68
   1   4   8    4.45    3.56
   1  -4   8    1.97    3.08
  -1   4   8    3.94    2.21
  -1   4   8    8.01    4.21
  -2   4   8   10.00    3.59
  -2   4   8   13.01    4.73
   2  -4   8    7.79    2.76
  -2  -4   8   11.55    3.69
   2   4   8    6.04    3.39
  -2  -4  -8    9.52    4.18
   2  -4   8    6.87    3.92
   2   4   8   13.23    5.17
  -3   4   8   24.09    5.89
  -3   4   8   33.22    5.45
   3  -4   8   35.54    5.09
  -3  -4   8   39.09    6.74
   3   4   8   33.66    6.56
   3  -4   8   21.55    6.17
  -3  -4  -8   29.67    6.44
  -4   4   8   82.88   10.35
   4   4   8   90.23   10.38
  -4  -4  -8   97.51   10.79
   4  -4   8   80.63   11.67
  -4   4   8   79.85    8.07
  -4  -4   8   94.31   11.08
  -5   4   8   21.62    5.94
  -5   4   8   35.25    6.12
   5   4  -8   35.99    7.43
  -5  -4   8   37.01    6.97
   5   4   8   42.58    7.67
   5  -4   8   24.70    6.64
  -5  -4  -8   43.96    7.81
   6   4  -8  234.74   17.70
  -6  -4  -8  259.22   18.32
   6   4   8  257.42   19.67
   6  -4   8  209.17   20.52
  -6   4   8  247.06   18.13
  -6  -4   8  245.62   18.70
  -6   4   8  286.68   16.93
  -7   4   8   35.51    7.78
  -7   4   8   29.96    5.88
   7   4   8   32.40    7.59
   7   4  -8   23.18    6.23
   7  -4   8   28.01    8.60
  -7  -4   8   28.65    6.81
  -7  -4  -8   32.75    7.43
  -8   4   8   33.26    7.47
   8   4   8   34.46    8.34
   8  -4   8   36.11    9.36
  -8  -4   8   41.59    8.69
  -8   4   8   35.17    7.80
  -8  -4  -8   48.07    8.52
   8   4  -8   25.90    6.43
   0  -4   9    2.68    2.68
   0   4   9   -0.38    2.81
   0   4   9    1.46    3.71
   0   4   9    1.30    3.12
   1   4   9  600.61   30.23
  -1   4   9  592.59   29.58
   1  -4   9  542.85   22.86
   1   4   9  615.69   25.88
  -1  -4   9  555.72   24.85
  -1   4   9  594.28   23.17
   1   4   9  586.01   26.56
   1  -4   9  510.86   31.40
  -2   4   9    1.66    3.53
  -2   4   9    0.27    2.34
   2  -4   9    5.29    2.96
  -2  -4   9    3.93    3.05
   2   4   9   -5.63    3.85
  -2  -4  -9   -2.08    2.86
   2  -4   9   -1.26    3.47
   2   4   9   -3.47    4.33
  -3   4   9   16.38    5.33
  -3   4   9   15.17    3.76
  -3  -4   9   15.91    5.04
   3   4   9   14.60    4.62
   3  -4   9   20.37    6.63
  -3  -4  -9    7.02    3.97
  -4   4   9   49.93    8.83
  -4   4   9   50.15    6.46
  -4  -4   9   44.80    8.12
   4   4   9   58.99    9.14
   4  -4   9   45.30    9.58
  -4  -4  -9   42.40    7.39
  -5  -4  -9  722.94   31.68
   5   4   9  742.40   33.93
  -5   4   9  685.43   32.73
   5  -4   9  660.24   37.19
  -5  -4   9  747.96   33.39
  -6   4   9    0.11    3.58
   6   4   9    3.18    3.65
  -6  -4   9   -1.29    3.24
   6   4  -9   10.26    5.34
  -6  -4  -9   -0.30    2.97
   6  -4   9    6.10    4.46
   7   4  -9  240.23   19.54
  -7  -4  -9  242.06   18.44
   7   4   9  242.51   21.52
   7  -4   9  220.99   22.55
  -7   4   9  225.88   18.88
  -7  -4   9  241.24   19.66
   0   4  10  297.68   21.89
   0  -4  10  276.86   17.58
   0   4  10  310.51   17.41
   0   4  10  269.43   19.27
   0  -4  10  262.11   22.84
  -1   4  10   32.66    6.95
   1  -4  10   25.90    5.66
  -1  -4  10   25.07    6.00
   1   4  10   32.77    6.71
   1  -4  10   34.15    8.98
   1   4  10   41.66    8.55
   1   4  10   30.26    5.65
  -1   4  10   42.74    8.49
  -1   4  10   40.42    6.44
  -2   4  10    9.68    6.25
  -2  -4  10   12.27    4.38
   2   4  10    5.23    3.77
   2  -4  10    4.30    4.93
   2   4  10    9.02    4.31
  -3   4  10   13.39    5.68
  -3  -4  10    0.44    2.95
   3   4  10   10.86    4.27
   3  -4  10   -2.00    4.30
  -3  -4 -10   -0.91    3.24
  -4   4  10    2.14    4.00
  -4  -4  10    3.43    4.34
   4   4  10   -0.48    4.24
   4  -4  10   10.10    7.50
  -4  -4 -10    3.76    3.00
  -5   4  10   60.12   10.58
  -5  -4  10   52.88    9.19
   5   4  10   28.33    7.33
   5  -4  10   45.96   10.09
  -5  -4 -10   37.44    7.62
   0  -4  11    4.43    3.97
   0   4  11   -4.81    4.72
   0   4  11    0.73    5.20
   0  -4  11    1.35    4.07
  -1  -4  11   20.40    5.75
   1   4  11   24.97    7.19
   1  -4  11   32.83    9.55
   1   4  11   46.28    9.67
  -1   4  11   17.90    6.48
  -1   4  11   34.05    8.87
  -2   4  11    5.57    5.32
  -2  -4  11   -3.90    3.92
   2   4  11    7.93    5.11
   2  -4  11   -3.29    6.30
   2   4  11    1.63    4.39
   0   5   0   -2.04    2.08
   0  -5   0   -0.52    1.57
   0   5   0    0.84    1.17
   0   5   0    1.20    1.58
  -1   5   0    0.98    1.51
  -1  -5   0    0.42    0.46
  -1   5   0    0.97    1.09
  -1   5   0    4.64    2.52
  -1  -5   0    0.45    1.49
   1   5   0    2.00    1.77
  -2   5   0  898.90   28.12
  -2  -5   0  911.01   19.18
  -2  -5   0  876.12   26.92
  -2   5   0  925.00   26.63
  -3   5   0    4.27    2.19
  -3  -5   0    0.42    0.88
   3  -5   0    1.94    1.26
   3  -5   0    4.95    1.46
  -3  -5   0   -0.90    1.77
  -3   5   0    3.06    1.11
   4  -5   0  201.59    8.27
  -4  -5   0  220.03   12.98
  -4   5   0  208.63    9.80
   4  -5   0  204.89    8.22
  -4   5   0  207.78   12.82
  -5   5   0    0.50    2.26
   5  -5   0    2.57    0.99
  -5  -5   0    0.58    1.67
  -6   5   0    0.45    2.20
  -6   5   0    2.15    2.12
  -6  -5   0    1.12    2.07
  -7   5   0    2.23    2.74
  -7  -5   0    2.30    2.01
  -8   5   0  387.88   19.82
  -8  -5   0  407.83   20.65
  -9   5   0    3.84    3.21
  -9  -5   0   -3.18    2.88
 -10   5   0  474.08   24.14
 -10  -5   0  488.09   24.71
 -11   5   0    3.24    4.02
 -11  -5   0    5.80    3.97
   0   5   1  384.29   12.64
   0   5  -1  376.20   14.11
   0   5   1  402.33   15.80
   0   5  -1  403.12   17.32
   0  -5  -1  395.43   17.33
   0  -5   1  371.42   14.51
   0   5   1  373.28   16.05
   0   5  -1  397.29   15.44
   0  -5   1  359.64   10.18
   1   5  -1  881.07   24.37
  -1   5   1  892.12   19.76
  -1   5   1  931.42   27.02
  -1   5  -1  867.70   27.25
   1   5   1  927.47   25.51
  -1  -5  -1  895.14   27.86
   1  -5   1  839.26   17.73
  -1  -5   1  910.10   25.39
   1   5   1  837.93   26.11
   1   5  -1  862.32   24.61
  -1   5   1  862.58   26.15
  -1   5  -1  884.11   24.99
  -2   5  -1  839.15   26.82
  -2  -5   1  826.23   24.62
  -2  -5  -1  803.49   26.49
   2  -5   1  771.88   18.19
   2  -5   1  801.69   20.62
  -2  -5  -1  849.37   16.53
  -2   5   1  757.41   14.20
  -2   5   1  816.30   25.29
  -2   5  -1  784.54   23.89
   3  -5   1    1.85    1.06
  -3   5   1    1.67    1.82
   3  -5   1    0.11    1.19
  -3   5  -1    5.14    2.71
  -3  -5  -1    0.79    0.79
  -3   5   1    0.53    0.85
  -3   5  -1   -0.40    1.93
  -3  -5   1    0.65    1.71
  -3  -5  -1    0.06    1.57
   4  -5  -1  721.51   15.52
   4  -5   1  725.39   21.80
  -4  -5   1  786.51   25.38
  -4  -5  -1  815.73   27.29
  -4   5   1  820.12   20.89
   4  -5   1  749.42   15.44
  -4   5   1  844.53   27.29
  -4   5  -1  795.85   26.39
   5  -5  -1  125.23    5.46
  -5   5  -1  129.93    9.28
  -5  -5   1  151.88   10.71
  -5  -5  -1  144.10   11.34
   5  -5  -1  108.92    6.51
  -5   5   1  147.61   11.42
  -5   5  -1  124.12   10.24
  -6   5  -1  370.48   16.98
  -6  -5   1  395.76   18.54
  -6  -5  -1  388.64   19.44
  -6   5   1  396.03   14.75
  -6   5   1  420.57   20.20
  -7   5   1  510.92   22.50
  -7   5  -1  512.74   21.08
  -7  -5   1  511.70   22.12
  -7  -5  -1  503.40   23.00
  -7   5   1  527.95   17.41
  -7   5   1  509.12   23.82
  -8   5   1  172.78   13.50
  -8   5  -1  172.85   12.75
  -8  -5   1  188.19   13.65
  -8  -5  -1  177.21   13.81
  -9   5   1   55.58    8.19
  -9   5  -1   46.79    7.14
  -9  -5   1   68.35    8.53
  -9  -5  -1   53.04    8.02
 -10   5   1  277.11   18.97
 -10   5  -1  292.50   18.19
 -10  -5   1  272.12   18.07
 -10  -5  -1  288.12   18.97
 -11   5   1  180.87   15.95
 -11   5  -1  181.91   15.12
 -11  -5   1  182.45   15.43
 -11  -5  -1  187.85   16.00
   0   5  -2   -1.23    1.58
   0   5  -2    0.16    1.50
   0   5   2    0.80    1.56
   0   5  -2   -2.31    1.46
   0  -5  -2   -0.52    1.94
   0   5   2    0.52    1.79
  -1   5   2  325.54    9.52
   1   5  -2  377.42   15.40
   1   5  -2  325.49   12.34
   1   5   2  376.38   14.24
  -1   5  -2  398.16   17.83
  -1   5  -2  327.13   11.84
  -1  -5   2  377.15   13.92
  -1  -5  -2  368.85   17.52
   1  -5   2  357.62   12.31
   1   5  -2  338.68   13.62
  -1   5   2  325.19   15.51
  -1   5  -2  330.80   13.79
   2   5  -2  539.54   19.78
  -2   5  -2  541.50   21.42
  -2  -5   2  527.09   17.99
  -2   5   2  454.89   11.36
  -2  -5  -2  493.77   21.02
  -2   5  -2  477.29   14.82
   2  -5   2  566.04   16.40
   2   5  -2  503.52   17.47
  -2   5   2  491.09   19.59
  -2   5  -2  528.99   18.56
  -2  -5  -2  550.47   13.40
  -3   5   2   16.61    3.78
   3   5  -2   28.55    4.81
  -3   5  -2   15.23    3.84
  -3   5   2   13.76    2.24
  -3   5  -2   30.70    5.23
   3  -5   2   48.80    5.14
   3  -5   2   33.61    2.98
  -3  -5  -2   19.02    2.50
  -3  -5   2   23.72    3.93
  -3  -5  -2   16.46    4.11
  -4   5  -2  356.25   13.69
  -4   5  -2  352.61   18.16
  -4  -5  -2  375.22   18.46
  -4   5   2  332.93   13.34
   4  -5   2  360.21   15.28
  -4  -5   2  369.39   16.06
  -4   5   2  350.97   15.84
  -4   5   2  371.42   17.30
  -4   5  -2  369.61   16.88
  -5   5  -2  107.29    7.94
  -5  -5  -2   82.98    5.35
  -5   5  -2  132.09   11.12
  -5  -5   2   94.59    8.35
   5  -5   2  142.16   10.28
  -5  -5  -2  100.40    9.79
  -5   5   2   86.92    7.83
  -5   5   2   82.41    8.74
  -5   5  -2   98.80    9.39
   6  -5   2   47.65    6.69
  -6   5   2   52.17    7.31
  -6   5  -2   53.89    5.97
  -6   5   2   49.73    5.89
  -6  -5   2   55.54    6.62
  -6  -5  -2   37.94    6.38
   6   5  -2   51.75    6.62
  -7   5   2   29.28    4.61
  -7   5   2   35.35    6.37
  -7   5  -2   32.61    5.01
  -7   5   2   34.28    6.20
  -7   5  -2   44.68    5.86
  -7  -5   2   39.64    6.02
  -7  -5  -2   33.38    6.04
   7   5  -2   35.28    5.98
  -8   5   2  204.69   15.15
  -8   5  -2  229.80   14.31
  -8  -5   2  232.36   15.14
  -8  -5  -2  223.83   16.13
   8   5  -2  235.59   14.57
  -8   5  -2  243.14   13.08
  -9   5  -2   84.03    9.04
  -9   5   2   58.95    8.89
  -9  -5   2   61.83    8.25
  -9  -5  -2   74.96    9.62
 -10   5  -2  412.85   21.49
 -10  -5   2  380.25   21.52
 -10  -5  -2  399.57   23.03
 -10   5   2  429.45   24.13
 -11   5   2    5.29    4.14
 -11   5  -2    8.08    3.45
 -11  -5   2   17.04    5.84
 -11  -5  -2    8.45    4.98
   0   5  -3  274.40   13.92
   0   5  -3  254.14    8.63
   0  -5  -3  266.83   15.62
   0   5   3  271.38    7.99
   0   5   3  291.72   14.96
   0   5  -3  267.59   11.55
   1   5  -3  454.70   18.19
   1   5  -3  433.00   12.47
   1   5   3  500.07   16.02
  -1   5  -3  404.06   11.80
   1   5   3  450.46   12.70
  -1  -5   3  445.71   13.62
  -1  -5  -3  463.93   20.73
  -1   5   3  451.19   18.87
   1   5  -3  458.48   15.44
  -1   5   3  401.91   10.51
   1  -5   3  455.02   16.98
  -1   5  -3  479.06   16.30
   2   5  -3  289.94   14.67
   2   5  -3  292.63   10.86
   2   5   3  268.11   11.52
   2   5   3  332.68   12.17
  -2   5  -3  298.38   16.21
  -2  -5   3  303.97   12.30
  -2   5  -3  260.87    9.44
  -2   5   3  303.49   16.26
   2  -5   3  277.08   12.86
   2   5  -3  301.98   12.31
  -2   5   3  298.99   15.23
  -2   5  -3  324.53   14.10
  -2  -5  -3  283.07   16.12
  -3   5   3    6.73    2.92
  -3   5  -3    8.01    2.77
   3  -5   3    3.09    1.89
   3   5  -3    8.03    3.15
  -3   5  -3    7.49    3.45
  -3   5  -3    3.62    1.46
  -3  -5   3    5.54    1.91
  -3  -5  -3    4.97    2.50
  -3   5  -3    6.42    1.58
  -3   5  -3    4.57    2.17
  -3  -5  -3    6.86    1.99
  -3   5   3    3.59    2.13
   3   5  -3    5.01    1.72
   3   5  -3    3.70    2.64
   4   5  -3  407.20   19.02
  -4   5  -3  414.83   18.30
   4   5  -3  413.46   19.62
  -4   5  -3  442.06   14.47
  -4   5  -3  383.61   19.17
  -4  -5   3  403.25   16.31
  -4  -5  -3  403.13   19.87
   4  -5   3  414.74   17.83
  -4   5   3  444.72   19.66
  -4   5   3  405.12   18.48
  -4   5  -3  429.85   18.64
  -5   5  -3  532.74   17.43
  -5   5  -3  499.13   22.31
  -5  -5   3  531.78   19.79
  -5  -5  -3  542.76   23.58
   5  -5   3  495.80   21.46
  -5   5   3  510.75   21.23
  -5   5   3  490.30   21.97
   5   5  -3  491.12   21.60
  -5   5  -3  526.19   20.83
  -6   5  -3  320.92   14.25
  -6   5  -3  326.22   18.55
  -6  -5   3  335.76   16.28
  -6  -5  -3  336.04   18.92
   6  -5   3  321.77   18.42
  -6   5   3  341.31   17.04
   6   5  -3  302.08   16.85
  -6   5  -3  325.73   16.02
  -6   5   3  350.26   18.83
  -7   5  -3  322.46   15.35
  -7   5  -3  325.81   19.07
  -7  -5   3  333.46   17.16
   7  -5   3  321.32   19.73
  -7  -5  -3  331.23   19.44
   7   5  -3  338.21   18.08
  -7   5   3  345.19   17.42
  -7   5  -3  331.69   16.13
  -7   5   3  338.18   19.35
  -8   5   3  321.64   19.76
  -8   5  -3  322.93   16.40
  -8   5  -3  314.72   19.07
   8  -5   3  289.31   19.53
  -8  -5   3  335.11   18.24
  -8  -5  -3  326.31   19.96
   8   5  -3  327.13   17.92
  -8   5  -3  334.90   15.99
  -8   5   3  327.97   17.02
  -9   5   3    0.46    3.06
  -9   5  -3   -2.83    2.50
  -9  -5   3    3.27    2.57
  -9  -5  -3    3.62    3.50
  -9   5  -3    2.57    2.97
 -10   5   3  174.61   15.95
 -10   5  -3  175.43   13.53
 -10  -5   3  160.57   13.76
 -10  -5  -3  185.33   15.89
 -11   5   3  161.83   15.90
 -11   5  -3  172.63   13.92
 -11  -5   3  138.60   13.60
 -11  -5  -3  134.11   14.20
   0   5  -4    1.74    1.45
   0   5  -4    1.10    2.19
   0   5   4    0.58    0.86
   0  -5  -4   -1.09    2.63
   0   5   4   -1.62    2.10
   1   5  -4  369.38   17.34
   1   5  -4  309.14    8.25
  -1  -5  -4  353.51   18.70
  -1   5   4  339.37   18.73
   1   5   4  364.79   12.73
  -1   5   4  351.02   16.88
   1   5  -4  336.36   12.24
   1   5  -4  330.69   17.20
  -1   5  -4  348.91   17.33
  -1   5  -4  354.60   13.98
   1  -5   4  357.44   16.97
  -1   5   4  320.52   11.23
   2   5  -4  314.31   16.11
   2   5  -4  302.52    9.71
  -2   5  -4  279.51    7.30
   2   5   4  357.07   11.75
  -2   5  -4  268.04    7.55
  -2  -5   4  319.62   11.51
  -2  -5  -4  291.66   17.03
   2   5   4  340.60   14.10
  -2   5   4  305.72   17.40
   2  -5   4  320.68   15.87
   2   5  -4  300.90   16.42
   2   5  -4  300.42   11.51
  -2   5   4  313.62   15.97
  -2   5  -4  309.47   16.34
  -2   5  -4  303.27   13.55
   3   5  -4  166.73   11.87
   3   5  -4  149.13    7.74
  -3   5  -4  161.69    6.44
  -3  -5   4  162.42    8.95
  -3   5  -4  182.33   12.94
   3   5   4  153.16   10.79
  -3  -5  -4  167.68   12.91
  -3   5  -4  143.42    6.23
  -3   5   4  165.53   12.58
   3  -5   4  176.01   11.68
   3   5  -4  156.75   11.90
  -3   5  -4  156.97   11.48
   3   5  -4  162.42    8.49
   3  -5   4  145.95    6.20
  -3   5   4  158.60   11.26
   4   5  -4  650.23   25.76
  -4   5  -4  696.86   17.64
  -4   5  -4  666.85   26.27
   4   5   4  729.15   26.47
  -4  -5  -4  687.61   27.41
  -4   5   4  665.53   25.92
   4  -5   4  637.70   24.66
   4   5  -4  660.65   25.93
  -4   5  -4  625.56   24.16
  -4   5   4  667.27   24.86
  -4  -5   4  680.64   21.28
   5   5  -4  146.56   12.27
  -5   5  -4  140.95    8.04
   5   5   4  144.14   12.17
  -5  -5   4  129.11    9.24
  -5   5  -4  154.60   12.29
  -5  -5  -4  141.02   12.36
   5  -5   4  127.36   11.07
   5   5  -4  140.65   11.71
  -5   5  -4  144.98   10.96
  -5   5   4  157.40   12.29
  -5   5   4  151.37   11.74
  -6   5   4   30.44    5.68
   6   5  -4   32.93    5.63
  -6   5   4   41.51    6.56
  -6   5  -4   32.58    5.53
   6  -5   4   27.16    5.92
   6   5  -4   26.68    5.86
  -6   5  -4   30.27    5.71
  -6   5  -4   29.44    4.36
  -6  -5   4   35.10    5.31
  -6  -5  -4   40.38    7.02
  -7   5  -4  422.00   17.11
   7   5  -4  404.71   20.72
  -7   5  -4  425.64   19.11
  -7   5  -4  436.50   22.04
  -7  -5   4  422.10   19.45
  -7  -5  -4  432.97   22.82
   7  -5   4  402.90   23.27
  -7   5   4  433.33   20.90
  -7   5   4  442.57   22.10
   8   5  -4  102.39   10.29
  -8   5  -4  105.24    9.18
  -8   5   4  111.16   11.99
  -8   5  -4  107.01    8.93
  -8   5  -4  113.06   11.52
  -8  -5   4  102.40    9.97
   8  -5   4   97.34   12.27
  -8  -5  -4  118.83   12.18
  -8   5   4  109.44   10.42
  -8   5   4  106.83   11.35
  -9   5   4  179.58   15.88
  -9   5  -4  161.26   11.95
  -9   5  -4  169.45   14.43
  -9  -5   4  175.09   13.73
   9  -5   4  147.22   15.80
  -9  -5  -4  153.73   14.34
 -10   5   4  139.71   14.60
 -10   5  -4  149.62   12.24
 -10   5  -4  148.82   13.96
 -10  -5   4  154.71   13.57
 -10  -5  -4  150.48   14.75
   0  -5  -5  319.16   18.85
   0   5  -5  325.53   17.87
   0   5   5  346.09   17.36
   0   5   5  318.89   12.82
   0   5  -5  328.41   12.39
  -1   5  -5  138.39   11.54
  -1  -5  -5  154.74   12.79
   1   5  -5  138.77   11.56
  -1   5   5  140.56   12.42
   1   5   5  149.39    8.81
  -1   5   5  140.31   10.83
   1   5  -5  146.59    7.45
   1  -5   5  131.07   11.47
  -1   5  -5  136.43    8.39
   2   5  -5   86.15    8.98
   2   5   5  110.77    5.94
  -2  -5   5   90.61    4.72
  -2  -5  -5   81.44    9.21
   2   5  -5   88.07    9.25
  -2   5  -5   84.48    8.95
  -2   5   5  106.29   10.69
   2   5   5  104.42    7.96
  -2   5   5   91.55    8.78
   2  -5   5   89.09    9.21
   2  -5   5   99.11    6.59
   2   5  -5  104.85    5.92
   3   5  -5   15.09    2.31
  -3   5   5   16.26    3.96
   3   5  -5   10.57    3.44
  -3   5  -5   16.28    4.12
   3  -5   5   14.90    2.31
   3   5   5   14.84    3.71
   3   5  -5   14.37    4.06
   3  -5   5   25.25    5.20
  -3  -5   5   13.69    2.40
  -3  -5  -5   16.26    4.71
  -3   5   5   14.55    4.54
   4   5  -5  103.98   10.07
  -4  -5   5   97.65    7.09
   4   5  -5   79.55    9.06
  -4   5  -5   88.13    9.57
  -4   5  -5  100.21    9.54
  -4  -5  -5   95.02   10.28
   4   5   5  101.05    9.80
  -4   5   5  110.34   10.75
   4  -5   5   88.48    9.65
   4   5  -5   92.24    6.04
  -4   5   5   93.86    9.18
   5   5  -5  361.27   20.08
   5   5  -5  360.08   19.74
  -5   5  -5  369.69   18.61
  -5  -5   5  360.99   15.60
  -5   5  -5  357.96   19.62
   5   5   5  436.72   21.96
  -5  -5  -5  406.09   21.45
   5  -5   5  389.74   20.93
  -5   5   5  379.63   20.44
  -5   5   5  380.47   19.24
   6   5  -5   97.08   10.27
   6   5  -5   77.57    9.55
  -6   5  -5   91.00    9.10
   6  -5   5   74.96    9.61
  -6  -5   5   96.97    8.37
   6   5   5   90.84   11.50
  -6   5  -5   96.69   10.29
  -6   5   5   81.11    9.50
  -6  -5  -5   74.06    9.51
  -6   5   5   97.20   10.44
   7   5  -5  277.73   17.84
   7   5  -5  287.31   19.36
  -7   5  -5  281.02   16.19
   7   5   5  306.82   21.42
  -7  -5   5  286.15   15.75
  -7   5  -5  274.66   17.61
  -7  -5  -5  318.01   20.06
   7  -5   5  269.59   19.83
  -7   5   5  257.66   17.10
  -7   5   5  299.64   18.29
  -8   5  -5   91.96    9.12
  -8   5   5   90.01   10.42
   8  -5   5   61.66   10.14
   8   5  -5   86.02   11.03
  -8  -5   5   71.56    8.28
  -8   5  -5   80.39    9.79
  -8   5   5   67.07    9.72
  -8   5   5   94.77   10.69
  -8  -5  -5   68.36    9.63
  -9   5   5    2.90    2.80
   9  -5   5   13.21    5.27
   9   5  -5   -1.60    3.81
  -9   5  -5    4.42    3.76
  -9   5   5   10.93    4.46
  -9  -5   5   10.28    3.54
  -9  -5  -5    6.81    4.34
  10  -5   5   87.99   13.90
  10   5  -5   75.41   11.39
 -10  -5   5   87.07   10.07
 -10   5  -5   83.07   11.06
 -10   5   5   71.95   10.69
 -10  -5  -5   85.09   11.36
   0  -5   6    3.06    2.12
   0   5  -6    3.07    2.77
   0   5   6   -1.31    1.95
   0   5   6   -2.42    3.28
   0   5   6   -2.09    2.37
   1   5  -6  350.62   19.39
  -1   5  -6  321.28   18.34
  -1  -5  -6  334.81   19.65
  -1   5   6  329.40   19.99
   1   5   6  340.56   15.23
  -1   5   6  341.50   17.73
   1  -5   6  317.56   14.34
   1  -5   6  307.58   19.63
   2   5  -6  216.87   15.05
   2   5  -6  232.57   15.99
  -2   5  -6  245.50   15.82
  -2  -5  -6  221.35   15.85
  -2   5   6  251.08   17.12
   2   5   6  264.47   13.98
   2  -5   6  227.27   10.97
  -2   5   6  224.97   14.10
   2  -5   6  224.34   16.38
   3   5  -6  368.34   20.17
   3   5  -6  361.75   20.30
  -3   5  -6  393.03   20.28
  -3  -5  -6  405.96   21.60
  -3   5   6  407.16   21.98
   3   5   6  409.34   18.66
   3  -5   6  373.28   13.44
   3  -5   6  367.28   21.11
  -3   5   6  420.68   19.38
   4   5  -6  473.81   23.17
   4   5  -6  503.15   24.44
  -4   5  -6  506.97   23.11
  -4  -5  -6  486.36   24.37
   4   5   6  531.75   23.86
  -4   5   6  505.89   24.60
   4  -5   6  454.91   24.28
  -4   5   6  494.02   21.42
   5   5  -6  235.87   16.63
  -5   5  -6  228.63   15.20
   5   5  -6  231.36   16.38
  -5  -5  -6  244.43   16.95
   5   5   6  238.99   17.30
  -5   5   6  221.42   16.19
   5  -5   6  202.85   16.56
  -5   5   6  222.09   14.71
  -6   5   6    7.79    4.15
  -6   5   6    1.97    2.72
   6   5   6   -0.92    3.13
   6   5  -6    3.70    2.99
  -6   5  -6    9.24    3.74
   6   5  -6   10.63    4.36
   6  -5   6    2.00    2.90
  -6   5  -6   10.27    4.38
  -6  -5  -6    2.63    3.81
   7   5  -6  252.81   18.38
   7   5   6  328.25   22.47
  -7   5  -6  257.24   17.37
  -7  -5  -6  257.70   18.33
   7  -5   6  260.41   20.56
  -7   5   6  267.46   18.20
  -7   5   6  275.34   17.77
   8   5  -6  165.65   15.64
   8   5   6  180.92   17.94
  -8   5  -6  153.00   13.56
  -8  -5  -6  158.83   14.96
   8  -5   6  129.13   15.52
  -8   5   6  146.92   13.85
  -8   5   6  152.54   13.93
   9   5  -6  240.98   19.32
  -9   5   6  209.45   18.06
  -9   5  -6  221.38   16.56
  -9  -5  -6  195.17   16.89
   9  -5   6  201.99   20.10
  -9   5   6  187.92   15.86
   0   5  -7  104.97   10.99
   0   5   7   88.74   11.19
   0   5   7   97.58   10.03
   0  -5   7   82.45    8.15
   0   5   7   99.40    8.79
   1   5  -7  234.32   16.49
  -1   5  -7  250.92   16.89
  -1  -5  -7  210.06   16.04
  -1   5   7  218.57   16.99
   1   5   7  240.73   16.18
   1   5   7  235.67   13.67
  -1   5   7  237.60   14.92
   1  -5   7  215.55   12.33
  -1  -5   7  217.84   14.07
   1  -5   7  175.37   16.15
  -1   5   7  203.19   13.03
  -2   5   7   17.31    4.19
   2  -5   7   20.23    3.63
   2   5  -7   27.91    6.42
  -2   5  -7   22.66    5.93
  -2  -5   7   25.21    5.09
   2   5   7   27.52    4.97
  -2  -5  -7   19.25    5.07
   2  -5   7   21.12    6.10
  -2   5   7   14.56    4.62
  -3   5   7   36.74    5.92
   3   5  -7   37.53    6.78
  -3   5  -7   49.55    7.94
   3   5  -7   30.03    6.31
   3   5   7   35.43    6.11
   3  -5   7   29.71    6.66
  -3  -5  -7   36.60    6.95
  -3   5   7   44.45    7.94
  -4   5   7   11.70    4.88
  -4   5   7    4.31    2.43
   4   5   7    2.56    3.01
   4   5  -7    7.47    4.50
   4  -5   7   13.25    4.90
  -4  -5  -7   17.96    5.26
   5   5  -7  199.67   15.81
  -5  -5  -7  202.93   16.12
   5   5   7  200.22   16.09
  -5   5   7  186.09   15.78
   5  -5   7  191.50   17.49
  -5   5   7  198.51   14.09
  -6   5   7   33.65    7.33
  -6   5   7   26.18    5.64
   6   5   7   39.20    8.21
   6   5  -7   36.22    7.33
   6  -5   7   27.45    7.32
  -6  -5  -7   40.93    7.81
   7   5  -7  176.90   15.70
   7   5   7  180.08   17.20
  -7  -5  -7  178.32   15.77
   7  -5   7  156.03   16.86
  -7   5   7  150.60   14.62
  -7   5   7  224.56   16.00
   8   5   7   19.24    6.69
  -8   5   7    6.23    3.76
  -8   5   7   20.52    5.75
   8  -5   7   23.06    7.57
   8   5  -7   16.13    5.56
  -8   5  -7   22.75    5.98
  -8  -5  -7   15.37    5.50
   0  -5   8    0.81    1.91
   0   5   8    0.47    2.19
   0   5   8   -4.17    4.68
   0   5   8   -0.73    2.60
  -1  -5  -8  351.23   22.17
   1   5   8  347.14   23.10
  -1   5   8  376.51   23.51
   1  -5   8  367.24   17.51
   1   5   8  320.99   17.69
  -1   5   8  368.99   19.41
  -1  -5   8  382.66   19.33
   1  -5   8  346.13   24.62
  -1   5   8  359.96   18.66
  -2   5   8   63.97    7.99
  -2  -5   8   66.61    8.54
   2   5   8   80.64    8.97
  -2  -5  -8   56.71    8.87
   2  -5   8   55.94    9.81
  -2   5   8   63.88    9.81
  -3  -5  -8  211.74   16.65
  -3   5   8  234.75   18.29
   3   5   8  216.58   15.60
   3  -5   8  208.60   18.64
  -3   5   8  229.12   14.57
  -3  -5   8  197.03   15.65
   4   5  -8  124.23   13.10
  -4  -5  -8  146.14   13.98
   4   5   8  125.29   12.26
  -4   5   8  131.83   14.35
   4  -5   8  142.11   15.52
  -4   5   8  130.15   10.96
  -4  -5   8  127.45   13.03
   5   5  -8  328.32   21.78
  -5  -5  -8  322.87   21.07
   5   5   8  361.51   22.26
  -5   5   8  326.36   21.89
   5  -5   8  288.16   23.12
  -5   5   8  336.17   18.78
  -5  -5   8  318.17   20.98
  -6   5   8    4.08    4.25
  -6   5   8    1.31    2.82
   6   5   8    1.63    4.26
   6   5  -8    8.59    4.89
   6  -5   8   -2.98    5.08
  -6  -5  -8    2.79    3.09
   7   5  -8  139.93   14.79
   7   5   8  169.02   17.05
  -7  -5  -8  156.15   15.05
   7  -5   8  150.76   17.52
  -7   5   8  149.40   15.22
  -7   5   8  177.38   14.57
   0  -5   9   87.30   13.06
   0  -5   9   85.57    9.27
   0   5   9   80.85    9.48
   0   5   9   99.71   12.98
   0   5   9   87.92    9.71
   1   5   9  236.55   19.80
  -1   5   9  220.63   19.01
   1  -5   9  217.64   14.10
   1   5   9  265.91   17.51
   1   5   9  207.65   15.12
  -1  -5   9  238.71   16.09
  -1   5   9  243.53   15.83
   1  -5   9  201.81   20.18
  -1   5   9  212.32   15.62
  -2   5   9   -3.95    3.16
  -2  -5   9    3.73    2.88
   2   5   9    2.16    2.47
   2  -5   9    6.30    4.08
  -2   5   9    1.70    3.34
  -3   5   9    3.63    2.79
  -3  -5   9   -1.19    2.93
   3   5   9    3.18    3.05
   3  -5   9   -2.92    3.77
  -3  -5  -9    3.62    3.58
  -3   5   9    2.03    4.18
  -4   5   9   13.55    5.54
  -4   5   9   15.13    4.55
  -4  -5   9   14.07    5.27
   4   5   9    8.49    3.76
   4  -5   9    9.18    6.16
  -4  -5  -9   15.30    5.51
  -5   5   9   83.53   11.90
  -5   5   9   78.03    9.22
   5   5   9   90.22   11.48
  -5  -5   9   86.07   11.94
   5  -5   9   81.03   12.81
  -5  -5  -9   94.61   11.84
  -6   5   9   32.27    7.59
   6   5   9   44.77    9.30
   6   5  -9   34.11    7.81
  -6  -5   9   31.77    7.42
   6  -5   9   37.34    9.48
  -6  -5  -9   48.18    9.49
   0  -5  10   -0.56    2.71
   0   5  10   -0.29    3.21
   0   5  10    3.89    4.18
   0   5  10    2.57    2.88
  -1   5  10   57.71    8.04
  -1  -5  10   62.75    8.83
   1   5  10   27.94    6.40
   1  -5  10   49.04   11.21
  -1   5  10   54.15    8.91
   1   5  10   38.27    8.73
  -1   5  10   53.42    9.72
   1   5  10   53.30    8.55
  -2   5  10   80.90    8.95
  -2  -5  10   72.02    9.85
   2   5  10   96.04   11.33
   2  -5  10   82.60   13.76
  -2   5  10  101.54   13.40
  -3  -5 -10  291.54   21.32
  -3   5  10  336.73   24.33
   3   5  10  347.04   22.05
   3  -5  10  289.83   25.48
  -3  -5  10  321.73   22.28
   0   6   0    9.88    2.41
   0   6   0    5.46    2.38
   0  -6   0    9.97    3.07
   0   6   0   11.47    3.19
  -1   6   0   -1.72    2.55
   1   6   0    0.99    1.71
  -1   6   0    0.86    1.58
  -1   6   0    2.66    3.47
  -1  -6   0    0.59    1.54
   1   6   0    8.45    2.83
  -2   6   0 1255.92   36.29
  -2  -6   0 1247.52   35.49
  -2  -6   0 1135.71   21.88
   2   6   0 1163.33   33.49
  -2   6   0 1236.29   34.20
  -3   6   0    3.70    3.04
  -3  -6   0    0.71    0.94
  -3   6   0    3.26    3.52
  -3  -6   0    0.68    2.00
  -4  -6   0 1276.61   37.14
  -4   6   0 1232.57   36.92
  -5   6   0    2.65    2.92
  -5  -6   0    2.96    2.83
  -6   6   0   45.02    6.95
  -6   6   0   56.36    7.23
  -6  -6   0   58.44    7.84
  -7   6   0    4.28    3.70
  -7   6   0    1.66    2.57
  -7  -6   0   -1.09    2.83
  -8   6   0  298.27   17.98
  -8  -6   0  331.33   19.70
  -9   6   0    3.71    2.91
  -9  -6   0   10.08    5.03
 -10   6   0  299.01   19.63
 -10  -6   0  321.97   20.81
   0   6  -1    2.43    2.07
   0   6   1   -0.41    1.49
   0   6  -1    3.30    1.98
   0  -6   1    0.49    0.60
   0   6   1   -0.30    1.80
   0   6  -1    0.53    2.58
   0  -6  -1    2.07    2.52
   0   6   1    0.17    1.78
  -1   6   1    1.76    2.60
  -1   6  -1    5.02    3.24
   1  -6   1   16.40    1.83
   1   6  -1   18.88    4.07
  -1   6   1    9.80    1.99
  -1   6   1    7.29    2.88
  -1   6  -1   11.19    3.60
   1   6   1   -1.10    2.72
  -1  -6  -1   15.88    3.95
  -1  -6   1    4.61    2.54
   1   6   1    1.03    1.71
   1   6  -1    4.01    2.26
  -2   6   1   12.26    3.40
   2  -6   1    8.75    1.75
  -2   6  -1   15.27    3.68
   2   6  -1   11.34    2.90
  -2   6   1   12.23    3.59
  -2   6  -1    9.23    3.75
  -2  -6  -1   10.76    1.28
  -2  -6   1   14.94    3.73
  -2  -6  -1   16.67    4.39
   2   6  -1    7.74    2.75
  -3   6  -1  544.34   23.50
  -3  -6   1  515.62   20.90
  -3  -6  -1  522.53   22.43
   3  -6   1  540.05   16.41
  -3  -6  -1  499.36   13.36
  -3   6   1  478.72   20.86
  -3   6   1  477.17   11.81
  -3   6  -1  515.67   21.08
  -4   6   1   33.45    5.63
  -4   6  -1   27.71    5.22
  -4   6  -1   29.42    5.98
  -4  -6   1   30.68    5.23
  -4  -6  -1   29.08    5.61
  -5   6  -1  153.70   11.04
  -5   6  -1  173.87   14.00
  -5  -6   1  181.58   12.70
  -5  -6  -1  181.88   13.39
  -5   6   1  183.12   13.70
  -5   6  -1  178.08   13.19
  -6   6   1   13.47    4.47
  -6   6  -1   16.59    5.01
  -6   6  -1   11.00    3.34
  -6  -6   1   15.59    4.31
  -6  -6  -1   15.39    4.59
  -7   6   1   43.58    7.47
  -7   6   1   26.72    5.83
  -7   6  -1   31.17    5.43
  -7  -6   1   36.06    6.28
  -7  -6  -1   35.48    6.57
  -8   6   1    5.93    3.57
  -8   6  -1    5.21    3.03
  -8  -6   1    1.23    2.68
  -8  -6  -1   -1.67    3.14
  -9   6   1  182.23   15.09
  -9   6  -1  179.94   14.03
  -9  -6   1  187.60   15.16
  -9  -6  -1  203.43   16.22
 -10   6   1    1.19    3.42
 -10   6  -1   -2.69    3.03
 -10  -6   1    2.90    3.46
 -10  -6  -1   -4.71    4.35
   0   6   2 1374.51   30.05
   0   6  -2 1448.09   36.23
   0  -6  -2 1414.09   41.30
   0   6   2 1374.00   38.12
   0   6  -2 1388.61   35.11
   0  -6   2 1328.33   29.49
  -1   6  -2    1.49    2.05
  -1   6   2    2.20    1.27
   1   6  -2    0.15    1.80
  -1   6   2    3.40    2.91
   1  -6   2    0.19    1.12
   1   6   2   -0.01    1.93
  -1   6  -2    1.48    2.22
  -1  -6  -2    0.91    1.91
  -1  -6   2    2.31    1.92
   1   6   2    5.71    2.60
   1   6  -2    1.79    1.90
  -1   6   2   -1.99    2.33
   2   6  -2  125.38    9.98
  -2   6  -2  130.37   11.19
  -2  -6   2  131.75    9.44
  -2  -6  -2  126.57   11.09
   2  -6   2  123.08    7.02
   2   6  -2  129.65    9.28
  -2   6   2  128.85   10.55
  -2   6  -2  129.90    9.65
  -3   6   2    9.27    3.30
  -3   6  -2    6.80    2.93
   3  -6   2    7.65    2.39
   3   6  -2    9.07    3.28
  -3   6   2   11.05    1.64
  -3   6  -2   12.27    4.29
  -3  -6   2    6.98    2.36
  -3  -6  -2   10.58    3.65
   3   6  -2    9.40    2.97
  -4   6  -2  270.00   12.64
  -4   6  -2  296.51   17.52
   4  -6   2  252.72   12.67
  -4  -6   2  287.20   15.12
  -4  -6  -2  303.61   17.48
  -4   6   2  279.52   16.20
  -4   6  -2  294.93   16.11
   5  -6   2   24.36    4.50
  -5   6   2   27.61    5.95
  -5   6  -2   30.51    5.76
  -5   6  -2   27.66    6.34
  -5   6  -2   28.38    4.33
  -5  -6   2   36.90    5.87
  -5  -6  -2   37.63    6.52
  -6   6  -2 1439.98   38.00
  -6   6  -2 1525.41   46.55
  -6  -6   2 1544.97   42.24
  -6  -6  -2 1465.35   44.34
  -6   6   2 1476.91   44.98
  -7   6   2   10.12    4.16
   7   6  -2   23.39    5.48
  -7   6  -2   16.69    4.20
  -7   6  -2   10.76    4.30
  -7   6  -2   28.63    5.15
  -7  -6   2   15.56    4.34
  -7  -6  -2   19.46    5.49
  -8   6   2   55.43    8.79
   8   6  -2   44.56    6.85
  -8   6   2   40.41    7.77
  -8   6  -2   47.94    6.72
  -8  -6   2   49.94    7.27
  -8  -6  -2   49.57    8.10
  -8   6  -2   37.33    6.14
  -9   6   2   -0.77    3.75
  -9   6  -2    6.99    3.45
  -9  -6   2   -2.28    3.08
  -9  -6  -2   -6.49    4.02
 -10   6   2  164.79   15.51
 -10   6  -2  169.85   13.79
 -10  -6   2  194.14   15.70
 -10  -6  -2  153.75   15.01
   0   6  -3    3.71    2.10
   0   6  -3   -0.68    1.80
   0   6   3    2.99    2.84
   0   6  -3    0.78    0.90
   0  -6  -3    1.44    2.62
   0  -6   3   -1.77    2.18
   0   6   3    0.72    2.84
  -1   6   3  778.42   16.87
   1   6  -3  834.21   27.13
   1   6  -3  754.83   19.95
   1   6   3  873.69   24.67
  -1   6  -3  675.40   18.86
  -1  -6  -3  831.02   30.60
  -1  -6   3  754.26   21.06
   1   6   3  764.74   27.71
   1  -6   3  751.97   22.41
  -1   6   3  799.93   28.06
   1   6  -3  821.31   23.97
  -1   6  -3  823.86   24.46
  -2   6   3   44.31    6.46
  -2   6  -3   42.69    5.47
   2   6  -3   49.37    6.58
   2  -6   3   44.07    4.87
  -2   6  -3   52.63    7.30
  -2  -6   3   42.75    4.89
  -2  -6  -3   40.99    6.48
  -2   6   3   38.66    2.21
   2   6  -3   44.30    5.08
   3   6  -3   82.13    8.79
  -3   6  -3   77.72    5.71
  -3  -6   3   72.80    6.81
  -3  -6  -3   88.89    9.81
  -3   6  -3   82.63    9.29
   3  -6   3   79.90    6.95
   3   6  -3   82.71    7.30
  -3   6   3   86.13    8.92
  -3   6  -3   81.00    8.10
   4   6  -3   87.67    9.40
   4   6  -3   77.33    8.95
  -4   6  -3   87.76    9.10
  -4   6  -3   90.58    6.66
  -4   6  -3   95.97   10.27
  -4  -6   3   87.72    7.99
  -4  -6  -3   85.98    9.60
   4  -6   3   90.69    8.34
  -4   6   3   90.26    9.36
  -4   6  -3   87.53    8.63
   5   6  -3  421.63   21.33
   5   6  -3  424.27   22.07
  -5   6  -3  431.47   20.29
  -5   6  -3  404.06   16.33
  -5   6  -3  406.11   21.65
  -5  -6   3  443.82   19.45
  -5  -6  -3  477.14   23.10
   5  -6   3  403.19   19.27
  -5   6   3  425.02   20.92
  -5   6   3  455.77   22.08
   6  -6   3   20.41    4.95
  -6   6   3   29.38    5.95
  -6   6  -3   28.89    6.95
  -6   6  -3   22.50    4.32
   6   6  -3   22.32    5.28
  -6  -6   3   23.04    4.67
  -6  -6  -3   31.48    6.57
  -6   6  -3   23.94    5.04
  -6   6   3   26.06    5.34
  -7   6  -3  488.08   20.12
  -7   6  -3  484.23   25.21
   7  -6   3  463.72   24.27
  -7  -6   3  505.32   22.68
  -7  -6  -3  516.21   25.46
  -7   6   3  526.08   23.14
   7   6  -3  462.99   23.44
  -7   6  -3  517.20   22.36
  -7   6   3  522.94   25.50
  -8   6   3    1.74    4.61
   8   6  -3    0.93    2.99
  -8   6  -3    3.86    4.51
  -8   6   3    8.39    3.82
  -8   6  -3    1.38    2.31
  -8   6  -3    2.34    2.09
  -8  -6   3   -1.43    3.01
  -8  -6  -3   -2.59    3.41
  -9   6  -3   14.70    5.39
  -9   6   3   26.08    6.23
  -9   6  -3   23.37    4.96
  -9  -6   3   23.48    5.73
  -9  -6  -3   13.28    4.96
 -10   6  -3   12.92    5.51
 -10   6   3    7.81    4.75
 -10   6  -3    7.09    4.04
 -10  -6   3    6.03    3.71
 -10  -6  -3    7.13    4.98
   0   6  -4   85.08    9.29
   0  -6  -4   84.12    9.86
   0   6   4   83.13    4.73
   0   6   4   98.00    9.55
   0   6  -4   92.74    7.23
   0  -6   4   77.17    8.12
   1   6  -4   32.95    6.33
  -1   6  -4   44.28    5.42
  -1   6  -4   36.57    6.69
  -1   6  -4   31.37    2.24
   1   6  -4   45.44    6.61
   1   6   4   54.20    5.50
   1   6   4   38.36    3.88
  -1   6   4   40.92    3.07
  -1  -6  -4   35.03    6.41
   1  -6   4   34.91    5.34
   1   6  -4   45.28    4.99
   1   6   4   42.43    6.45
  -1   6   4   43.17    6.32
   2   6  -4  481.32   21.47
   2   6   4  434.89   15.70
   2   6   4  547.63   17.14
  -2  -6   4  461.97   15.11
  -2  -6  -4  429.98   22.27
   2  -6   4  421.51   18.23
   2   6  -4  449.84   16.34
  -2   6   4  480.82   21.88
  -2   6  -4  461.58   18.47
   2   6  -4  433.92   21.60
  -2   6  -4  476.61   22.04
  -3   6   4    2.57    2.63
  -3   6  -4    3.81    2.08
   3   6  -4    9.62    3.81
   3  -6   4    3.98    2.10
   3   6  -4    0.31    2.52
  -3   6  -4    1.34    2.92
  -3   6  -4    3.40    1.24
  -3   6  -4    2.44    3.15
  -3  -6   4   -0.23    1.18
  -3  -6  -4    6.18    3.64
  -3   6   4    2.78    2.70
   3   6  -4   -0.30    1.73
   4   6  -4  253.71   16.65
  -4   6  -4  283.41   10.78
  -4   6  -4  255.15   17.07
  -4  -6   4  270.70   13.71
  -4  -6  -4  310.70   18.88
  -4   6   4  279.04   17.76
   4  -6   4  281.40   15.68
   4   6  -4  264.45   12.98
   4   6  -4  238.80   16.37
  -4   6  -4  271.87   16.56
  -4   6   4  270.56   16.38
  -5   6  -4   29.00    5.62
  -5   6   4   41.82    6.93
   5  -6   4   35.69    6.09
   5   6  -4   36.48    6.88
  -5   6  -4   56.16    8.42
  -5  -6   4   44.99    5.81
  -5  -6  -4   44.00    7.12
   5   6  -4   40.91    6.65
  -5   6   4   45.19    7.21
  -6   6   4   18.04    5.24
   6  -6   4    5.39    3.12
   6   6  -4   13.89    5.18
  -6   6  -4    8.11    4.02
   6   6  -4   13.56    4.76
  -6   6  -4   11.41    3.80
  -6  -6   4   15.55    3.85
  -6  -6  -4   16.33    4.95
  -6   6   4    6.02    3.42
  -7   6   4   51.15    8.08
   7  -6   4   42.45    7.68
   7   6  -4   44.29    7.43
  -7   6  -4   47.48    6.97
   7   6  -4   55.81    9.08
  -7   6  -4   38.20    7.20
  -7  -6   4   41.79    6.27
  -7  -6  -4   46.80    8.02
  -7   6   4   37.95    6.87
   8   6  -4  523.22   28.76
   8   6  -4  481.71   24.89
  -8   6  -4  554.31   27.28
  -8   6  -4  511.61   22.72
  -8  -6   4  538.60   23.97
   8  -6   4  451.53   26.32
  -8  -6  -4  507.08   26.74
  -8   6   4  591.29   28.35
  -9   6  -4   11.41    5.21
  -9   6   4   16.17    6.20
  -9  -6   4   10.02    3.95
  -9  -6  -4    9.78    4.79
   9  -6   4    7.56    3.98
   0  -6   5   -2.38    3.19
   0   6  -5   -0.84    1.94
   0   6   5    5.37    1.84
   0   6  -5   -1.64    2.71
   0   6   5    3.24    2.70
   1   6  -5   15.85    3.16
  -1   6  -5   13.09    3.31
   1   6   5   11.91    2.53
   1   6   5   14.06    3.31
   1   6  -5   19.84    5.19
  -1   6   5    9.01    2.18
  -1   6  -5    9.19    3.95
  -1  -6  -5   14.67    5.00
   1  -6   5   13.86    4.21
   1   6   5    9.56    4.01
  -1   6   5   11.02    3.71
  -2   6   5   33.00    5.25
   2   6  -5   39.18    4.27
  -2   6  -5   40.38    5.30
   2   6   5   42.06    5.17
   2   6  -5   47.72    7.20
   2  -6   5   31.32    3.97
   2   6  -5   33.67    6.14
   2  -6   5   46.15    6.77
  -2   6  -5   31.17    6.10
  -2  -6  -5   38.14    6.75
  -2   6   5   33.04    6.48
   3   6  -5  721.37   28.80
   3   6   5  738.55   25.65
  -3  -6  -5  716.68   30.31
  -3   6   5  709.89   30.91
   3   6  -5  659.98   28.62
  -3   6  -5  729.79   28.89
   3  -6   5  720.95   27.70
   3   6  -5  677.59   19.90
  -3   6   5  721.74   27.94
  -4   6   5   37.74    6.36
   4   6   5   42.23    6.71
   4   6  -5   27.78    6.02
   4   6  -5   38.72    6.67
  -4   6  -5   40.02    7.03
   4  -6   5   35.41    6.36
  -4   6  -5   34.51    6.80
  -4  -6  -5   42.13    7.70
  -4   6   5   37.93    7.35
   5   6   5    8.53    3.65
   5   6  -5    7.43    3.73
  -5   6   5   15.30    5.06
  -5   6  -5   12.98    3.86
   5   6  -5   15.62    4.99
   5  -6   5   12.89    4.26
  -5   6  -5    7.73    3.94
  -5  -6  -5   11.00    4.58
  -5   6   5   12.45    4.98
  -6   6   5    1.78    2.91
   6  -6   5    2.62    3.24
   6   6  -5   -2.59    4.28
  -6   6  -5    6.24    4.28
  -6  -6  -5    0.45    3.04
   6   6  -5   -4.91    3.10
  -6   6  -5   -0.50    2.63
  -6   6   5   -1.13    2.32
   7   6  -5  134.18   13.80
   7  -6   5  100.47   12.32
   7   6  -5  129.17   13.06
  -7   6  -5  127.10   11.62
  -7   6  -5  114.83   11.96
  -7  -6  -5  152.46   14.29
  -7   6   5  138.39   13.40
  -7   6   5  136.17   13.21
   8  -6   5   26.60    6.61
  -8   6   5   37.37    7.49
   8   6  -5   44.98    9.04
   8   6  -5   38.60    7.44
  -8   6  -5   49.62    7.43
  -8   6  -5   39.50    7.82
  -8  -6  -5   46.59    8.23
   9   6  -5  825.34   38.08
  -9   6   5  803.02   37.30
  -9   6  -5  797.80   34.37
   9  -6   5  758.76   38.18
  -9  -6  -5  815.17   35.79
   0   6  -6 1183.69   40.01
   0   6   6 1222.40   30.44
   0   6   6 1282.39   39.98
   0   6  -6 1242.56   29.60
   1   6  -6  118.97   12.03
  -1   6  -6  123.43   12.10
  -1  -6  -6  122.06   12.51
   1   6   6  124.02    8.80
   1   6   6  144.28   12.72
  -1   6   6  134.88   11.76
   1  -6   6  127.87    9.01
   1  -6   6  114.53   11.87
  -2   6   6    4.24    2.98
   2   6   6    2.65    2.05
   2   6  -6    7.73    3.89
   2  -6   6    3.03    2.76
  -2  -6  -6    2.63    2.88
  -2   6   6    2.45    2.87
   2   6  -6   -2.74    3.78
  -2   6  -6    8.73    4.33
  -3   6   6   14.78    4.39
   3   6   6   13.06    3.91
   3   6  -6   14.10    4.59
   3  -6   6   18.14    5.47
  -3  -6  -6   19.39    5.57
   3   6  -6   16.73    5.49
  -3   6  -6   15.48    5.12
  -3   6   6   16.28    4.94
  -4   6   6    8.70    3.49
   4   6   6   15.24    4.38
   4   6  -6    3.57    3.30
   4  -6   6   13.73    4.67
   4   6  -6    5.61    3.17
  -4  -6  -6    8.59    4.28
  -4   6  -6    3.98    3.36
  -4   6   6   10.55    5.45
  -5   6   6   23.31    5.51
   5   6   6   12.28    5.31
   5   6  -6   18.94    5.91
   5  -6   6   13.11    5.23
   5   6  -6   16.49    5.52
  -5   6  -6   22.14    5.41
  -5  -6  -6   23.00    6.52
  -5   6   6   17.94    5.93
   6   6  -6  437.98   24.98
   6   6  -6  415.00   24.19
  -6   6  -6  435.97   22.66
   6   6   6  475.39   26.55
  -6   6  -6  394.58   23.11
  -6  -6  -6  440.19   24.89
   6  -6   6  403.86   24.60
  -6   6   6  423.11   24.52
  -6   6   6  443.59   23.74
  -7   6   6   59.77    9.67
  -7   6   6   54.03    8.70
   7  -6   6   47.37    9.41
   7   6  -6   52.63    9.38
   7   6  -6   45.40    7.89
  -7   6  -6   50.40    7.66
  -7   6  -6   52.80    8.63
  -7  -6  -6   59.33    9.76
  -8   6   6    7.61    4.69
  -8   6   6   -0.48    4.06
   8  -6   6    5.77    4.78
   8   6  -6   -1.08    4.55
  -8   6  -6   15.82    5.37
  -8  -6  -6   15.26    5.29
   0  -6   7   -1.04    3.43
   0  -6   7    0.80    2.08
   0   6  -7    0.10    3.50
   0   6   7    2.83    3.16
   1   6  -7  798.13   33.29
  -1   6  -7  789.29   32.90
  -1  -6  -7  772.31   34.14
  -1   6   7  766.01   35.19
   1   6   7  826.79   32.45
  -1   6   7  787.43   30.49
   1  -6   7  738.50   24.78
   1  -6   7  763.46   34.54
  -1  -6   7  706.76   27.70
  -2   6   7   23.01    5.49
   2   6  -7   31.32    7.19
  -2   6  -7   20.28    5.30
   2  -6   7   20.01    5.56
  -2  -6  -7   16.70    5.58
  -2   6   7   24.68    6.20
  -3   6   7    8.91    3.36
   3   6  -7   18.38    5.53
   3   6  -7    9.66    4.72
  -3   6  -7    5.78    4.13
   3  -6   7   10.65    4.67
  -3  -6  -7   11.88    4.81
  -3   6   7   10.93    5.11
  -4   6   7   28.62    6.02
   4   6  -7   28.31    6.89
   4   6  -7   25.31    6.25
  -4   6  -7   16.54    5.10
   4  -6   7   27.52    6.59
  -4  -6  -7   29.39    7.36
  -4   6   7   25.48    6.92
   5   6  -7  650.29   31.34
  -5   6  -7  654.53   29.54
   5   6  -7  665.84   31.38
  -5  -6  -7  684.33   31.73
  -5   6   7  615.38   30.86
   5  -6   7  564.12   30.90
  -5   6   7  682.49   28.66
  -6   6   7    4.67    4.23
   6   6  -7    1.93    3.37
   6  -6   7   -1.74    3.29
  -6  -6  -7   11.60    5.68
  -6   6   7    5.28    3.91
   7   6  -7  250.06   19.93
  -7  -6  -7  258.69   19.83
   7  -6   7  222.64   20.72
  -7   6   7  250.86   19.83
  -7   6   7  285.99   19.48
   0   6  -8  203.76   17.17
   0   6   8  208.89   15.96
   0  -6   8  216.07   14.15
   0  -6   8  203.18   19.20
   1   6  -8   69.77   10.03
  -1   6  -8   52.98    9.03
  -1  -6   8   66.59    8.43
   1  -6   8   54.14    9.88
  -1   6   8   38.18    8.38
   1   6   8   60.52    8.97
  -1   6   8   54.22    8.16
  -2   6   8   14.88    4.28
   2   6  -8   14.00    6.14
  -2   6  -8   19.21    6.11
  -2  -6   8   11.26    4.05
   2  -6   8   18.39    5.86
  -2  -6  -8    2.66    3.76
  -2   6   8    0.33    4.59
  -3   6   8    8.85    3.83
  -3  -6   8    2.22    2.50
   3  -6   8    2.55    4.04
  -3  -6  -8    1.10    3.20
  -3   6   8    7.42    4.21
  -4   6   8    9.33    4.13
   4  -6   8    0.84    3.36
  -4  -6  -8    0.57    3.25
  -4   6   8    3.26    4.74
  -5   6   8   24.95    5.76
   5   6  -8   22.79    6.67
   5  -6   8   20.95    6.48
  -5  -6  -8   27.14    6.75
  -5   6   8    8.81    4.81
   6   6  -8  159.03   16.33
  -6  -6  -8  192.41   17.12
  -6   6   8  168.79   17.03
   6  -6   8  200.16   19.58
  -6   6   8  161.68   14.66
   0   6   9   -6.61    5.65
   0  -6   9   -6.64    5.33
   0   6   9    0.27    3.43
  -1   6   9   23.61    6.65
  -1  -6   9   24.33    5.80
   1  -6   9    9.99    6.05
  -1   6   9   10.25    5.14
   1   6   9   24.82    6.69
  -2   6   9   20.25    5.10
  -2  -6   9   35.06    6.88
   2  -6   9   35.93    8.98
  -2  -6  -9   29.96    6.98
  -2   6   9   28.43    7.38
   2   6   9   48.74    8.94
  -3  -6  -9  742.82   34.64
  -3   6   9  762.48   37.41
   3  -6   9  672.51   37.46
  -3   6   9  693.16   29.53
  -3  -6   9  763.81   33.03
  -4   6   9   37.68    7.07
  -4  -6   9   17.17    5.44
   4  -6   9   16.91    7.15
  -4  -6  -9   25.54    6.75
  -4   6   9   35.30    8.19
   0   7   0    2.91    2.60
   0   7   0    0.06    1.51
  -1   7   0    3.87    3.01
  -1  -7   0    7.43    3.99
   1   7   0    0.45    2.65
   2   7   0  612.55   23.22
  -2   7   0  632.17   26.34
  -2  -7   0  624.58   25.59
   2   7   0  594.31   24.11
  -2   7   0  620.77   24.82
  -3   7   0    3.74    3.21
  -3   7   0    9.03    5.16
  -3  -7   0   10.30    4.11
  -4   7   0  313.93   19.54
  -4  -7   0  268.93   16.80
  -4   7   0  273.54   17.19
  -5   7   0    1.26    3.24
  -5   7   0    8.63    4.79
  -5  -7   0    9.28    3.79
  -6   7   0   51.97    8.42
  -6  -7   0   46.24    7.60
  -7   7   0    3.31    4.06
  -7   7   0    4.90    3.44
  -7  -7   0    4.67    3.87
  -8   7   0  112.50   11.54
  -8  -7   0  128.24   12.84
  -9   7   0    0.95    3.07
  -9  -7   0    4.13    3.70
   0   7   1  414.31   15.41
   0   7  -1  423.70   17.67
   0   7   1  413.33   19.59
   0   7   1  393.35   19.46
   0   7  -1  398.41   18.75
   1   7   1  325.36   14.56
   1   7  -1  332.22   16.08
  -1   7   1  342.99   13.29
  -1   7   1  357.10   18.59
  -1   7  -1  328.45   18.66
  -1  -7  -1  339.16   19.06
  -1  -7   1  370.56   18.07
   1   7   1  336.66   17.93
   1   7  -1  331.13   16.88
  -1   7   1  324.23   17.76
  -1   7  -1  333.40   17.15
   2   7  -1  323.48   16.60
  -2   7   1  376.50   19.63
  -2   7  -1  343.79   19.37
  -2  -7   1  341.24   17.67
  -2  -7  -1  333.35   18.86
   2   7   1  311.17   17.35
   2   7  -1  319.45   16.88
  -2   7   1  316.10   17.80
  -2   7  -1  332.48   17.35
  -3   7   1    2.96    3.44
  -3   7  -1    1.64    2.62
   3   7  -1    1.13    2.40
  -3   7   1    5.55    3.63
  -3   7  -1    0.62    3.07
  -3  -7   1    3.47    2.03
  -3  -7  -1    7.31    3.49
   3   7  -1    5.54    2.80
  -4   7  -1  597.98   27.46
  -4  -7   1  576.31   24.27
  -4  -7  -1  625.06   26.54
  -4   7   1  573.95   25.33
  -4   7  -1  537.71   24.68
  -5   7  -1  148.43   14.09
  -5  -7   1  144.75   12.08
  -5  -7  -1  144.31   12.66
  -5   7   1  142.42   12.98
  -5   7  -1  149.98   12.93
  -6   7  -1  177.45   13.07
  -6   7  -1  212.72   17.39
  -6  -7   1  210.80   15.07
  -6  -7  -1  237.60   16.52
  -6   7   1  210.90   16.57
  -6   7  -1  227.73   16.61
  -7   7   1  314.66   19.50
  -7   7  -1  315.65   17.98
  -7   7  -1  368.42   23.62
  -7  -7   1  357.97   20.41
  -7  -7  -1  344.18   20.75
  -7   7   1  345.40   21.39
  -8   7   1  103.05   12.01
  -8   7  -1  116.03   11.20
  -8  -7   1  123.31   12.40
  -8  -7  -1  124.18   13.01
  -8   7   1  130.84   13.68
  -9   7   1   45.87    8.18
  -9   7  -1   28.02    6.11
  -9  -7   1   39.42    7.54
  -9  -7  -1   38.56    7.75
   0   7  -2   -0.85    2.19
   0   7   2   -0.56    1.29
   0   7  -2   -4.13    2.92
   0   7   2    4.63    3.36
   0  -7   2    1.64    0.94
   0   7   2   -2.17    2.79
   1   7  -2  171.63   11.79
  -1   7   2  145.01    7.45
  -1   7   2  182.52   12.83
   1   7   2  150.37   10.98
  -1   7  -2  143.62   12.57
  -1  -7  -2  145.27   12.93
  -1  -7   2  133.33   10.00
   1   7   2  140.24   11.91
   1   7  -2  138.98   10.67
  -1   7   2  148.52   12.16
  -1   7  -2  146.14   11.02
  -1  -7   2  130.90    7.37
   2   7  -2  275.50   15.78
  -2   7   2  315.19   17.86
  -2   7  -2  272.62   17.56
  -2  -7   2  286.72   15.32
  -2  -7  -2  273.83   17.59
   2   7   2  258.66   16.31
   2   7  -2  279.14   15.24
  -2   7   2  279.79   16.89
  -2   7  -2  279.06   15.26
  -3   7   2   43.57    6.78
  -3   7  -2   53.19    7.10
   3   7  -2   59.15    7.78
  -3   7  -2   40.29    7.50
  -3  -7   2   60.37    7.19
  -3  -7  -2   58.42    8.26
   3   7  -2   61.83    7.32
   4   7  -2  256.84   16.87
  -4   7  -2  274.45   18.37
  -4  -7   2  274.52   15.84
  -4  -7  -2  284.53   18.14
   4   7  -2  246.11   15.20
  -4   7   2  272.55   17.07
  -4   7  -2  261.46   16.69
  -5   7   2    2.57    3.05
  -5   7  -2    0.80    2.82
   5   7  -2    3.48    3.43
  -5   7  -2    3.69    3.69
  -5   7  -2    2.00    1.77
  -5  -7   2    1.49    2.44
  -5  -7  -2   -0.92    2.78
  -6   7   2   24.47    6.12
  -6   7  -2   34.53    6.83
  -6   7  -2   33.44    7.32
  -6   7  -2   27.98    4.82
  -6  -7   2   34.98    6.06
  -6  -7  -2   43.10    7.60
   7   7  -2  135.10   13.18
  -7   7  -2  112.79   10.40
  -7   7  -2  131.40   14.03
  -7  -7   2  142.95   12.75
  -7  -7  -2  125.13   12.87
  -7   7   2  146.51   14.05
   8   7  -2  111.76   12.20
  -8   7  -2   90.50    9.81
  -8   7   2  123.97   13.23
  -8   7  -2  110.25   10.75
  -8  -7   2  112.92   11.71
  -8  -7  -2  125.50   13.01
  -8   7  -2  114.57   13.58
  -8   7   2  132.46   13.79
  -9   7  -2    7.42    5.12
  -9   7   2    1.47    3.23
  -9   7  -2    4.71    3.05
  -9  -7   2    0.18    2.65
  -9  -7  -2   -0.34    4.26
   0   7   3   58.82    4.96
   0   7   3   80.50    8.11
   0  -7   3   57.21    5.52
   0   7  -3   60.49    6.93
   0   7   3   73.57    8.76
   1   7  -3  370.96   18.89
  -1   7   3  450.70   20.27
   1   7   3  421.69   18.05
  -1  -7  -3  379.48   21.68
   1  -7   3  341.22   13.89
   1   7   3  369.81   19.85
  -1   7   3  394.27   20.50
   1   7  -3  366.69   16.87
  -1   7  -3  390.96   17.54
   2   7  -3  264.99   16.21
  -2   7  -3  280.24   18.35
  -2  -7   3  239.77   12.93
  -2  -7  -3  241.02   16.95
   2  -7   3  226.84   11.36
   2   7   3  243.82   16.21
   2   7  -3  252.55   14.01
  -2   7   3  241.37   16.09
  -2   7  -3  269.83   15.26
  -3   7   3   -1.89    2.63
  -3   7  -3    4.24    2.23
   3  -7   3    0.11    1.47
   3   7  -3   -3.59    2.51
  -3   7  -3    2.49    3.44
  -3   7  -3    0.66    1.22
  -3  -7   3    0.68    1.54
  -3  -7  -3    5.75    3.92
   3   7  -3   -0.77    1.93
   4   7  -3  201.30   15.52
  -4   7  -3  166.78    9.92
  -4   7  -3  202.11   15.94
  -4  -7   3  201.75   13.05
   4  -7   3  168.65   11.27
  -4  -7  -3  218.40   16.20
   4   7  -3  183.67   12.44
  -4   7   3  178.83   14.27
  -4   7  -3  216.69   14.55
   5   7  -3  235.03   17.16
   5   7  -3  212.37   16.46
  -5   7  -3  197.45   14.78
  -5   7  -3  225.40   17.25
   5  -7   3  209.39   13.30
  -5  -7   3  240.56   14.81
  -5  -7  -3  238.08   17.04
  -5   7   3  222.89   16.50
  -5   7  -3  218.31   15.53
   6   7  -3  196.69   16.15
  -6   7  -3  221.95   15.55
   6   7  -3  228.69   17.68
  -6   7  -3  210.75   16.99
  -6  -7   3  246.73   15.68
  -6  -7  -3  238.93   17.29
  -6   7   3  231.69   17.54
   7   7  -3  240.09   19.25
  -7   7  -3  227.21   18.23
  -7  -7   3  215.29   15.32
  -7  -7  -3  218.35   17.30
   7   7  -3  193.30   16.31
  -7   7  -3  212.28   15.25
  -7   7   3  241.64   18.35
  -8   7   3  174.19   16.00
  -8   7  -3  203.33   17.72
  -8  -7   3  188.38   15.12
  -8  -7  -3  205.55   17.18
   8   7  -3  172.80   15.40
  -8   7  -3  174.10   13.84
  -8   7   3  193.56   17.33
  -9   7  -3    4.78    3.93
  -9   7   3    3.06    3.54
  -9  -7   3    7.26    3.54
  -9  -7  -3    6.74    4.22
   0   7  -4    3.57    2.48
   0   7   4    2.28    2.54
   0   7  -4    1.65    2.64
   0  -7   4   -3.42    2.58
   0   7   4   -2.44    3.05
   1   7  -4  158.88   13.77
  -1   7  -4  161.72   13.82
   1   7  -4  176.44   13.49
   1   7   4  189.02   11.39
  -1  -7  -4  136.21   13.41
   1   7   4  149.18   12.94
   1  -7   4  161.30   10.88
  -1   7   4  166.28   13.53
   1   7  -4  158.84   10.41
  -1   7  -4  143.84   10.83
   2   7  -4  119.06   12.16
  -2   7  -4  115.56   11.95
   2   7  -4  134.23   11.98
  -2  -7  -4  110.75   11.91
   2  -7   4  131.05    9.69
   2   7   4  135.19   12.43
  -2   7   4  132.59   12.08
   2   7  -4  128.22    9.31
  -2   7  -4  120.04   10.01
  -3   7  -4   81.99   10.01
   3   7  -4   98.73   10.69
  -3  -7  -4  110.79   11.90
  -3   7  -4  103.17   11.53
   3  -7   4   96.60    8.54
   3   7  -4   91.60    8.01
  -3   7   4  102.75   10.98
  -3   7  -4  101.15    9.74
   3   7  -4   94.03   11.14
   4   7  -4  232.70   16.71
  -4   7  -4  247.39   17.95
  -4  -7  -4  256.34   18.04
   4  -7   4  242.46   14.41
   4   7  -4  251.00   13.76
  -4   7   4  249.62   16.96
   4   7  -4  220.14   16.90
  -4   7  -4  236.24   15.26
  -4   7  -4  238.85   16.73
   5   7  -4  123.18   12.86
  -5   7  -4  137.92   13.86
  -5  -7  -4  144.97   13.89
   5  -7   4  122.54   11.05
   5   7  -4  115.29    9.83
   5   7  -4  112.48   12.29
  -5   7  -4  107.28   11.31
  -5   7   4  125.39   12.40
  -6   7   4    5.03    4.35
   6  -7   4    5.33    3.04
   6   7  -4    0.91    3.27
  -6   7  -4    2.12    3.34
  -6  -7  -4    7.12    4.61
  -6   7   4   -5.11    4.10
   6   7  -4   -4.03    4.21
  -6   7  -4   -1.01    3.31
   7   7  -4  176.76   16.74
  -7   7  -4  193.64   17.01
  -7  -7  -4  167.68   15.59
   7   7  -4  165.25   15.36
  -7   7  -4  183.52   14.56
  -7   7   4  176.32   15.90
   8   7  -4  140.13   15.55
  -8   7  -4  137.91   14.47
  -8  -7  -4  145.20   14.55
   8   7  -4  125.66   13.36
  -8   7  -4  134.14   12.40
  -8   7   4  116.52   13.61
   0   7   5  192.83   12.17
   0   7  -5  157.47   14.25
   0   7   5  167.67   13.88
   0   7  -5  159.99   10.66
   0  -7   5  153.50   12.68
  -1  -7  -5  138.56   14.02
   1   7  -5  119.90   12.34
  -1   7  -5  144.95   13.50
   1   7   5  171.42   14.24
  -1   7   5  142.57   12.88
   1  -7   5  139.94   11.54
   1   7  -5  138.57    9.31
  -1   7  -5  149.02   10.64
   2   7  -5  113.82   11.93
  -2  -7  -5   99.81   11.58
   2   7  -5  111.58   12.08
  -2   7  -5  110.61   11.85
   2  -7   5  116.23   10.35
   2   7   5  108.36   12.02
  -2   7   5  111.51   11.52
   2   7  -5  106.32    8.02
  -2   7  -5  109.94    9.36
  -3   7   5   41.07    7.26
   3   7  -5   28.08    6.11
   3  -7   5   36.41    6.15
  -3  -7  -5   39.83    7.67
   3   7  -5   34.93    6.90
  -3   7  -5   38.55    7.14
  -4   7   5    9.12    4.60
   4   7  -5    9.19    4.16
   4  -7   5    9.23    3.23
   4   7  -5   12.00    5.27
  -4   7  -5    7.04    3.91
  -4  -7  -5    8.36    4.56
   5   7  -5  152.05   14.80
  -5   7  -5  153.73   15.21
  -5  -7  -5  179.36   15.68
  -5   7   5  157.11   15.22
   5  -7   5  146.80   13.04
   5   7  -5  135.31   13.68
  -5   7  -5  159.33   13.94
  -5   7   5  161.03   14.13
  -6   7   5  111.26   12.34
   6   7  -5  123.66   13.73
  -6  -7  -5  119.52   13.01
   6   7  -5  111.88   12.58
  -6   7  -5  114.84   11.93
   6  -7   5  101.45   11.47
  -6   7  -5  111.64   12.81
  -6   7   5  122.08   13.21
   7   7  -5  128.86   14.68
   7   7  -5  132.56   14.08
  -7   7  -5  131.73   12.52
  -7   7  -5  160.56   15.68
   7  -7   5  122.91   13.43
  -7  -7  -5  137.16   14.36
  -7   7   5  132.57   13.95
  -8   7   5   81.14   11.14
   8   7  -5   69.66   11.44
  -8   7  -5   65.27   10.19
   8   7  -5   61.80    9.80
  -8   7  -5   72.95    9.58
  -8  -7  -5   66.87   10.47
   0   7  -6   -0.99    3.43
   0  -7   6    0.57    2.84
   0   7   6   -3.04    3.58
   1   7  -6  326.40   21.26
  -1  -7  -6  308.25   21.76
  -1   7  -6  322.81   20.74
   1   7   6  333.16   20.53
  -1   7   6  337.38   20.42
   1  -7   6  304.44   19.22
   2   7  -6   87.56   11.17
  -2   7  -6  102.97   11.68
  -2  -7  -6   90.71   11.52
   2  -7   6  101.24   11.01
   2   7   6  107.42   11.97
  -2   7   6  109.01   11.64
  -3   7   6   89.65   10.64
  -3   7  -6   90.25   11.07
   3   7  -6   95.30   11.51
   3   7  -6  100.69   12.13
   3  -7   6   78.35    9.73
  -3  -7  -6  104.21   12.16
   4   7  -6  217.17   17.56
   4   7  -6  193.40   16.81
  -4   7  -6  206.12   16.47
  -4  -7  -6  246.26   18.67
  -4   7   6  221.19   18.56
   4  -7   6  180.46   15.08
  -4   7   6  226.03   16.82
   5   7  -6  300.41   21.21
   5   7  -6  269.33   20.18
  -5   7  -6  298.56   19.83
  -5  -7  -6  328.48   21.99
  -5   7   6  308.49   22.24
   5  -7   6  260.19   18.71
  -5   7   6  290.73   19.27
  -6   7   6    1.25    3.68
   6  -7   6    4.49    3.96
   6   7  -6   -0.42    4.05
   6   7  -6    1.19    4.53
  -6   7  -6    8.04    3.97
  -6  -7  -6   10.88    5.18
  -6   7   6   -3.99    4.28
   7   7  -6  171.27   17.09
   7   7  -6  159.03   16.04
  -7   7  -6  162.68   14.69
  -7   7  -6  178.96   16.68
  -7  -7  -6  168.58   16.19
   7  -7   6  148.85   16.03
  -7   7   6  151.80   15.05
   0   7  -7   37.96    8.07
   0  -7   7   23.92    7.13
   0   7   7   41.59    7.90
   1   7  -7   76.62   10.89
  -1   7  -7   67.53   10.13
   1  -7   7   74.06   10.82
   1   7   7   74.67   10.29
  -1   7   7   69.26    9.63
  -2   7   7    5.47    4.42
   2  -7   7    1.96    2.69
   2   7  -7    2.47    4.21
  -2   7  -7    9.22    5.02
  -2  -7  -7    1.79    4.57
   2   7   7    5.65    3.71
  -3   7   7    4.02    3.87
   3  -7   7   11.44    4.35
   3   7  -7   11.13    5.18
  -3   7  -7    6.25    4.42
  -3  -7  -7    4.94    3.91
  -3   7   7   -2.55    3.87
  -4   7   7   14.06    4.70
   4   7  -7   22.37    6.91
   4  -7   7   16.56    5.46
   4   7  -7   10.71    4.66
  -4   7  -7    4.18    4.65
  -4  -7  -7   11.94    5.51
  -4   7   7    3.37    3.76
  -5   7  -7  116.21   12.88
   5   7  -7  109.82   13.70
   5   7  -7  114.01   13.68
  -5  -7  -7  134.47   14.39
   5  -7   7  124.40   14.12
  -5   7   7  114.43   12.31
  -5   7   7  101.69   13.40
  -6   7   7    5.57    5.29
   6  -7   7    2.17    3.10
   6   7  -7    5.04    4.36
   6   7  -7    0.82    3.30
  -6   7  -7    8.61    4.53
  -6  -7  -7    7.86    4.71
  -6   7   7    1.81    3.37
   0   7  -8    7.54    5.13
   0  -7   8   -5.20    5.17
   0   7   8    2.77    3.15
   1   7  -8  128.10   14.56
  -1   7  -8  121.56   14.08
   1  -7   8   91.12   13.11
   1   7   8  138.45   14.15
  -1   7   8  127.00   13.28
  -1  -7   8  132.98   11.96
  -2   7   8   33.10    6.94
  -2  -7   8   37.14    6.67
   2   7  -8   49.14    9.25
  -2   7  -8   59.55    9.86
   2  -7   8   37.15    8.52
  -2  -7  -8   34.04    7.75
  -2   7   8   35.92    8.58
   2   7   8   42.45    8.74
   3   7  -8  415.76   26.43
  -3   7  -8  435.10   26.11
  -3  -7  -8  423.11   26.27
  -3   7   8  387.19   26.88
   3  -7   8  391.40   25.90
  -3   7   8  396.70   22.92
   4   7  -8   81.06   12.13
  -4   7  -8  110.33   13.08
   4  -7   8   73.22   11.93
  -4  -7  -8   93.55   12.42
  -4   7   8  103.36   11.79
  -4   7   8   81.31   13.24
   0   8   0  940.44   28.40
   0   8   0  984.45   34.95
   0   8   0  944.32   33.44
  -1   8   0    2.43    2.75
   1   8   0    2.62    2.66
  -1   8   0    2.88    3.38
  -1  -8   0    0.98    2.86
   1   8   0    0.43    2.30
  -2   8   0   80.73    9.65
   2   8   0   72.10    7.87
  -2   8   0   85.29   10.31
  -2  -8   0   87.33    9.88
   2   8   0   71.22    8.86
  -3   8   0   -0.27    2.64
   3   8   0   -1.39    3.30
  -3   8   0   -5.15    3.51
  -3  -8   0    1.53    2.14
   3   8   0   -1.18    3.23
  -4   8   0  321.68   21.28
  -4  -8   0  320.15   19.38
   4   8   0  294.91   18.60
  -4   8   0  295.07   19.09
  -5   8   0    1.73    3.72
  -5   8   0    6.36    4.71
  -5  -8   0    1.34    3.52
  -6   8   0  867.41   38.73
  -6  -8   0  791.76   32.55
  -6   8   0  771.88   33.95
  -7   8   0   -7.51    5.16
  -7   8   0   -0.97    4.61
  -7   8   0    1.82    3.02
  -7  -8   0    0.93    2.68
  -8   8   0   67.98    9.70
  -8  -8   0   77.55   10.70
   0   8   1    0.59    2.40
   0   8  -1    2.11    3.48
   0   8   1    3.78    2.41
   0   8  -1   -1.32    2.22
   0   8   1    1.09    2.96
   1   8   1   95.72    8.21
   1   8  -1  104.36    9.48
  -1   8  -1  103.59   11.36
  -1   8   1   89.63   10.11
  -1  -8  -1   99.92   11.34
   1   8  -1   92.42    9.73
  -1   8   1   89.65   10.09
  -1   8  -1   99.53   10.02
   1   8   1   73.77    9.16
  -2   8   1    5.36    3.72
  -2   8  -1    9.07    4.22
   2   8   1    6.82    2.78
   2   8  -1    4.25    2.54
  -2   8   1   12.35    4.69
  -2   8  -1    0.28    3.00
  -2  -8  -1    8.33    3.78
  -2  -8   1    8.81    3.35
   2   8   1    1.12    3.27
   2   8  -1   10.95    3.88
  -3   8   1   36.42    6.93
  -3   8  -1   30.87    6.35
   3   8  -1   29.10    5.50
  -3   8   1   47.98    8.20
  -3   8  -1   42.20    8.05
  -3  -8   1   37.06    6.64
  -3  -8  -1   32.55    6.75
   3   8   1   45.67    7.51
   3   8  -1   35.60    6.56
  -4   8   1   19.65    5.60
  -4   8  -1    4.64    3.56
   4   8  -1   16.25    5.10
  -4   8   1   22.70    6.83
  -4   8  -1   10.46    5.07
  -4  -8   1   20.98    5.22
  -4  -8  -1   16.49    5.20
   4   8  -1   14.16    4.53
  -5   8   1   81.73   10.50
  -5   8  -1   83.53   10.53
  -5   8   1   88.23   12.18
  -5   8  -1   70.74   10.21
  -5  -8   1   87.15    9.68
  -5  -8  -1   76.70   10.02
  -6   8   1   15.96    5.54
  -6   8  -1    9.30    4.70
  -6   8  -1    5.98    5.07
  -6   8  -1    5.62    3.36
  -6  -8   1    4.88    3.64
  -6  -8  -1    9.83    4.71
  -7   8   1  162.60   14.97
  -7   8  -1  153.16   13.12
  -7   8  -1  195.64   18.65
  -7  -8   1  168.18   14.52
  -7  -8  -1  191.69   16.08
  -7   8   1  196.80   17.01
  -7   8  -1  195.21   16.93
  -8   8   1   -1.33    4.26
  -8   8  -1   -3.36    4.82
  -8   8   1    0.94    3.73
  -8   8  -1   -0.88    3.17
  -8  -8   1    6.26    3.52
  -8  -8  -1    3.92    3.88
   0   8  -2    2.28    2.63
   0   8  -2    6.37    3.06
   0   8   2    2.45    2.98
   0   8   2    4.29    3.31
   1   8  -2    7.42    2.85
  -1   8   2    7.95    3.82
  -1   8  -2   14.99    4.17
   1   8   2    1.42    1.77
   1   8  -2    1.83    2.28
  -1   8   2    8.64    4.55
  -1  -8  -2    3.46    2.73
   1   8   2    3.65    3.71
   2   8  -2  461.85   21.93
  -2   8   2  495.14   24.19
  -2   8  -2  466.45   24.89
  -2  -8  -2  440.36   24.18
  -2  -8   2  435.31   20.72
   2   8   2  408.08   21.91
   2   8  -2  438.11   20.93
  -2   8   2  429.16   22.69
  -2   8  -2  429.95   21.28
  -3   8   2    4.66    3.76
  -3   8  -2    0.75    2.87
   3   8  -2   -0.45    2.66
  -3   8   2    8.44    5.14
  -3   8  -2    3.23    3.97
  -3  -8   2    1.12    2.43
  -3  -8  -2    3.55    3.97
   3   8   2   -1.87    3.36
   3   8  -2    2.29    2.82
   4   8  -2  360.13   21.29
  -4   8   2  401.52   23.97
  -4   8  -2  376.51   23.58
  -4  -8   2  374.91   20.12
  -4  -8  -2  372.44   22.10
   4   8  -2  365.44   19.83
  -4   8   2  361.75   21.38
  -4   8  -2  373.22   21.37
  -5   8   2   71.99    9.85
  -5   8  -2   76.04    9.80
   5   8  -2   67.18    9.65
  -5   8  -2   73.44   10.90
  -5  -8   2   60.21    8.05
  -5  -8  -2   77.85   10.41
   5   8  -2   54.96    8.25
  -6   8   2    3.01    4.56
  -6   8  -2   -4.20    3.70
   6   8  -2   -1.84    4.15
  -6   8  -2    5.45    5.50
  -6  -8   2   -1.02    2.95
  -6  -8  -2    5.21    3.02
  -7   8   2   -3.16    4.29
  -7   8  -2   -1.99    4.82
  -7  -8   2    1.89    3.46
  -7  -8  -2    1.35    3.51
   8   8  -2  236.70   19.25
  -8   8  -2  215.60   16.27
  -8   8   2  205.91   18.00
  -8   8  -2  229.98   20.32
  -8  -8   2  216.16   16.97
  -8  -8  -2  234.41   18.73
  -8   8   2  244.52   19.90
   0   8  -3    3.76    3.12
   0   8   3   -2.41    2.62
   0   8   3    0.95    2.58
  -1   8   3    7.35    3.34
   1   8  -3    8.56    3.29
  -1   8  -3   12.25    4.35
   1   8  -3    2.48    2.95
  -1   8   3    9.35    3.88
   1   8   3    5.17    3.59
  -1  -8  -3   10.58    4.64
   1   8   3    6.84    3.28
   2   8  -3    0.96    2.44
  -2   8   3   -1.40    3.10
  -2   8  -3    9.39    3.33
   2   8  -3    9.36    4.03
  -2   8   3    3.27    3.91
  -2  -8  -3   -1.42    3.50
   2   8   3    1.32    2.58
   3   8  -3  348.77   20.46
  -3   8  -3  376.56   23.24
  -3  -8  -3  339.54   21.56
   3   8   3  338.49   20.83
   3   8  -3  358.85   18.51
  -3   8   3  355.30   21.31
  -3   8  -3  375.32   20.30
  -4   8   3   87.12   10.85
  -4   8  -3   81.60   10.01
   4   8  -3   78.98    9.94
  -4   8  -3   74.58   10.84
  -4  -8  -3   86.29   11.08
   4   8  -3   69.64    8.19
   5   8  -3    2.64    3.03
  -5   8   3    3.37    3.15
  -5   8  -3   11.61    4.15
  -5   8  -3   -2.11    3.81
   5   8  -3    8.07    5.02
  -5   8  -3    6.99    4.82
  -5  -8  -3   13.36    5.31
   5   8  -3    5.42    2.89
  -6   8   3   -0.41    3.35
   6   8  -3   -1.89    3.70
   6   8  -3    0.48    4.39
  -6   8  -3    8.27    5.51
  -6  -8  -3   -1.28    3.15
  -6   8  -3    4.47    3.80
   6   8  -3   -1.49    2.82
  -7   8   3   34.09    8.04
   7   8  -3   44.34    8.45
  -7   8  -3   32.28    7.69
   7   8  -3   16.87    5.48
  -7   8  -3   28.75    6.42
  -7  -8  -3   23.95    6.72
   0   8  -4  572.90   28.61
   0   8   4  633.57   24.65
   0   8   4  568.85   27.33
   0   8  -4  576.18   22.84
  -1   8   4    3.97    3.85
   1   8  -4    1.77    2.02
  -1   8  -4    0.36    3.76
  -1   8  -4    0.82    2.17
   1   8  -4   -0.67    2.79
  -1   8   4    0.87    2.69
  -1  -8  -4   -1.96    3.25
   1   8   4   -0.87    3.29
   1   8  -4   -1.76    4.69
  -2   8   4   92.06   11.36
   2   8  -4   84.59   10.22
  -2   8   4   95.58   10.91
   2   8  -4   83.09   10.87
  -2   8  -4   96.28   11.58
  -2  -8  -4   86.04   11.41
   2   8  -4   77.93    8.03
  -2   8  -4   86.26    9.45
   2   8   4   92.28   10.70
   3   8  -4   23.22    4.55
  -3   8   4   27.69    6.59
  -3   8  -4   24.05    5.47
   3   8  -4   16.27    5.29
   3   8  -4   34.39    7.22
  -3   8  -4   22.53    5.97
  -3  -8  -4   16.07    5.68
   3   8   4   20.41    6.41
  -4   8   4   14.77    4.81
  -4   8  -4   16.64    5.11
   4   8  -4   22.25    6.32
  -4   8  -4   24.14    6.49
   4   8  -4   11.78    4.74
  -4  -8  -4   22.77    6.65
  -4   8  -4   19.10    5.68
  -5   8   4   17.92    6.05
   5   8  -4   17.46    5.70
   5   8  -4   13.22    5.12
  -5   8  -4    9.94    3.90
  -5   8  -4   20.17    6.67
  -5  -8  -4   28.39    7.31
   6   8  -4  516.96   29.13
  -6   8  -4  536.06   29.65
  -6  -8  -4  557.99   29.34
   6   8  -4  451.64   27.30
  -6   8  -4  505.47   26.66
  -6   8   4  520.80   28.93
  -7   8   4   26.08    7.05
   7   8  -4   26.67    7.23
  -7   8  -4   21.01    7.70
   7   8  -4   17.30    6.20
  -7  -8  -4   26.27    6.73
  -7   8  -4   22.52    5.90
   0   8  -5   -3.29    3.00
   0   8  -5   -3.93    4.31
   0   8   5   -2.71    3.67
  -1   8   5  606.92   25.20
  -1  -8  -5  482.52   28.30
   1   8  -5  429.62   25.79
   1   8   5  515.82   26.63
  -1   8  -5  482.14   26.74
  -1   8   5  535.47   26.96
  -1   8  -5  512.41   22.30
  -2   8   5   36.25    7.11
  -2   8  -5   20.45    4.95
   2   8  -5   32.51    7.63
  -2   8  -5   25.20    6.54
   2   8  -5   28.20    6.53
  -2  -8  -5   18.95    5.58
   2   8   5   21.17    5.54
   3   8  -5   -1.10    2.97
  -3   8   5    8.15    4.10
  -3   8  -5   -3.70    3.84
  -3   8  -5    5.68    2.86
   3   8  -5    2.58    3.76
  -3  -8  -5   -2.76    4.10
   3   8   5    0.37    4.03
  -4   8   5   63.02    9.69
   4   8  -5   36.02    7.41
  -4  -8  -5   49.78    9.24
   4   8  -5   43.89    8.42
  -4   8  -5   53.10    9.32
   5   8  -5  493.26   27.99
  -5  -8  -5  486.68   27.58
   5   8  -5  435.67   26.99
  -5   8  -5  469.55   26.16
  -5   8   5  482.26   26.84
  -6   8   5   18.47    5.85
   6   8  -5    5.71    3.93
   6   8  -5    3.80    4.68
  -6   8  -5   12.94    4.64
  -6   8  -5   11.31    5.61
  -6  -8  -5   13.43    6.26
   0   8  -6   72.65   11.08
   0   8   6   66.99   10.01
  -1   8   6   64.14    9.59
   1   8  -6   59.35    9.70
  -1   8  -6   44.63    8.82
   1   8   6   53.25    9.14
  -2   8   6   75.41   10.21
   2   8  -6   77.09   11.12
  -2   8  -6   84.67   11.39
  -2  -8  -6   64.27   10.52
   2   8   6   73.47   10.41
  -3   8   6    7.31    4.57
   3   8  -6   -5.68    5.05
  -3   8  -6    3.28    3.53
   3   8  -6   -7.45    6.08
  -3  -8  -6   -7.72    5.04
   3   8   6    3.98    4.45
  -4   8   6   47.73    8.72
   4   8  -6   36.48    8.32
  -4   8  -6   39.08    8.20
   4   8  -6   50.41    9.43
  -4  -8  -6   46.60    8.75
  -5   8   6   28.45    7.04
   5   8  -6   18.93    6.29
  -5  -8  -6   24.73    6.81
   5   8  -6   16.05    5.43
  -5   8  -6   18.43    6.12
   0   8  -7    0.25    4.37
   0   8   7   -1.42    3.49
  -1   8   7   16.71    6.19
   1   8  -7   13.80    5.51
  -1   8  -7   16.96    6.13
   1   8   7   17.05    6.29
  -2   8   7   10.63    4.98
  -2  -8  -7    4.29    3.86
   2   8  -7    8.27    4.88
  -2   8  -7   14.99    6.30
   2   8   7   12.66    5.77
   3   8  -7  477.48   29.04
  -3   8  -7  488.35   28.40
  -3  -8  -7  541.24   30.47
  -3   8   7  527.03   28.31
   0   9   0   -6.35    4.28
   1   9   0   -4.85    4.15
  -1   9   0    6.03    4.42
   1   9   0    2.05    2.14
  -1   9   0    0.92    3.41
   2   9   0   86.30    9.18
  -2   9   0  108.12   12.10
  -2  -9   0  101.55   11.50
  -2   9   0   98.82   11.26
   2   9   0   66.47    9.00
  -3   9   0    0.75    3.83
   3   9   0   -2.81    2.97
  -3   9   0    8.18    4.67
  -3  -9   0   -5.83    3.66
   3   9   0    6.73    3.55
   4   9   0  234.17   17.29
  -4   9   0  282.94   21.26
  -4  -9   0  255.78   18.43
   4   9   0  231.30   17.32
  -4   9   0  248.28   19.01
  -5   9   0    1.08    3.77
   5   9   0    6.19    4.73
  -5   9   0   -2.05    4.83
  -5  -9   0    5.29    4.03
   5   9   0    3.13    3.48
  -6   9   0   82.87   11.80
  -6   9   0   73.64   11.98
  -6  -9   0   92.99   11.39
   0   9   1  149.15   13.84
   0   9  -1  151.31   13.36
   1   9  -1  157.10   12.40
  -1   9   1  131.47   13.11
   1   9   1  154.34   14.01
   1   9  -1  148.11   13.11
  -1   9   1  137.43   13.33
  -1   9  -1  150.11   13.49
   2   9   1  155.74   11.78
   2   9  -1  163.35   13.11
  -2   9   1  162.13   14.91
  -2   9  -1  170.86   15.97
  -2  -9  -1  158.45   15.12
  -2  -9   1  153.26   13.81
   2   9   1  163.40   14.43
   2   9  -1  150.25   13.50
  -2   9   1  175.30   15.47
  -2   9  -1  159.81   14.15
  -3   9   1    2.99    4.91
  -3   9  -1   -4.65    4.45
   3   9   1    0.09    2.95
   3   9  -1    3.32    3.66
  -3   9   1    5.96    4.72
  -3   9  -1    3.49    4.46
  -3  -9  -1   -4.82    3.68
  -3  -9   1   -0.71    2.27
   3   9   1   -0.17    3.19
   3   9  -1   -1.40    3.26
   4   9  -1  215.69   17.03
  -4   9   1  233.76   19.41
  -4   9  -1  228.86   19.32
  -4  -9   1  213.49   16.33
  -4  -9  -1  223.86   17.44
   4   9   1  188.78   16.24
   4   9  -1  209.31   16.43
  -4   9   1  203.27   17.22
  -4   9  -1  207.64   17.57
   5   9  -1  178.14   16.36
  -5   9   1  207.68   19.10
  -5   9  -1  187.17   18.06
  -5  -9   1  176.38   15.18
  -5  -9  -1  189.23   16.52
   5   9   1  144.62   14.42
   5   9  -1  143.29   14.02
  -5   9   1  134.93   14.73
  -5   9  -1  159.83   15.52
   6   9  -1  185.85   17.77
  -6   9   1  182.37   18.58
  -6   9  -1  205.20   19.39
  -6  -9   1  185.80   15.76
  -6  -9  -1  177.43   16.04
   6   9  -1  154.85   15.13
  -6   9   1  180.47   17.67
  -6   9  -1  188.58   17.25
   0   9   2    1.81    3.63
   0   9  -2    4.41    3.34
   0   9   2    4.71    3.17
  -1   9   2    4.82    3.47
   1   9  -2    1.82    2.96
  -1   9  -2    3.05    3.38
   1   9  -2    8.12    3.88
  -1   9   2   11.26    5.41
   1   9   2    1.37    3.93
   2   9  -2  207.82   15.47
  -2   9   2  212.31   16.87
  -2  -9  -2  191.01   16.85
   2   9   2  149.15   14.04
   2   9  -2  180.94   14.50
  -2   9   2  192.43   16.24
  -2   9  -2  193.46   15.25
  -3   9   2   49.05    8.40
  -3   9  -2   28.39    6.56
   3   9  -2   29.18    6.18
  -3   9   2   51.08    9.45
  -3   9  -2   30.17    7.41
  -3  -9  -2   33.65    7.21
   3   9   2   32.37    6.63
   3   9  -2   29.72    6.12
   4   9  -2  175.76   15.49
  -4   9   2  224.15   18.91
  -4   9  -2  195.18   18.03
  -4  -9  -2  171.06   15.80
   4   9   2  146.69   14.36
   4   9  -2  167.41   14.31
  -4   9   2  191.22   16.51
  -4   9  -2  174.00   15.50
  -5   9   2   18.63    6.17
  -5   9  -2   26.75    6.94
   5   9  -2   35.63    8.14
  -5   9   2   32.79    8.66
  -5   9  -2   20.30    6.96
  -5  -9  -2   15.38    5.15
   5   9  -2   25.02    5.96
  -6   9   2   -0.05    3.97
  -6   9  -2   -1.21    3.45
   6   9  -2   -0.29    4.26
  -6   9   2   10.69    5.12
  -6   9  -2    3.01    4.65
  -6  -9  -2   -1.48    2.82
   6   9  -2    2.59    3.52
   0   9   3  310.87   18.69
   0   9   3  260.30   19.05
   0   9  -3  300.36   18.09
  -1   9   3   95.48   11.68
   1   9  -3  105.73   11.58
  -1   9   3  129.12   12.65
   1   9  -3  120.44   11.36
  -1   9  -3  118.40   11.74
   1   9   3   96.68   11.85
   2   9  -3  187.46   15.54
  -2   9   3  203.39   16.30
  -2  -9  -3  168.84   16.06
   2   9   3  169.49   15.22
   2   9  -3  194.06   14.47
  -2   9   3  173.19   15.94
  -2   9  -3  155.49   13.91
   3   9  -3   19.44    5.17
  -3   9   3   27.49    6.56
  -3   9  -3   19.54    5.71
   3   9  -3   23.39    5.95
  -3   9   3   18.40    6.65
  -3  -9  -3   22.91    6.65
   3   9   3   18.09    5.54
  -4   9  -3   78.71   10.43
   4   9  -3   86.77   11.24
  -4   9   3  125.12   14.64
  -4   9  -3  105.32   13.69
  -4  -9  -3   93.70   11.92
   4   9  -3   96.74   10.80
  -4   9   3  110.01   13.14
   4   9   3   80.11   11.46
  -5   9  -3   26.58    7.12
  -5   9   3   16.22    4.95
  -5   9  -3   38.94    7.91
   5   9  -3   32.67    7.75
  -5   9  -3   35.01    8.41
  -5  -9  -3   32.82    7.66
   5   9  -3   35.74    7.77
   0   9   4   -5.80    4.95
   0   9  -4    0.51    2.34
   0   9  -4    3.37    3.80
   1   9  -4  163.66   16.93
  -1   9  -4  173.14   17.00
  -1   9   4  208.05   15.58
   1   9   4  204.03   17.02
  -1   9   4  206.59   17.40
   1   9  -4  203.08   14.26
  -1   9  -4  192.44   14.70
  -2   9   4   91.95   11.68
  -2   9  -4   79.06    9.96
   2   9  -4   91.81   11.47
  -2   9   4   83.20   10.58
   2   9  -4   71.31   11.20
  -2   9  -4   88.10   12.00
  -2  -9  -4   72.40   11.34
   2   9   4   76.82   10.51
  -3   9   4   51.86    9.36
  -3   9  -4   42.06    7.56
   3   9  -4   50.63    9.89
   3   9  -4   51.61    8.81
  -3   9  -4   47.99    9.16
  -3   9   4   66.95   10.51
  -3  -9  -4   54.90    9.83
   3   9   4   50.53    8.97
  -4   9   4   76.97   11.27
  -4   9  -4   50.71    8.14
   4   9  -4   71.50   10.75
  -4  -9  -4   72.87   10.65
   4   9  -4   55.24   10.23
   4   9   4   69.68   10.94
  -4   9  -4   67.55   10.63
   0   9  -5    6.58    4.22
   0   9   5    2.47    3.58
   1   9   5  170.63   16.09
   1   9  -5  145.00   15.88
  -1   9   5  149.44   15.12
  -1   9  -5  162.94   16.52
  -2   9   5   56.32    9.65
   2   9  -5   52.54    9.77
  -2   9  -5   53.45    9.06
  -2  -9  -5   51.90    9.92
   2   9   5   56.29    9.51
  -3   9   5    0.21    3.88
   3   9  -5   -3.14    4.52
  -3   9  -5    1.28    2.63
  -3   9  -5   -5.98    5.82
   3   9  -5    4.19    3.74
  -3   9   5   -1.60    4.97
  -3  -9  -5    3.46    3.86
   3   9   5    0.68    4.19
   0  10   0   11.01    5.15
   1  10   0    2.92    3.72
  -1  10   0    7.47    4.05
  -2  10   0  211.05   18.62
   2  10   0  187.21   16.65
  -2  10   0  178.78   16.35
  -3  10   0    3.01    4.40
  -3  10   0   -1.66    4.69
   3  10   0   -3.96    4.21
   0  10   1    5.66    4.29
   0  10  -1    8.76    5.55
   1  10   1   11.45    5.73
   1  10  -1   14.23    5.64
  -1  10   1   18.26    6.13
  -1  10  -1   22.69    6.25
  -1  10   1   17.02    5.75
   2  10  -1    3.58    3.58
  -2  10   1    2.87    4.62
  -2  10  -1    5.90    4.02
  -2  10   1    0.96    4.77
   2  10   1    2.43    3.67
  -3  10   1   43.56    8.92
  -3  10  -1   40.30    8.08
   3  10  -1   26.82    6.55
  -3  10   1   38.90    8.81
  -3  10  -1   43.32    9.44
  -3 -10  -1   24.07    6.10
   3  10   1   40.39    8.67
   3  10  -1   30.00    6.72
   0  10   2  427.89   25.78
   0  10  -2  462.79   25.04
   1  10   2    4.40    3.95
  -1  10   2   -0.45    3.87
   1  10  -2    2.58    3.77
  -1  10  -2    8.53    4.52
  -1  10   2   -1.60    4.73
   2  10  -2   87.97   11.05
  -2  10   2   88.51   12.08
  -2  10  -2   98.52   11.84
   2  10  -2   98.13   11.20
  -2  10   2  101.82   12.78
   2  10   2   66.74   10.22
   0  10  -3   10.08    4.60
   0   0   0    0.00    0.00



TITL A in Pnna
REM Pnna (#52, found as Pncn in cab setting)
CELL 0.71073  10.974822   8.581188  10.059636  90.0000  90.0000  90.0000
ZERR    4.00   0.000350   0.000341   0.000378   0.0000   0.0000   0.0000
LATT  1
SYMM -x+1/2,-y, z
SYMM -x+1/2, y+1/2,-z+1/2
SYMM  x,-y+1/2,-z+1/2
SFAC C H N O
UNIT 44.00 40.00 4.00 4.00
TREF
HKLF 4
END
_computing_structure_solution     'SHELXT 2014/5 (Sheldrick, 2014)'
_computing_structure_solution     'SHELXT 2014/5 (Sheldrick, 2014)'
;
_shelx_hkl_checksum              88354
_olex2_submission_special_instructions 'No special instructions were received'
_oxdiff_exptl_absorpt_empirical_details
;
Empirical correction (ABSPACK) includes:
- Absorption correction using spherical harmonics
- Frame scaling
;
_oxdiff_exptl_absorpt_empirical_full_max 1.548
_oxdiff_exptl_absorpt_empirical_full_min 0.768
loop_
_space_group_symop_operation_xyz
'x, y, z'
'-x+1/2, -y, z'
'-x+1/2, y+1/2, -z+1/2'
'x, -y+1/2, -z+1/2'
'-x, -y, -z'
'x-1/2, y, -z'
'x-1/2, -y-1/2, z-1/2'
'-x, y-1/2, z-1/2'
loop_
_atom_site_label
_atom_site_type_symbol
_atom_site_fract_x
_atom_site_fract_y
_atom_site_fract_z
_atom_site_U_iso_or_equiv
_atom_site_adp_type
_atom_site_occupancy
_atom_site_site_symmetry_order
_atom_site_calc_flag
_atom_site_refinement_flags_posn
_atom_site_refinement_flags_adp
_atom_site_refinement_flags_occupancy
_atom_site_disorder_assembly
_atom_site_disorder_group
Br01 Br 0.92052(3) 0.750000 0.750000 0.02441(15) Uani 1 2 d S T P . .
Cu02 Cu 0.250000 0.500000 0.46807(4) 0.00936(14) Uani 1 2 d S T P . .
N003 N 0.68684(18) 0.6644(2) 0.6635(2) 0.0120(4) Uani 1 1 d . . . . .
N004 N 0.38311(19) 0.5824(2) 0.5762(2) 0.0132(4) Uani 1 1 d . . . . .
C005 C 0.5684(2) 0.6976(3) 0.6974(3) 0.0112(5) Uani 1 1 d . . . . .
C006 C 0.7501(3) 0.750000 0.750000 0.0123(7) Uani 1 2 d S T P . .
C007 C 0.4661(2) 0.6336(3) 0.6303(2) 0.0110(5) Uani 1 1 d . . . . .
C1 C 0.6939(3) 0.9612(2) 0.4323(8) 0.083(7) Uani 0.25 1 d D . P . .
H1A H 0.6150(3) 1.0096(7) 0.4323(8) 0.04(4) Uiso 0.25 1 d D . P . .
H1B H 0.6825(4) 0.8503(3) 0.4323(8) 0.17(11) Uiso 0.25 1 d D . P . .
loop_
_atom_site_aniso_label
_atom_site_aniso_U_11
_atom_site_aniso_U_22
_atom_site_aniso_U_33
_atom_site_aniso_U_23
_atom_site_aniso_U_13
_atom_site_aniso_U_12
Br01 0.0041(2) 0.0361(3) 0.0329(3) -0.02060(17) 0.000 0.000
Cu02 0.0048(2) 0.0134(2) 0.0099(2) 0.000 0.000 -0.00047(16)
N003 0.0068(9) 0.0145(10) 0.0148(10) -0.0035(8) 0.0013(7) 0.0001(8)
N004 0.0095(10) 0.0174(11) 0.0127(10) -0.0038(8) 0.0022(7) 0.0012(8)
C005 0.0059(9) 0.0149(11) 0.0128(12) -0.0001(10) 0.0009(8) 0.0012(8)
C006 0.0038(14) 0.0176(17) 0.0154(15) -0.0032(12) 0.000 0.000
C007 0.0083(10) 0.0135(12) 0.0113(11) -0.0025(9) 0.0028(8) 0.0027(8)
C1 0.096(18) 0.070(14) 0.084(14) 0.045(11) -0.042(13) 0.006(12)
loop_
_atom_type_symbol
_atom_type_description
_atom_type_scat_dispersion_real
_atom_type_scat_dispersion_imag
_atom_type_scat_source
C C 0.0033 0.0016 'International Tables Vol C Tables 4.2.6.8 and 6.1.1.4'
H H 0.0000 0.0000 'International Tables Vol C Tables 4.2.6.8 and 6.1.1.4'
Br Br -0.2901 2.4595 'International Tables Vol C Tables 4.2.6.8 and 6.1.1.4'
Cu Cu 0.3201 1.2651 'International Tables Vol C Tables 4.2.6.8 and 6.1.1.4'
N N 0.0061 0.0033 'International Tables Vol C Tables 4.2.6.8 and 6.1.1.4'
loop_
_geom_angle_atom_site_label_1
_geom_angle_atom_site_label_2
_geom_angle_atom_site_label_3
_geom_angle
_geom_angle_site_symmetry_1
_geom_angle_site_symmetry_3
_geom_angle_publ_flag
N003 Cu02 N003 99.82(11) 5_666 6_556 ?
N004 Cu02 N003 110.78(8) 2_565 6_556 ?
N004 Cu02 N003 111.24(8) 2_565 5_666 ?
N004 Cu02 N003 110.78(8) . 5_666 ?
N004 Cu02 N003 111.24(8) . 6_556 ?
N004 Cu02 N004 112.33(12) 2_565 . ?
C005 N003 Cu02 128.46(17) . 5_666 ?
C006 N003 Cu02 128.53(18) . 5_666 ?
C006 N003 C005 102.4(2) . . ?
C007 N004 Cu02 174.4(2) . . ?
N003 C005 C005 108.91(13) . 4_566 ?
N003 C005 C007 123.3(2) . . ?
C005 C005 C007 127.78(14) 4_566 . ?
N003 C006 Br01 121.36(15) . . ?
N003 C006 Br01 121.36(15) 4_566 . ?
N003 C006 N003 117.3(3) 4_566 . ?
N004 C007 C005 179.7(3) . . ?
C1 C1 H1A 126.0(3) 2_675 . ?
C1 C1 H1B 125.9(4) 2_675 . ?
H1A C1 H1B 108.1(5) . . ?
loop_
_geom_bond_atom_site_label_1
_geom_bond_atom_site_label_2
_geom_bond_distance
_geom_bond_site_symmetry_2
_geom_bond_publ_flag
Br01 C006 1.870(3) . ?
Cu02 N003 2.054(2) 6_556 ?
Cu02 N003 2.054(2) 5_666 ?
Cu02 N004 1.954(2) 2_565 ?
Cu02 N004 1.954(2) . ?
N003 C005 1.374(3) . ?
N003 C006 1.334(3) . ?
N004 C007 1.148(3) . ?
C005 C005 1.388(5) 4_566 ?
C005 C007 1.421(3) . ?
C1 C1 1.399(6) 2_675 ?
C1 H1A 0.9602(5) . ?
C1 H1B 0.9602(5) . ?
loop_
_geom_torsion_atom_site_label_1
_geom_torsion_atom_site_label_2
_geom_torsion_atom_site_label_3
_geom_torsion_atom_site_label_4
_geom_torsion
_geom_torsion_site_symmetry_1
_geom_torsion_site_symmetry_2
_geom_torsion_site_symmetry_3
_geom_torsion_site_symmetry_4
_geom_torsion_publ_flag
Cu02 N003 C005 C005 172.1(2) 5_666 . . 4_566 ?
Cu02 N003 C005 C007 -8.9(4) 5_666 . . . ?
Cu02 N003 C006 Br01 8.04(19) 5_666 . . . ?
Cu02 N003 C006 N003 -171.96(19) 5_666 . . 4_566 ?
C005 N003 C006 Br01 179.89(12) . . . . ?
C005 N003 C006 N003 -0.11(12) . . . 4_566 ?
C006 N003 C005 C005 0.3(3) . . . 4_566 ?
C006 N003 C005 C007 179.2(2) . . . . ?
