#------------------------------------------------------------------------------
#$Date: 2020-08-22 01:56:51 +0300 (Sat, 22 Aug 2020) $
#$Revision: 255536 $
#$URL: file:///home/coder/svn-repositories/cod/cif/4/13/51/4135183.cif $
#------------------------------------------------------------------------------
#
# This file is available in the Crystallography Open Database (COD),
# http://www.crystallography.net/
#
# All data on this site have been placed in the public domain by the
# contributors.
#
data_4135183
loop_
_publ_author_name
'Yan, Yong'
'Carrington, Elliot J.'
'P\'etuya, R\'emi'
'Whitehead, George F. S.'
'Verma, Ajay'
'Hylton, Rebecca K.'
'Tang, Chiu C.'
'Berry, Neil G.'
'Darling, George R.'
'Dyer, Matthew S.'
'Antypov, Dmytro'
'Katsoulidis, Alexandros P.'
'Rosseinsky, Matthew J.'
_publ_section_title
;
 Amino Acid Residues Determine the Response of Flexible Metal-Organic
 Frameworks to Guests.
;
_journal_name_full               'Journal of the American Chemical Society'
_journal_paper_doi               10.1021/jacs.0c03853
_journal_year                    2020
_chemical_absolute_configuration syn
_chemical_formula_moiety         'C7 H7 N3 O3, 0.69(C H2 Cl2)'
_chemical_formula_sum            'C7.69 H8.37 Cl1.37 N3 O3 Zn'
_chemical_formula_weight         304.73
_space_group_crystal_system      trigonal
_space_group_IT_number           146
_space_group_name_Hall           'R 3'
_space_group_name_H-M_alt        'R 3 :H'
_atom_sites_solution_hydrogens   geom
_atom_sites_solution_primary     dual
_audit_creation_date             2019-08-12
_audit_creation_method
;
Olex2 1.2
(compiled 2018.05.29 svn.r3508 for OlexSys, GUI svn.r5506)
;
_cell_angle_alpha                90
_cell_angle_beta                 90
_cell_angle_gamma                120
_cell_formula_units_Z            18
_cell_length_a                   27.7361(9)
_cell_length_b                   27.7361(9)
_cell_length_c                   10.1353(3)
_cell_measurement_reflns_used    7339
_cell_measurement_temperature    150
_cell_measurement_theta_max      25.03
_cell_measurement_theta_min      2.54
_cell_volume                     6752.4(4)
_computing_cell_refinement       'SAINT V8.38A (?, 2016)'
_computing_data_reduction        'SAINT V8.38A (?, 2016)'
_computing_molecular_graphics    'Olex2 (Dolomanov et al., 2009)'
_computing_publication_material  'Olex2 (Dolomanov et al., 2009)'
_computing_structure_refinement  'ShelXL (Sheldrick, 2015)'
_computing_structure_solution    'XT (Sheldrick, 2015)'
_diffrn_ambient_temperature      150.0
_diffrn_measured_fraction_theta_full 0.998
_diffrn_measured_fraction_theta_max 0.998
_diffrn_measurement_device_type  'Bruker APEX-II CCD'
_diffrn_measurement_method       '\f and \w scans'
_diffrn_radiation_type           MoK\a
_diffrn_radiation_wavelength     0.71073
_diffrn_reflns_av_R_equivalents  0.0520
_diffrn_reflns_av_unetI/netI     0.0480
_diffrn_reflns_Laue_measured_fraction_full 0.998
_diffrn_reflns_Laue_measured_fraction_max 0.998
_diffrn_reflns_limit_h_max       32
_diffrn_reflns_limit_h_min       -32
_diffrn_reflns_limit_k_max       32
_diffrn_reflns_limit_k_min       -32
_diffrn_reflns_limit_l_max       12
_diffrn_reflns_limit_l_min       -12
_diffrn_reflns_number            19483
_diffrn_reflns_point_group_measured_fraction_full 0.994
_diffrn_reflns_point_group_measured_fraction_max 0.994
_diffrn_reflns_theta_full        25.056
_diffrn_reflns_theta_max         25.056
_diffrn_reflns_theta_min         2.181
_diffrn_standards_number         0
_exptl_absorpt_coefficient_mu    1.876
_exptl_absorpt_correction_T_max  0.7452
_exptl_absorpt_correction_T_min  0.6836
_exptl_absorpt_correction_type   multi-scan
_exptl_absorpt_process_details
'SADABS-2016/2 (Bruker,2016/2) was used for absorption correction. wR2(int) was 0.0613 before and 0.0520 after correction. The Ratio of minimum to maximum transmission is 0.9173. The \l/2 correction factor is Not present.'
_exptl_crystal_density_diffrn    1.349
_exptl_crystal_description       needle
_exptl_crystal_F_000             2750
_exptl_crystal_preparation       'Solvent Exchange DCM'
_exptl_crystal_size_max          0.1
_exptl_crystal_size_mid          0.04
_exptl_crystal_size_min          0.04
_refine_diff_density_max         2.026
_refine_diff_density_min         -1.059
_refine_diff_density_rms         0.186
_refine_ls_abs_structure_details
;
 Flack x determined using 2094 quotients [(I+)-(I-)]/[(I+)+(I-)]
 (Parsons, Flack and Wagner, Acta Cryst. B69 (2013) 249-259).
;
_refine_ls_abs_structure_Flack   0.026(9)
_refine_ls_extinction_method     none
_refine_ls_goodness_of_fit_ref   1.080
_refine_ls_hydrogen_treatment    constr
_refine_ls_matrix_type           full
_refine_ls_number_parameters     299
_refine_ls_number_reflns         5298
_refine_ls_number_restraints     33
_refine_ls_restrained_S_all      1.078
_refine_ls_R_factor_all          0.0756
_refine_ls_R_factor_gt           0.0662
_refine_ls_shift/su_max          0.000
_refine_ls_shift/su_mean         0.000
_refine_ls_structure_factor_coef Fsqd
_refine_ls_weighting_details
'w=1/[\s^2^(Fo^2^)+(0.1291P)^2^+71.4845P] where P=(Fo^2^+2Fc^2^)/3'
_refine_ls_weighting_scheme      calc
_refine_ls_wR_factor_gt          0.1870
_refine_ls_wR_factor_ref         0.1953
_reflns_Friedel_coverage         0.992
_reflns_Friedel_fraction_full    0.989
_reflns_Friedel_fraction_max     0.989
_reflns_number_gt                4771
_reflns_number_total             5298
_reflns_threshold_expression     'I > 2\s(I)'
_cod_data_source_file            ZnAlaPyr_DCM_150K.cif
_cod_data_source_block           ZnAlaPyr_DCM_150K
_cod_original_cell_volume        6752.4(5)
_cod_original_sg_symbol_H-M      'R 3'
_cod_database_code               4135183
_shelx_shelxl_version_number     2014/7
_shelx_space_group_comment
;
The symmetry employed for this shelxl refinement is uniquely defined
by the following loop, which should always be used as a source of
symmetry information in preference to the above space-group names.
They are only intended as comments.
;
_shelx_estimated_absorpt_t_max   0.929
_shelx_estimated_absorpt_t_min   0.835
_olex2_refinement_description
;
1. Fixed Uiso
 At 1.2 times of:
  All C(H) groups, All C(H,H) groups, All N(H) groups
 At 1.5 times of:
  All C(H,H,H) groups
2. Restrained distances
 Cl3-C16
 1.7 with sigma of 0.02
 C16-Cl4
 1.7 with sigma of 0.02
3. Rigid bond restraints
 O4, C13, O5
 with sigma for 1-2 distances of 0.005 and sigma for 1-3 distances of 0.005
 C1, C3, C2
 with sigma for 1-2 distances of 0.005 and sigma for 1-3 distances of 0.005
4. Uiso/Uaniso restraints and constraints
C13 \\sim O5 \\sim O4: within 2A with sigma of 0.02 and sigma for terminal
atoms of 0.04
C1 \\sim C3 \\sim C2: within 2A with sigma of 0.02 and sigma for terminal atoms
of 0.04
Uanis(C16) = Uanis(Cl4) = Uanis(Cl3)
5. Others
 Sof(Cl2)=Sof(Cl1)=Sof(C15)=Sof(H15A)=Sof(H15B)=FVAR(1)
 Sof(Cl3)=Sof(Cl4)=Sof(C16)=Sof(H16A)=Sof(H16B)=FVAR(2)
6.a Ternary CH refined with riding coordinates:
 C5(H5), C12(H12)
6.b Secondary CH2 refined with riding coordinates:
 C15(H15A,H15B), C16(H16A,H16B)
6.c Aromatic/amide H refined with riding coordinates:
 N6(H6), N3(H3), C2(H2), C8(H8), C1(H1), C9(H9)
6.d Idealised Me refined as rotating group:
 C14(H14A,H14B,H14C), C7(H7A,H7B,H7C)
;
_shelx_res_file
;
    mjr_znalapyr_dcm_0m.res created by SHELXL-2014/7

TITL mjr_znalapyr_dcm_0m_a.res in R3
REM Old TITL MJR_ZnAlaPyr_DCM_0m in R3
REM SHELXT solution in R3
REM R1 0.104, Rweak 0.029, Alpha 0.004, Orientation as input
REM Flack x = 0.063 ( 0.008 ) from Parsons' quotients
REM Formula found by SHELXT: C17 N8 O6 Zn2
CELL 0.71073 27.7361 27.7361 10.1353 90 90 120
ZERR 18 0.0009 0.0009 0.0003 0 0 0
LATT -3
SYMM -Y,+X-Y,+Z
SYMM +Y-X,-X,+Z
SFAC C H Cl N O Zn
UNIT 138.34 150.67 24.67 54 54 18
DFIX 1.7 Cl3 C16
DFIX 1.7 C16 Cl4
DELU 0.005 0.005 O4 C13 O5
DELU 0.005 0.005 C1 C3 C2
SIMU 0.02 0.04 2 C13 O5 O4
SIMU 0.02 0.04 2 C1 C3 C2
EADP C16 Cl4 Cl3

L.S. 16
PLAN  20
SIZE 0.1 0.04 0.04
TEMP -123.15
BOND $H
list 4
fmap 2
acta
REM <olex2.extras>
REM <HklSrc "%.\\MJR_ZnAlaPyr_DCM_0m.hkl">
REM </olex2.extras>

WGHT    0.129100   71.484505
FVAR       0.16667   0.73727   0.63352
ZN01  6    0.645871    0.672941    0.480911    11.00000    0.01666    0.01737 =
         0.00713   -0.00097    0.00004    0.00804
ZN02  6    0.327299    0.352872   -0.015701    11.00000    0.01731    0.01749 =
         0.00722   -0.00067    0.00040    0.00707
PART 1
CL2   3    0.550055    0.490580    0.232950    21.00000    0.06980    0.04149 =
         0.17476    0.04109   -0.01537    0.01637

PART 0
O4    5    0.328748    0.402702    0.843073    11.00000    0.02269    0.02596 =
         0.01309    0.00370    0.00253    0.01107
O1    5    0.594473    0.670446    0.342725    11.00000    0.02660    0.01865 =
         0.01561   -0.00561   -0.00641    0.01023

PART 1
CL1   3    0.486324    0.425218   -0.002098    21.00000    0.04706    0.03437 =
         0.26761   -0.04832    0.03330    0.00112

PART 0
O2    5    0.581064    0.617119    0.166514    11.00000    0.01929    0.02721 =
         0.01375   -0.00556    0.00132    0.01108
O3    5    0.458074    0.549068    0.413775    11.00000    0.03855    0.02490 =
         0.01635   -0.00512   -0.01131    0.00249
O5    5    0.385897    0.419459    0.669614    11.00000    0.02988    0.01739 =
         0.01602   -0.00150    0.00217    0.01169
N4    4    0.597369    0.644067    0.634462    11.00000    0.02093    0.01570 =
         0.00883   -0.00063    0.00061    0.00792
N6    4    0.426253    0.532523    0.706516    11.00000    0.02125    0.02146 =
         0.01350    0.00501    0.00248    0.00871
AFIX  43
H6    2    0.436301    0.540665    0.623457    11.00000   -1.20000
AFIX   0
N2    4    0.356770    0.403328    0.135372    11.00000    0.02426    0.01793 =
         0.01122   -0.00279   -0.00223    0.00941
C3    1    0.407439    0.479282    0.255196    11.00000    0.01776    0.01262 =
         0.01335   -0.00186   -0.00436    0.00815
O6    5    0.453092    0.547134    0.919831    11.00000    0.02726    0.04424 =
         0.01010    0.00133    0.00425   -0.00804
N3    4    0.466904    0.575704    0.201206    11.00000    0.02200    0.01435 =
         0.01640   -0.00374    0.00231    0.00440
AFIX  43
H3    2    0.455489    0.564589    0.120041    11.00000   -1.20000
AFIX   0
N5    4    0.614758    0.647435    0.764019    11.00000    0.01460    0.02491 =
         0.00563   -0.00279    0.00011    0.00431
C10   1    0.522367    0.594707    0.758871    11.00000    0.02245    0.01558 =
         0.01184    0.00111    0.00590    0.00642
C6    1    0.564908    0.640346    0.248600    11.00000    0.02680    0.01413 =
         0.01209    0.00364   -0.00227    0.00926
C5    1    0.508851    0.635795    0.223742    11.00000    0.01700    0.01320 =
         0.02809   -0.00080    0.00281    0.00599
AFIX  13
H5    2    0.512847    0.654047    0.136182    11.00000   -1.20000
AFIX   0
N1    4    0.356830    0.387681    0.265097    11.00000    0.02395    0.02996 =
         0.00895    0.00771    0.00163    0.01752
C13   1    0.361759    0.434714    0.751682    11.00000    0.01733    0.02213 =
         0.00731    0.00366   -0.00200    0.00617
C4    1    0.445835    0.537905    0.298961    11.00000    0.01695    0.02330 =
         0.00876    0.00341    0.00325    0.00720
C2    1    0.387245    0.459211    0.131425    11.00000    0.01918    0.01623 =
         0.01255    0.00084   -0.00292    0.00387
AFIX  43
H2    2    0.393794    0.481387    0.054813    11.00000   -1.20000
AFIX   0
C12   1    0.368102    0.492614    0.738358    11.00000    0.01683    0.02192 =
         0.01429   -0.00002    0.00364    0.01099
AFIX  13
H12   2    0.357993    0.503319    0.823804    11.00000   -1.20000
AFIX   0
C8    1    0.542494    0.612685    0.630688    11.00000    0.01465    0.02728 =
         0.01466    0.00527    0.00029    0.01120
AFIX  43
H8    2    0.520239    0.603738    0.553433    11.00000   -1.20000
AFIX   0

PART 2
CL3   3    0.593860    0.750245    0.940634    31.00000    0.12790    0.07397 =
         0.37226    0.02965   -0.02551    0.06091

PART 0
C11   1    0.463489    0.556253    0.799720    11.00000    0.01608    0.01904 =
         0.00997    0.00014   -0.00247    0.00452
C1    1    0.385826    0.431239    0.335188    11.00000    0.03134    0.02059 =
         0.00776    0.00036   -0.00485    0.01116
AFIX  43
H1    2    0.391903    0.431233    0.427431    11.00000   -1.20000
AFIX   0
C9    1    0.569377    0.617987    0.835514    11.00000    0.02713    0.02878 =
         0.00706    0.00528   -0.00247    0.01012
AFIX  43
H9    2    0.569360    0.613522    0.928448    11.00000   -1.20000
AFIX   0
C14   1    0.330047    0.491863    0.630497    11.00000    0.02034    0.03299 =
         0.04161    0.01685   -0.00130    0.00416
AFIX 137
H14A  2    0.335653    0.529405    0.618878    11.00000   -1.50000
H14B  2    0.291229    0.466266    0.654975    11.00000   -1.50000
H14C  2    0.338602    0.479431    0.547748    11.00000   -1.50000
AFIX   0

PART 2
CL4   3    0.527180    0.792226    1.011006    31.00000    0.12790    0.07397 =
         0.37226    0.02965   -0.02551    0.06091

PART 0
C7    1    0.490829    0.665646    0.315442    11.00000    0.03925    0.04528 =
         0.05278   -0.00865   -0.00620    0.01647
AFIX 137
H7A   2    0.454244    0.659441    0.288283    11.00000   -1.50000
H7B   2    0.517927    0.705595    0.313157    11.00000   -1.50000
H7C   2    0.488442    0.651565    0.405296    11.00000   -1.50000
AFIX   0

PART 1
C15   1    0.531545    0.491002    0.066559    21.00000    0.01823    0.02711 =
         0.14375   -0.01100    0.02531    0.00494
AFIX  23
H15A  2    0.513740    0.514183    0.059376    21.00000   -1.20000
H15B  2    0.566026    0.509079    0.013098    21.00000   -1.20000
AFIX   0

PART 0
PART 2
C16   1    0.597043    0.811639    0.984489    31.00000    0.12790    0.07397 =
         0.37226    0.02965   -0.02551    0.06091
AFIX  23
H16A  2    0.613490    0.839509    0.912857    31.00000   -1.20000
H16B  2    0.619319    0.827218    1.065768    31.00000   -1.20000
AFIX   0
HKLF 4

REM  mjr_znalapyr_dcm_0m_a.res in R3
REM R1 =  0.0662 for    4771 Fo > 4sig(Fo)  and  0.0756 for all    5298 data
REM    299 parameters refined using     33 restraints

END

WGHT      0.1291     71.4680

REM Highest difference peak  2.026,  deepest hole -1.059,  1-sigma level  0.186
Q1    1   0.4233  0.6638  0.6337  11.00000  0.05    2.03
Q2    1   0.5566  0.5037  0.4107  11.00000  0.05    2.01
Q3    1   0.3945  0.6292  0.8920  11.00000  0.05    1.57
Q4    1   0.5997  0.7592  1.0225  11.00000  0.05    1.23
Q5    1   0.6219  0.8190  0.8961  11.00000  0.05    1.16
Q6    1   0.5721  0.4621  0.1072  11.00000  0.05    1.15
Q7    1   0.5939  0.7562  0.8411  11.00000  0.05    1.09
Q8    1   0.4853  0.4457 -0.0878  11.00000  0.05    0.97
Q9    1   0.5080  0.6695  0.1364  11.00000  0.05    0.93
Q10   1   0.3334  0.5677  0.3131  11.00000  0.05    0.91
Q11   1   0.4432  0.5053  0.7157  11.00000  0.05    0.84
Q12   1   0.2299  0.5462  0.7721  11.00000  0.05    0.79
Q13   1   0.3289  0.5749  0.8311  11.00000  0.05    0.68
Q14   1   0.2961  0.5634  0.5363  11.00000  0.05    0.67
Q15   1   0.5407  0.6591  0.3181  11.00000  0.05    0.61
Q16   1   0.5655  0.8081  0.9644  11.00000  0.05    0.58
Q17   1   0.4860  0.5631  0.3875  11.00000  0.05    0.57
Q18   1   0.4180  0.5318  0.0181  11.00000  0.05    0.57
Q19   1   0.5242  0.5971  0.8873  11.00000  0.05    0.55
Q20   1   0.4203  0.5068  0.2468  11.00000  0.05    0.55
;
_shelx_res_checksum              30683
_shelx_hkl_file
;
   3   0   0 4959.30   93.29
   0  -3   0 4879.21   92.29
   0   3   0 4496.55   83.39
   3  -3   0 4329.37   84.09
  -4   2   0  913.51   20.40
  -4   2   0  906.31   21.50
   2  -4   0  889.21   21.20
   2   2   0  930.11   21.80
   4  -2   0  942.51   22.00
  -2  -2   0  951.10   22.20
   4  -2   0  927.81   21.00
  -2   4   0  931.71   22.00
  -5   1   0  407.46   11.60
  -5   1   0  454.05   14.80
   4  -5   0  410.06   14.20
   1   4   0  446.06   13.00
  -4   5   0  459.05   15.50
   5  -1   0  472.05   12.80
   5  -1   0  476.25   15.00
  -1  -4   0  470.85   13.00
  -5   4   0  325.37   12.20
   4   1   0  335.77   12.40
   1  -5   0  320.67   11.60
  -5   4   0  326.07   13.40
   5  -4   0  293.87   11.50
  -1   5   0  276.47   11.40
  -4  -1   0  276.67   11.80
  -6   3   0 9499.85  182.88
   3   3   0 9999.00  183.78
  -6   3   0 9602.94  181.08
   6  -3   0 9400.86  177.68
  -3  -3   0 9538.95  179.48
  -3   6   0 9318.67  178.88
   6  -3   0 9687.63  179.28
   0  -6   0 1344.27   30.80
  -6   6   0 1375.26   32.80
   6   0   0 1289.37   32.30
  -6   0   0  942.51   25.90
   0   6   0  938.61   24.50
   6  -6   0 1012.90   26.40
  -7   2   0 5522.15  105.99
  -7   2   0 5204.58  101.89
   5  -7   0 5232.58  105.69
   2   5   0 5202.78  102.69
   2   5   0 5571.74  107.19
   7  -2   0 5875.91  112.29
  -5   7   0 5583.14  110.99
   7  -2   0 5436.66  107.99
  -7   5   0 6180.68  120.19
   2  -7   0 6227.78  120.29
  -7   5   0 6204.78  121.59
   7  -5   0 6039.60  120.39
  -5  -2   0 6394.86  121.59
  -2   7   0 6172.88  120.69
   7  -8   0 1045.80   29.50
   1   7   0 1092.59   28.00
  -8   1   0 1070.09   29.60
   8  -1   0 1020.60   28.30
  -7   8   0 1028.30   28.90
   8  -1   0 1007.80   24.70
  -1  -7   0  938.01   27.70
   4   4   0 1841.62   44.40
  -8   4   0 1926.41   44.60
   4  -8   0 1867.21   43.60
  -8   4   0 1916.71   41.90
  -4   8   0 1961.80   45.30
   8  -4   0 1990.10   45.40
  -4  -4   0 1966.50   45.60
   8  -4   0 1875.41   46.90
   7   1   0  324.67   15.50
   1  -8   0  327.97   14.20
  -8   7   0  337.07   17.20
  -8   7   0  329.57   15.70
   8  -7   0  365.76   16.30
  -1   8   0  349.87   15.60
  -7  -1   0  345.77   16.70
   6  -9   0 3707.63   79.09
  -9   3   0 3773.12   74.89
  -9   3   0 3769.82   79.29
   3   6   0 3792.32   80.49
   3   6   0 3695.43   75.49
   9  -3   0 3951.00   86.49
   9  -3   0 4271.77   85.99
  -6   9   0 4146.39   86.19
   3  -9   0 3442.36   72.59
  -9   6   0 3349.17   71.79
   6   3   0 3560.64   74.29
  -9   6   0 3452.15   74.19
  -3   9   0 3113.39   66.09
  -6  -3   0 3004.60   66.19
   9  -6   0 2986.80   65.09
   9   0   0 1247.78   34.80
   9   0   0 1245.38   30.00
  -9   9   0 1250.87   34.80
   0  -9   0 1255.47   32.10
   0   9   0 1019.70   29.30
  -9   0   0 1016.30   30.80
   9  -9   0 1052.09   30.70
   8 -10   0 1957.00   48.00
   2   8   0 1923.11   45.00
 -10   2   0 1965.50   48.30
  -8  10   0 2132.29   51.49
  10  -2   0 2164.58   47.60
  10  -2   0 2103.59   51.09
   5 -10   0  581.34   21.30
 -10   5   0  610.24   20.20
   5   5   0  639.94   23.30
 -10   5   0  620.74   23.00
  10  -5   0  607.24   20.70
  -5  10   0  616.44   23.60
  -5  -5   0  617.04   22.90
  10  -5   0  608.04   22.30
   8   2   0 1169.08   33.50
 -10   8   0 1100.49   32.30
   2 -10   0 1183.48   31.60
 -10   8   0 1183.88   34.80
  10  -8   0 1045.60   30.90
  -8  -2   0 1064.79   31.90
  -2  10   0 1051.29   30.60
   1  10   0   20.10    8.50
 -11   1   0   20.30    9.10
  10 -11   0   24.40    7.30
  11  -1   0   32.20    6.40
 -10  11   0   25.80    9.00
  11  -1   0   28.90    8.80
  -1 -10   0   36.90    7.50
 -11   4   0   49.00   10.00
   4   7   0   50.59    7.70
   4   7   0   55.89    9.90
   7 -11   0   46.00    8.50
 -11   4   0   56.39    7.70
  11  -4   0   36.00    7.90
  11  -4   0   35.80    6.60
  -7  11   0   42.80    9.60
   7   4   0  340.47   18.10
 -11   7   0  328.97   16.80
 -11   7   0  324.47   18.90
   4 -11   0  324.17   16.30
  -7  -4   0  279.27   17.80
  -4  11   0  317.47   18.20
  11  -7   0  295.27   15.70
 -11  10   0  227.78   17.20
  10   1   0  197.68   15.60
   1 -11   0  217.18   13.90
 -11  10   0  248.38   19.30
 -10  -1   0  227.58   17.80
  11 -10   0  247.38   16.50
  -1  11   0  245.58   17.20
   9 -12   0 1008.00   32.00
   3   9   0  992.90   29.30
 -12   3   0  984.20   32.60
   3   9   0  958.70   33.50
  12  -3   0  894.41   30.40
  -9  12   0  875.01   31.20
  12  -3   0  942.01   27.30
 -12   6   0 2020.90   48.10
 -12   6   0 2054.99   52.29
   6   6   0 2110.19   52.99
   6 -12   0 2097.39   51.09
  -6  12   0 2093.59   53.19
  12  -6   0 2130.69   50.59
  12  -6   0 2099.09   52.59
   3 -12   0  532.85   21.60
   9   3   0  513.35   22.90
 -12   9   0  536.95   24.60
 -12   9   0  559.14   23.00
  -9  -3   0  596.04   25.00
  -3  12   0  627.64   25.40
  12  -9   0  614.54   24.30
   0 -12   0  445.96   19.30
  12   0   0  457.65   17.80
 -12  12   0  478.45   23.60
  12   0   0  441.06   22.40
  12 -12   0  347.97   20.10
   0  12   0  394.96   21.40
 -12   0   0  373.26   22.40
  11 -13   0  367.46   21.10
 -13   2   0  356.66   22.10
   2  11   0  349.07   20.00
  13  -2   0  306.07   19.70
  -2 -11   0  283.77   15.20
 -11  13   0  322.47   21.70
  13  -2   0  299.37   15.80
 -13   5   0  736.23   28.80
 -13   5   0  764.92   23.80
   8 -13   0  755.92   27.90
   5   8   0  781.52   25.10
   5   8   0  779.82   29.90
  13  -5   0  713.03   24.30
  13  -5   0  685.93   26.60
  -8  13   0  728.83   28.40
 -13   8   0 1305.87   36.20
 -13   8   0 1314.57   39.80
   5 -13   0 1228.18   36.50
   8   5   0 1278.07   38.90
  -5  13   0 1330.87   39.40
  -8  -5   0 1306.17   39.40
  13  -8   0 1308.97   37.40
   2 -13   0  156.98   14.40
  11   2   0  151.68   16.30
 -13  11   0  172.18   17.60
 -13  11   0  208.18   20.30
  13 -11   0  191.48   17.20
  -2  13   0  192.78   18.20
 -11  -2   0  195.68   19.00
   1  13   0   27.90   10.90
  13 -14   0    9.00    8.40
 -14   1   0   13.50   11.40
 -13  14   0   10.90   10.30
  14  -1   0   14.10    9.70
  14  -1   0   11.10    6.60
  -1 -13   0   19.30    7.80
   4  10   0  183.38   18.80
  10 -14   0  167.58   16.70
 -14   4   0  169.38   18.90
   4  10   0  164.08   15.80
  14  -4   0  133.99   12.10
 -10  14   0  196.08   19.70
  14  -4   0  191.78   17.30
   7   7   0   13.70    9.80
   7 -14   0    9.20    7.10
 -14   7   0    7.00    7.90
 -14   7   0   14.70   10.30
  14  -7   0   21.20    7.80
  14  -7   0    8.10    8.60
  -7  14   0   15.80   10.60
   4 -14   0   52.29   10.70
 -14  10   0   42.50   12.80
  10   4   0   40.60   11.00
 -14  10   0   37.40   10.20
  14 -10   0   45.00    9.70
  -4  14   0   43.90   11.20
 -10  -4   0   36.10   10.80
   1 -14   0  367.46   19.60
  13   1   0  393.36   22.80
 -14  13   0  374.16   23.50
 -14  13   0  341.27   24.70
  13   1   0  394.36   17.10
  -1  14   0  406.56   24.20
 -13  -1   0  365.06   24.00
  14 -13   0  397.76   22.10
   3  12   0  198.88   20.40
  12 -15   0  183.38   18.20
   3  12   0  191.38   17.70
 -15   3   0  173.18   20.30
  15  -3   0  190.68   18.50
  15  -3   0  197.18   15.20
 -12  15   0  203.18   21.30
 -15   6   0  574.64   21.90
   6   9   0  566.74   27.30
   9 -15   0  563.84   25.80
   6   9   0  556.34   23.20
 -15   6   0  562.24   27.40
  15  -6   0  585.84   23.40
  -9  15   0  563.44   27.60
  15  -6   0  565.64   26.60
   6 -15   0  160.48   15.80
   9   6   0  190.38   18.60
 -15   9   0  151.28   16.40
 -15   9   0  146.29   16.50
  -9  -6   0  154.88   19.10
  -6  15   0  125.49   15.40
  15  -9   0  131.89   14.90
 -15  12   0  463.75   27.00
  12   3   0  453.95   24.30
 -15  12   0  446.76   24.10
   3 -15   0  436.66   22.30
 -12  -3   0  402.76   24.60
  15 -12   0  360.96   21.90
  -3  15   0  400.66   24.40
  15   0   0  668.93   24.40
 -15  15   0  724.03   31.80
 -15  15   0  722.63   34.70
   0 -15   0  726.13   27.20
  15   0   0  674.93   30.20
   0  15   0  671.23   30.80
  15 -15   0  683.13   30.00
 -15   0   0  702.93   32.50
  14 -16   0  301.97   22.80
 -16   2   0  298.67   24.10
   2  14   0  275.87   24.50
   2  14   0  277.67   22.30
  16  -2   0  289.17   21.90
 -14  16   0  261.67   24.20
  16  -2   0  278.17   17.10
  11 -16   0  739.23   30.50
   5  11   0  746.83   28.60
 -16   5   0  753.72   32.40
   5  11   0  747.33   33.40
 -11  16   0  868.61   34.90
  16  -5   0  812.42   28.10
  16  -5   0  847.82   32.40
   8   8   0  258.97   22.00
   8   8   0  298.77   19.10
 -16   8   0  285.87   22.90
 -16   8   0  263.97   18.30
   8 -16   0  258.07   19.00
  -8  16   0  275.07   24.10
  16  -8   0  293.07   18.70
  16  -8   0  299.97   21.40
   5 -16   0  661.53   27.70
 -16  11   0  703.13   28.90
 -16  11   0  686.43   31.30
  11   5   0  685.33   30.30
  -5  16   0  588.74   29.00
  16 -11   0  641.24   27.80
 -11  -5   0  617.74   29.30
 -16  14   0  563.24   31.40
   2 -16   0  556.44   24.90
  14   2   0  520.05   27.20
 -16  14   0  527.85   28.30
  14   2   0  557.64   21.70
 -14  -2   0  542.15   29.30
  -2  16   0  543.85   29.50
  16 -14   0  540.15   27.20
 -17   1   0  147.89   19.50
  16 -17   0  146.69   19.00
   1  16   0  142.69   17.30
  -1 -16   0  133.49   15.80
 -16  17   0  131.19   17.90
  17  -1   0  148.19   15.20
  17  -1   0  155.28   18.70
   4  13   0  159.28   20.00
  13 -17   0  152.28   18.70
   4  13   0  153.98   18.90
 -17   4   0  173.88   20.10
  17  -4   0  203.68   20.70
  17  -4   0  126.69   14.30
 -13  17   0  199.98   22.60
   7  10   0  460.15   27.80
  10 -17   0  459.85   24.70
   7  10   0  471.35   24.10
 -17   7   0  443.26   21.30
 -17   7   0  452.05   27.70
  17  -7   0  422.56   21.40
  17  -7   0  422.76   24.80
 -10  17   0  399.06   26.30
 -17  10   0  326.57   21.70
  10   7   0  305.07   23.40
   7 -17   0  313.47   20.60
 -17  10   0  325.27   24.30
 -10  -7   0  378.96   25.40
  -7  17   0  349.07   25.70
  17 -10   0  357.46   21.30
  13   4   0  168.48   19.60
   4 -17   0  158.98   17.80
 -17  13   0  160.48   19.80
 -17  13   0  104.19   15.30
  17 -13   0  149.59   18.50
 -13  -4   0  121.79   17.50
  -4  17   0  168.58   21.40
   1 -17   0  456.85   23.90
  16   1   0  508.85   28.30
 -17  16   0  463.55   31.00
  16   1   0  488.35   21.90
 -17  16   0  445.66   28.40
  -1  17   0  510.35   29.70
  17 -16   0  472.65   26.90
 -16  -1   0  474.15   30.80
  15 -18   0  787.82   34.80
 -18   3   0  773.22   37.00
   3  15   0  778.52   37.70
   3  15   0  763.62   34.40
  18  -3   0  758.72   34.50
  18  -3   0  726.03   28.30
 -15  18   0  694.33   35.40
 -18   6   0  108.39   17.00
  12 -18   0  119.79   16.10
   6  12   0  108.09   16.00
   6  12   0   96.99   16.80
 -12  18   0   94.49   15.20
  18  -6   0  108.79   15.20
  18  -6   0  110.29   14.40
   9   9   0   89.39   14.10
 -18   9   0   85.99   13.20
   9   9   0   81.29   15.90
   9 -18   0   81.69   12.60
 -18   9   0   97.09   17.10
  -9  18   0   81.59   17.30
  18  -9   0  101.99   16.70
  18  -9   0   89.59   12.60
 -18  12   0   90.09   16.70
 -18  12   0  155.38   19.60
  12   6   0  131.79   17.80
   6 -18   0  100.99   14.30
 -12  -6   0  115.29   16.80
  -6  18   0   99.89   16.30
  18 -12   0  138.89   18.50
 -18  15   0  891.41   40.10
 -18  15   0  954.90   38.40
   3 -18   0  968.00   34.70
  15   3   0  916.91   37.20
  -3  18   0 1038.50   41.40
  18 -15   0  998.90   39.00
 -15  -3   0 1033.30   41.60
   0 -18   0  383.76   23.20
 -18  18   0  400.66   30.40
  18   0   0  372.86   21.20
 -18  18   0  364.96   33.20
  18   0   0  398.06   28.00
 -18   0   0  411.16   31.40
   0  18   0  378.36   29.60
 -19   2   0   26.20   16.00
  17 -19   0   42.80   16.50
   2  17   0   26.90   16.60
   2  17   0   22.30   15.60
  19  -2   0   32.00   10.90
 -17  19   0   24.30   14.90
  19  -2   0   32.20   14.40
 -19   5   0   60.99   16.70
  14 -19   0   64.39   15.20
   5  14   0   58.99   16.30
   5  14   0   99.19   18.10
 -14  19   0   62.59   17.50
  19  -5   0   57.09   13.60
  19  -5   0   44.90    9.50
 -19   8   0  360.76   28.30
 -19   8   0  383.76   22.70
  11 -19   0  430.76   25.60
   8  11   0  353.86   28.00
   8  11   0  373.66   25.50
 -11  19   0  386.66   28.70
  19  -8   0  313.37   24.80
  19  -8   0  379.76   22.70
   8 -19   0  170.38   19.40
  11   8   0  204.28   22.90
 -19  11   0  193.78   24.90
 -19  11   0  180.48   21.50
  -8  19   0  227.98   26.00
  19 -11   0  240.28   21.00
 -19  14   0  321.27   27.70
 -19  14   0  282.47   27.30
  14   5   0  300.07   25.20
   5 -19   0  249.18   22.40
 -14  -5   0  324.77   28.90
  19 -14   0  342.97   25.00
  -5  19   0  272.67   27.00
   2 -19   0   38.10   11.90
 -19  17   0   27.20   14.80
  17   2   0   33.20   14.60
 -19  17   0   27.80   17.60
  17   2   0   29.20    9.80
  19 -17   0   30.10   12.10
 -17  -2   0   56.69   17.90
  -2  19   0   36.50   15.40
  19 -20   0  447.46   31.10
 -20   1   0  425.66   36.70
   1  19   0  442.16   35.90
   1  19   0  498.65   36.80
  20  -1   0  418.56   25.20
 -19  20   0  462.85   38.90
  20  -1   0  496.75   33.30
 -19  20   0  462.25   34.90
  16 -20   0  582.84   32.40
   4  16   0  592.74   34.80
 -20   4   0  590.84   36.40
   4  16   0  612.54   37.60
  20  -4   0  460.15   24.20
 -16  20   0  485.75   34.60
  20  -4   0  565.74   31.70
   7  13   0 1027.40   38.80
   7  13   0  993.40   42.80
 -20   7   0  981.40   42.20
  13 -20   0 1010.30   40.10
  20  -7   0 1019.70   40.90
 -13  20   0 1110.39   43.90
  20  -7   0 1042.90   37.30
  10 -20   0   83.29   14.90
  10  10   0   49.80   14.80
 -20  10   0   80.89   17.10
 -20  10   0   70.69   13.90
  10  10   0   64.19   15.50
  20 -10   0   24.40   10.80
 -10  20   0   23.20   15.70
 -20  13   0 1212.78   42.60
  13   7   0 1239.88   46.60
   7 -20   0 1238.18   42.80
 -20  13   0 1153.98   47.00
 -13  -7   0 1202.58   46.90
  20 -13   0 1226.38   43.50
  -7  20   0 1230.38   46.70
 -20  16   0  541.95   35.80
   4 -20   0  481.15   27.50
 -20  16   0  500.15   33.00
  16   4   0  484.95   30.70
  -4  20   0  485.95   33.50
 -16  -4   0  497.85   35.00
  20 -16   0  507.95   30.40
  19   1   0  145.69   20.70
 -20  19   0  166.98   24.00
   1 -20   0  168.68   20.80
  19   1   0  138.29   17.70
 -20  19   0  136.99   23.90
 -19  -1   0  157.78   25.10
  20 -19   0  121.59   18.00
  -1  20   0  129.29   21.60
  18 -21   0  311.47   28.00
   3  18   0  327.27   33.10
 -21   3   0  376.96   36.70
   3  18   0  328.27   34.00
 -18  21   0  359.06   41.60
  21  -3   0  341.47   24.40
  21  -3   0  301.27   31.30
  15 -21   0  465.85   29.70
   6  15   0  488.05   33.70
   6  15   0  503.65   32.70
 -21   6   0  491.25   35.70
  21  -6   0  476.35   30.40
 -15  21   0  492.55   35.50
  21  -6   0  558.14   27.50
   9  12   0  198.48   26.70
 -21   9   0  191.08   21.60
 -21   9   0  158.08   22.90
   9  12   0  157.28   19.80
  21  -9   0  198.88   21.10
  21  -9   0  238.38   25.60
 -12  21   0  194.68   24.00
  12   9   0  311.37   28.80
 -21  12   0  345.87   26.70
   9 -21   0  303.57   24.80
 -21  12   0  308.27   30.60
  -9  21   0  308.07   30.70
  21 -12   0  344.77   26.00
 -21  15   0  449.95   35.30
  15   6   0  506.05   32.40
 -21  15   0  536.25   32.90
   6 -21   0  484.15   29.50
  21 -15   0  544.55   31.30
  -6  21   0  482.45   35.00
 -15  -6   0  500.55   34.40
 -21  18   0  399.76   35.10
  18   3   0  385.46   22.70
  18   3   0  372.86   30.10
 -21  18   0  335.27   32.40
   3 -21   0  321.77   25.20
  21 -18   0  334.97   28.00
  -3  21   0  377.56   32.90
 -18  -3   0  400.36   35.70
   0 -21   0 1251.87   42.30
  21   0   0 1281.47   43.10
 -21  21   0 1171.08   55.29
  21   0   0 1264.47   51.29
 -21  21   0 1275.87   58.29
   0  21   0 1278.97   56.59
 -21   0   0 1245.48   56.09
  21 -21   0 1260.87   50.29
   0  21   0 1201.28   86.39
   2  20   0   35.20   19.00
 -22   2   0   52.89   23.90
  20 -22   0   33.10   16.00
   2  20   0   48.50   24.20
 -20  22   0   52.59   22.60
  22  -2   0   65.89   15.90
  22  -2   0   47.60   19.10
 -20  22   0   18.50   18.70
   5  17   0  386.26   34.80
  17 -22   0  447.56   30.40
 -22   5   0  391.76   38.30
   5  17   0  370.36   34.30
  22  -5   0  395.26   30.20
 -17  22   0  399.26   36.50
  22  -5   0  353.16   23.90
 -22   8   0   77.19   20.70
   8  14   0   60.69   20.10
  14 -22   0   46.80   13.80
   8  14   0   67.99   18.00
 -14  22   0   88.49   19.80
  22  -8   0   92.99   17.90
  22  -8   0   83.59   14.90
 -22  11   0   45.00   14.70
  11 -22   0   34.10   12.20
  11  11   0   24.70   16.00
 -22  11   0   42.50   18.00
  11  11   0   23.00   16.40
  22 -11   0   42.00   12.70
 -22  14   0  251.97   28.50
  14   8   0  190.68   23.70
 -22  14   0  214.78   26.20
   8 -22   0  228.58   29.20
  -8  22   0  131.59   40.10
  22 -14   0  214.18   24.90
 -22  17   0  207.08   27.50
 -22  17   0  333.47   34.90
  17   5   0  241.88   27.10
   5 -22   0  202.38   23.90
  -5  22   0  174.58   25.40
 -17  -5   0  236.98   28.50
  22 -17   0  192.28   23.10
  20   2   0   53.19   19.70
   2 -22   0   63.69   15.10
 -22  20   0   69.09   21.10
 -22  20   0   59.99   24.60
  20   2   0   32.70   11.70
 -20  -2   0   57.89   23.50
  -2  22   0   31.30   19.90
  22 -20   0   15.90   15.30
   1  22   0  357.16   35.90
 -23   1   0  306.17   35.90
   1  22   0  402.46   40.40
  22 -23   0  394.36   34.40
  23  -1   0  272.17   35.80
 -22  23   0  399.36   42.00
  23  -1   0  308.87   28.70
 -22  23   0  307.87   39.90
 -23   4   0  609.94   45.20
   4  19   0  582.14   41.80
   4  19   0  658.13   43.80
  23  -4   0  597.94   37.60
 -19  23   0  667.43   42.40
  23  -4   0  563.04   28.80
 -23   7   0  480.45   41.30
   7  16   0  490.45   36.20
  16 -23   0  527.05   32.80
   7  16   0  484.95   37.70
  23  -7   0  602.14   31.80
 -16  23   0  573.04   40.00
  23  -7   0  572.44   36.20
  13 -23   0  514.55   31.60
  10  13   0  574.14   35.10
 -23  10   0  581.34   29.60
 -23  10   0  569.74   42.10
 -13  23   0  584.54   40.80
  23 -10   0  622.64   36.30
  23 -10   0  572.04   32.00
 -23  13   0  772.12   37.00
  13  10   0  769.42   40.70
  10 -23   0  775.62   37.40
  13  10   0  762.32   36.60
 -23  13   0  764.12   44.10
 -10  23   0  816.12   45.00
  23 -13   0  866.21   39.40
 -23  16   0  311.37   32.60
  16   7   0  320.47   31.80
 -23  16   0  276.97   35.00
   7 -23   0  321.97   28.10
 -16  -7   0  301.17   36.40
  -7  23   0  222.28   26.60
  23 -16   0  211.78   26.80
  19   4   0  943.51   45.50
  19   4   0  994.40   36.90
 -23  19   0  909.11   50.19
 -23  19   0  986.30   50.89
   4 -23   0  961.90   39.90
  23 -19   0  941.41   43.40
 -19  -4   0  868.01   51.29
  -4  23   0  948.01   47.70
 -23  22   0  326.87   43.00
  22   1   0  382.36   28.30
  22   1   0  374.86   36.40
 -23  22   0  355.46   41.70
   1 -23   0  312.37   27.90
  -1  23   0  340.57   45.40
  -1  23   0  396.56   40.90
 -22  -1   0  399.66   45.30
  23 -22   0  384.56   33.60
   3  21   0  722.83   48.70
   3  21   0  717.63   49.60
 -24   3   0  668.63   49.60
 -21  24   0  653.43   44.80
 -21  24   0  643.74   51.29
  24  -3   0  576.14   33.00
  24  -3   0  707.53   44.50
   6  18   0  274.47   30.00
   6  18   0  261.67   31.20
 -24   6   0  268.97   34.00
  24  -6   0  277.37   31.70
  24  -6   0  320.07   26.50
 -18  24   0  231.28   30.20
   9  15   0  370.56   35.50
 -24   9   0  405.56   41.30
   9  15   0  381.86   34.60
  15 -24   0  355.26   28.80
  24  -9   0  307.77   32.90
  24  -9   0  371.46   28.50
 -15  24   0  283.07   37.50
  12  12   0  265.37   30.10
  12  12   0  179.08   24.50
 -24  12   0  187.38   28.40
 -24  12   0  183.28   20.70
  12 -24   0  208.08   24.10
 -12  24   0  179.58   28.90
  24 -12   0  149.88   21.00
 -24  15   0  180.78   24.10
   9 -24   0  213.48   26.60
 -24  15   0  179.78   28.40
  24 -15   0  385.76   31.30
  -9  24   0  320.27   36.40
   6 -24   0  355.96   28.70
 -24  18   0  301.97   34.30
 -24  18   0  453.25   37.70
  24 -18   0  331.17   29.90
  -6  24   0  225.48   29.00
 -18  -6   0  306.47   34.10
 -24  21   0  617.24   48.20
   3 -24   0  586.44   35.60
  21   3   0  541.85   40.40
 -24  21   0  547.85   48.40
  21   3   0  571.94   30.90
 -21  -3   0  609.64   50.89
  24 -21   0  570.34   36.90
  -3  24   0  648.24   45.90
 -24  24   0  590.64   55.09
  24   0   0  634.74   36.60
  24   0   0  642.14   45.10
 -24  24   0  653.03   53.79
 -24   0   0  573.44   53.19
  24 -24   0  589.14   42.40
   0  24   0  578.94   53.89
   0  24   0  565.34   51.39
  23 -25   0  139.49   27.60
   2  23   0  201.38   34.10
 -25   2   0  129.99   33.00
   2  23   0  234.18   36.00
 -23  25   0  190.48   33.90
  25  -2   0  246.88   30.20
 -23  25   0  190.68   34.20
   5  20   0   32.80   23.80
   5  20   0    7.70   21.20
 -25   5   0   46.80   28.00
 -20  25   0   34.70   24.00
  25  -5   0   29.60   18.70
  25  -5   0   40.60   15.40
 -25   8   0    3.70   23.80
   8  17   0   36.10   21.90
   8  17   0   24.60   20.80
  25  -8   0   35.10   14.70
 -17  25   0   28.80   22.60
 -25  11   0  297.17   34.50
  14 -25   0  281.47   28.10
 -25  11   0  318.57   27.10
  11  14   0  274.57   33.20
  11  14   0  280.77   36.80
 -14  25   0  304.77   38.60
  11 -25   0  279.77   29.60
 -25  14   0  265.27   30.90
  14  11   0  249.68   25.40
  14  11   0  312.07   33.60
 -25  14   0  238.28   32.50
 -11  25   0  271.47   32.50
  25 -14   0  207.88   24.40
  17   8   0  102.99   23.10
 -25  17   0  142.39   28.80
 -25  17   0  131.59   24.60
   8 -25   0  115.89   19.40
  25 -17   0   96.49   19.30
  -8  25   0  169.38   27.50
 -25  20   0   89.39   29.40
 -25  20   0  117.19   29.80
  20   5   0   49.50   14.70
   5 -25   0   40.00   16.60
  20   5   0   59.69   22.30
  -5  25   0   32.60   22.80
  25 -20   0   19.20   17.00
  23   2   0  147.89   20.10
 -25  23   0  122.09   32.10
  23   2   0  119.39   26.60
   2 -25   0   86.19   22.80
 -25  23   0   99.09   29.80
  25 -23   0  108.89   23.40
  -2  25   0  148.59   33.20
 -23  -2   0  127.29   33.60
   1  25   0  108.29   35.40
 -26   1   0   81.59   35.40
  25 -26   0   92.49   24.50
   1  25   0   64.89   32.80
  26  -1   0   67.29   26.90
 -25  26   0   70.29   36.00
 -25  26   0   80.29   36.30
  26  -1   0  118.89   30.20
   4  22   0  102.19   28.30
   4  22   0   99.79   31.10
 -26   4   0   98.09   33.10
  26  -4   0  102.69   19.00
 -22  26   0  116.19   35.90
 -22  26   0   89.99   29.10
  26  -4   0  111.19   23.40
   7  19   0  397.06   40.10
   7  19   0  399.76   43.90
  26  -7   0  412.76   36.60
  26  -7   0  463.85   39.30
 -19  26   0  358.86   37.40
 -26  10   0  693.33   52.29
  10  16   0  639.64   42.30
  10  16   0  668.93   45.60
  26 -10   0  753.42   40.00
  26 -10   0  729.63   45.00
 -16  26   0  728.33   52.49
  13  13   0  650.43   43.60
 -26  13   0  629.64   35.70
  13 -26   0  597.94   37.60
  13  13   0  618.04   38.40
  26 -13   0  727.63   39.80
 -13  26   0  661.33   51.69
  16  10   0  559.14   36.60
 -26  16   0  558.14   50.09
  16  10   0  567.34   41.70
  10 -26   0  551.54   36.30
 -26  16   0  556.84   40.00
 -10  26   0  554.94   47.20
  26 -16   0  603.14   38.80
 -26  19   0  477.75   49.50
   7 -26   0  482.15   34.30
 -26  19   0  525.65   44.10
  19   7   0  494.15   39.40
  26 -19   0  478.25   36.00
  -7  26   0  518.25   48.30
 -19  -7   0  461.65   49.40
 -26  22   0  209.68   36.70
  22   4   0  180.98   29.80
  22   4   0  163.88   20.60
   4 -26   0  163.48   23.60
 -26  22   0  168.58   36.70
  26 -22   0   85.89   22.30
  -4  26   0   97.39   29.50
 -22  -4   0  153.88   35.20
  25   1   0  113.59   28.60
 -26  25   0   76.29   34.20
 -26  25   0  135.09   40.60
  25   1   0  152.18   24.40
  26 -25   0  114.09   25.70
  -1  26   0   94.49   34.70
  -1  26   0  101.09   36.30
 -25  -1   0   84.59   34.20
  24 -27   0  314.87   40.30
   3  24   0  347.47   42.10
   3  24   0  451.35   51.89
 -27   3   0  378.06   43.30
 -24  27   0  335.67   41.20
  27  -3   0  265.87   32.60
  27  -3   0  216.88   28.00
   6  21   0  245.68   34.00
   6  21   0  294.37   34.80
 -27   6   0  388.36   52.39
 -21  27   0  369.86   48.90
  27  -6   0  299.37   31.30
  27  -6   0  301.27   39.60
   9  18   0  352.06   42.50
   9  18   0  347.27   42.10
 -27   9   0  347.57   39.80
 -18  27   0  328.77   38.10
  27  -9   0  324.07   39.30
  27  -9   0  369.56   33.10
 -27  12   0    9.00   26.80
  12  15   0   66.19   25.50
  12  15   0   11.80   21.10
 -15  27   0   54.49   29.00
  27 -12   0    1.70   15.10
  15  12   0   46.60   22.90
 -27  15   0   34.10   29.40
  12 -27   0    7.80   16.50
 -27  15   0   27.10   19.70
  15  12   0   10.00   20.40
 -12  27   0   45.00   27.60
  27 -15   0   27.00   18.40
 -27  18   0  371.06   41.10
  18   9   0  490.05   43.20
 -27  18   0  354.56   40.50
   9 -27   0  421.76   34.80
  27 -18   0  333.87   36.20
  -9  27   0  407.96   48.50
 -27  21   0  280.07   43.60
  21   6   0  331.77   42.50
   6 -27   0  329.47   32.80
 -27  21   0  340.17   37.60
  21   6   0  323.07   30.70
  -6  27   0  409.56   50.79
  27 -21   0  370.46   36.90
 -21  -6   0  373.36   42.00
  24   3   0  367.46   44.90
   3 -27   0  384.86   35.10
 -27  24   0  324.17   45.50
  24   3   0  398.66   35.80
 -27  24   0  378.86   44.30
  27 -24   0  414.76   43.20
 -24  -3   0  319.97   43.10
  -3  27   0  317.37   42.90
 -27  27   0  226.18   43.00
  27   0   0  221.48   29.10
  27   0   0  245.58   38.50
 -27  27   0  250.27   50.69
  27 -27   0  247.48   34.50
 -27   0   0  308.97   44.30
   0  27   0  179.38   38.00
   0  27   0  240.88   44.50
  26 -28   0  115.59   28.90
   2  26   0  189.58   41.20
 -28   2   0  152.58   41.20
   2  26   0  128.19   39.40
  28  -2   0  150.48   31.00
  28  -2   0   68.89   22.10
 -26  28   0  102.29   44.00
 -26  28   0  152.28   41.70
  23 -28   0  177.58   31.40
 -28   5   0  148.79   35.90
   5  23   0  183.58   34.70
   5  23   0  159.08   36.10
  28  -5   0  161.18   24.10
 -23  28   0  103.69   33.50
 -23  28   0  133.79   36.30
  28  -5   0  179.78   28.70
   8  20   0  257.37   34.20
 -28   8   0  218.28   39.00
  20 -28   0  333.67   37.00
   8  20   0  228.88   36.30
  28  -8   0  234.98   27.50
  28  -8   0  203.58   30.50
 -20  28   0  255.17   38.10
  11  17   0  273.57   34.00
 -28  11   0  301.27   41.40
  17 -28   0  298.07   31.70
  11  17   0  343.37   45.10
 -17  28   0  336.97   41.20
  28 -11   0  316.47   32.90
  14  14   0  271.87   29.50
 -28  14   0  236.58   38.20
 -28  14   0  311.37   33.00
  14  14   0  256.27   34.10
 -14  28   0  263.37   37.60
  28 -14   0  285.67   35.70
 -28  17   0  252.17   28.90
  17  11   0  259.47   30.90
  17  11   0  181.78   30.20
 -28  17   0  237.98   38.60
  28 -17   0  235.28   28.00
 -11  28   0  259.87   35.20
  20   8   0  270.07   33.60
   8 -28   0  270.27   33.40
 -28  20   0  292.67   47.50
 -28  20   0  224.18   40.40
  20   8   0  230.88   31.00
  -8  28   0  295.57   37.40
  28 -20   0  250.97   29.80
  23   5   0  105.69   29.80
   5 -28   0  144.99   23.70
 -28  23   0   35.60   38.50
 -28  23   0  176.38   33.20
  23   5   0   98.79   21.90
 -23  -5   0  120.49   36.50
  -5  28   0  114.79   36.70
  28 -23   0   91.59   23.60
 -28  26   0  143.09   48.30
  26   2   0  163.68   27.10
  26   2   0  134.09   33.60
 -28  26   0  140.29   43.20
  -2  28   0   76.59   36.50
  -2  28   0  120.79   41.90
 -26  -2   0  105.19   41.00
 -29   1   0   51.89   39.70
   1  28   0   -2.50   41.90
 -28  29   0   -7.80   43.00
 -28  29   0  -19.50   52.49
  29  -1   0   -1.00   32.20
 -29   4   0   -9.70   34.80
   4  25   0   -0.20   32.90
  25 -29   0  -15.90   20.50
   4  25   0   -3.40   30.50
 -25  29   0    9.50   38.60
  29  -4   0  -57.39   23.20
  29  -4   0   74.69   22.80
 -25  29   0   35.30   36.30
   7  22   0  142.69   31.50
 -29   7   0  106.89   36.70
   7  22   0   96.49   34.80
  22 -29   0   98.29   24.40
 -22  29   0  134.29   35.20
  29  -7   0  163.58   31.70
  29  -7   0   88.59   22.80
  10  19   0  563.74   54.69
  10  19   0  575.94   48.80
  19 -29   0  608.74   44.30
 -29  10   0  584.14   60.39
  29 -10   0  591.44   41.40
  29 -10   0  560.74   48.30
 -19  29   0  594.44   56.79
 -29  13   0  401.16   45.40
  16 -29   0  377.96   39.30
  13  16   0  453.85   46.50
  13  16   0  353.06   39.50
 -16  29   0  389.06   46.20
  29 -13   0  542.55   41.90
  16  13   0  530.95   49.60
  16  13   0  551.14   49.40
 -29  16   0  601.94   40.00
 -29  16   0  551.14   62.09
  29 -16   0  536.25   45.00
 -13  29   0  510.75   58.09
 -29  19   0  444.26   60.39
 -29  19   0  522.35   46.80
  19  10   0  490.05   48.40
  19  10   0  375.36   43.90
  29 -19   0  459.25   42.10
 -10  29   0  502.85   57.79
  22   7   0  163.58   32.80
  22   7   0  172.08   25.30
 -29  22   0  180.18   42.10
 -29  22   0  132.09   32.20
  -7  29   0  155.58   35.90
  29 -22   0  135.09   25.60
  25   4   0   15.20   29.30
 -29  25   0  -11.70   43.00
 -29  25   0   93.79   37.40
  25   4   0   30.50   22.30
   4 -29   0    2.40   20.00
  29 -25   0   50.79   26.20
  -4  29   0   -0.70   34.60
 -25  -4   0   -0.60   36.00
  -4  29   0  -13.30   42.70
 -29  28   0   78.69   52.49
  28   1   0   18.40   37.40
  28   1   0   44.10   26.90
 -29  28   0  -48.00   44.90
  -1  29   0   -5.60   42.40
 -28  -1   0  -17.80   43.20
  -1  29   0   11.10   44.90
   3  27   0   92.99   42.90
 -30   6   0  150.08   42.30
   6  24   0  175.88   40.10
   6  24   0  145.09   38.10
 -24  30   0  103.99   39.20
  30  -6   0  224.18   36.40
  30  -6   0  154.38   28.60
 -24  30   0  133.99   45.20
 -30   9   0  274.57   45.00
  21 -30   0  391.36   44.50
   9  21   0  291.47   41.90
   9  21   0  362.96   41.40
  30  -9   0  362.96   48.50
  30  -9   0  402.06   40.80
 -21  30   0  355.06   44.80
  18 -30   0   93.49   25.40
  12  18   0   57.49   32.80
 -30  12   0   19.30   35.90
  12  18   0  106.59   35.80
 -18  30   0   95.59   34.50
  30 -12   0   36.60   21.40
  15 -30   0  138.89   28.00
  15  15   0   71.69   32.50
 -30  15   0   93.49   39.70
 -30  15   0  153.68   21.60
  15  15   0  133.39   32.80
  30 -15   0  154.38   28.20
 -15  30   0   86.39   31.10
  12 -30   0   86.29   24.10
 -30  18   0  120.89   40.70
  18  12   0   84.49   33.30
  18  12   0  114.39   30.70
 -30  18   0  123.79   26.10
 -12  30   0  117.19   36.30
  30 -18   0  127.39   28.40
  21   9   0  125.09   40.70
 -30  21   0  186.58   43.70
  21   9   0  175.58   33.30
 -30  21   0  225.28   35.10
  30 -21   0  127.09   27.20
  -9  30   0  166.88   39.30
  24   6   0  113.09   26.00
 -30  24   0  150.48   46.70
 -30  24   0  100.89   36.20
  -6  30   0  107.09   40.50
  30 -24   0   74.19   26.40
 -24  -6   0  101.49   41.70
 -31   8   0  149.79   43.90
   8  23   0  141.69   40.10
  23 -31   0  126.19   22.20
   8  23   0  142.39   41.20
  31  -8   0  141.09   29.20
 -23  31   0  164.48   42.70
  31  -8   0  135.89   34.70
 -23  31   0  193.58   47.30
 -31  11   0  182.38   43.70
  11  20   0  232.68   39.90
  11  20   0  238.48   44.20
  20 -31   0  193.88   31.50
 -20  31   0  184.88   42.90
  31 -11   0  199.08   30.20
  17 -31   0  123.79   29.30
  14  17   0  170.18   37.10
 -31  14   0  123.39   39.10
  14  17   0  118.09   34.70
  31 -14   0  100.59   28.90
 -17  31   0  109.49   42.90
  17  14   0  271.17   37.60
 -31  17   0  243.98   45.70
  17  14   0  231.78   37.50
  14 -31   0  299.37   35.30
 -31  17   0  232.18   28.80
  31 -17   0  350.56   39.20
 -14  31   0  268.57   47.10
  20  11   0  188.78   35.60
  11 -31   0  198.98   29.10
 -31  20   0  201.28   31.10
  20  11   0  107.79   34.10
 -31  20   0  144.99   44.30
 -11  31   0  241.98   43.10
  31 -20   0  205.08   32.20
  23   8   0   83.89   34.00
 -31  23   0   71.79   46.90
 -31  23   0   66.09   33.60
  23   8   0   75.89   26.60
  31 -23   0   56.29   25.60
  -8  31   0   75.39   39.30
  10  22   0  194.18   45.30
  10  22   0  127.29   42.60
 -32  10   0  201.68   47.20
 -22  32   0  176.68   42.70
  32 -10   0  142.29   31.60
  32 -10   0   62.49   35.40
  13  19   0  232.98   44.90
  13  19   0  247.08   41.20
  19 -32   0  199.98   32.50
 -32  13   0  225.18   48.40
  32 -13   0  256.67   35.60
 -19  32   0  252.07   44.60
  16  16   0  385.06   47.90
 -32  16   0  421.46   50.69
  16  16   0  382.86   42.70
  16 -32   0  381.56   49.90
 -16  32   0  298.17   49.60
  13 -32   0  260.77   35.30
 -32  19   0  334.07   53.09
  19  13   0  387.26   43.60
  19  13   0  344.97   44.80
 -32  19   0  376.76   44.70
  32 -19   0  296.67   38.80
 -13  32   0  290.07   45.90
  22  10   0  273.67   44.10
 -32  22   0  257.17   53.09
  10 -32   0  241.18   33.30
  22  10   0  294.77   42.40
 -32  22   0  260.87   36.90
  22  10   0  208.08   30.60
 -10  32   0  277.77   43.50
  32 -22   0  196.48   33.60
   1   0   1   99.99    5.50
   0  -1   1   84.79    7.40
   3  -2  -1  688.63   18.00
   3  -2  -1  709.03   18.90
  -1   3  -1  724.73   18.00
   1  -3   1  720.73   18.10
  -3   2   1  705.43   18.30
  -3   2   1  709.73   19.30
   0  -2  -1   52.39    4.00
  -2   2  -1   38.30    4.20
   2   0  -1   48.50    5.20
   2   0  -1   43.90    5.80
  -2   0   1   37.20    4.70
   2  -2   1   48.40    4.40
  -2   0   1   49.70    5.40
   0   2   1   46.40    3.90
   5  -3  -1  385.26   14.30
  -2   5  -1  404.76   14.40
   5  -3  -1  423.26   16.50
   3   2   1  446.86   12.70
  -5   3   1  444.66   15.50
   2  -5   1  458.95   17.40
  -5   3   1  413.46   16.50
   1   2  -1  419.36   12.70
   1   2  -1  408.16   13.40
   2  -3  -1  403.36   12.10
  -1  -2   1  390.56   13.20
  -2   3   1  378.06   12.00
   3  -1   1  380.06    8.70
  -2   3   1  382.86   12.80
   4  -1  -1  563.04   17.70
   4  -1  -1  550.94   16.30
  -3   4  -1  543.75   15.80
  -4   1   1  636.94   17.50
   1   3   1  610.94   13.50
  -4   1   1  609.74   19.00
   3  -4   1  599.14   16.90
   7  -4  -1 4558.94   93.29
   7  -4  -1 4485.15   91.39
  -3   7  -1 4556.44   91.39
   4   3   1 4317.17   86.39
  -7   4   1 4404.06   90.99
   3  -7   1 4335.17   88.59
  -7   4   1 4491.15   88.99
  -4   0  -1   79.29    5.20
   0   4  -1   70.59    8.70
   0   4  -1   80.99    8.60
   4  -4  -1   66.99    7.90
  -4   4   1   73.29    9.70
   4   0   1   84.59    6.10
  -4   4   1   68.99    8.60
   0  -4   1   81.29    7.80
   1  -4  -1   82.79    6.30
   3   1  -1   67.09    8.30
  -4   3  -1   80.29    6.50
   4  -3   1   98.59    6.70
  -3  -1   1  105.29    9.40
  -1   4   1  100.49    7.30
  -4   6  -1  421.86   16.00
   6  -2  -1  448.86   23.00
   6  -2  -1  456.15   17.90
   4  -6   1  511.85   17.20
   2   4   1  507.95   12.50
  -6   2   1  516.25   17.20
  -6   2   1  528.05   19.70
   9  -5  -1 2792.12   62.59
  -4   9  -1 2873.11   63.39
   9  -5  -1 2862.01   64.99
   5   4   1 2876.21   61.29
  -9   5   1 2829.32   65.19
   4  -9   1 2840.12   62.89
  -9   5   1 2861.91   62.59
  -1   6  -1 2716.23   58.29
   6  -5  -1 2778.72   60.29
   6  -5  -1 2732.23   58.79
  -5  -1  -1 2770.32   55.29
   5   1   1 2719.73   53.99
  -6   5   1 2550.24   57.19
   1  -6   1 2667.53   56.79
  -6   5   1 2755.32   59.19
   3  -5  -1  285.87   11.90
  -5   2  -1  290.67    9.70
   2   3  -1  320.47   16.70
   2   3  -1  284.37   12.10
   5  -2   1  319.37    9.90
  -2  -3   1  314.37   14.20
  -3   5   1  307.97   13.10
   5  -2   1  276.87    9.90
   5   0  -1   71.69    8.60
   0  -5  -1   69.59    5.90
  -5   5  -1   65.49    8.60
   5   0  -1   68.09    8.10
  -5   0   1   50.19    7.60
   0   5   1   65.09    7.00
   5  -5   1   76.59    8.40
  -5   8  -1 2878.51   63.19
   8  -3  -1 2981.20   65.79
   8  -3  -1 2911.01   62.99
   5  -8   1 2772.42   60.39
  -8   3   1 2743.63   59.19
  -8   3   1 2811.82   62.69
   3   5   1 2720.23   53.99
  -5  11  -1 1306.37   37.20
  11  -6  -1 1289.57   38.30
  11  -6  -1 1283.47   36.10
   6   5   1 1561.64   39.60
 -11   6   1 1504.65   42.80
 -11   6   1 1451.45   39.40
   5 -11   1 1477.75   40.10
   8  -6  -1 3233.88   70.79
  -2   8  -1 3207.88   68.69
  -6  -2  -1 3097.09   65.59
   8  -6  -1 3246.18   69.09
  -8   6   1 3365.46   71.49
   6   2   1 3292.27   68.39
  -8   6   1 3356.56   73.49
   2  -8   1 3375.66   71.19
   5  -6  -1 4247.57   87.59
   1   5  -1 4506.55   87.59
   1   5  -1 4365.26   89.79
  -6   1  -1 4371.56   84.39
   6  -1   1 4378.16   81.79
  -5   6   1 4490.75   89.09
   6  -1   1 4430.56   85.19
  -1  -5   1 4387.06   87.89
   4   2  -1  209.88   13.00
   2  -6  -1  186.18   10.00
  -6   4  -1  183.68    9.40
  -4  -2   1  231.08   13.80
   6  -4   1  217.78   10.50
  -2   6   1  226.18   11.50
   7  -1  -1  145.79   10.40
   7  -1  -1  127.29   12.70
  -1  -6  -1  136.99    6.90
  -6   7  -1  136.69   11.80
  -7   1   1  191.88   14.40
   6  -7   1  167.98   11.90
  -7   1   1  179.68   11.40
   1   6   1  168.68    9.50
  10  -4  -1    5.60    5.50
  10  -4  -1    7.10    7.00
  -6  10  -1   -3.60    6.90
   4   6   1    9.90    6.90
   4   6   1    9.50    4.90
 -10   4   1   10.50    9.00
   6 -10   1   -0.60    6.10
 -10   4   1    6.30    6.30
  13  -7  -1  206.98   18.50
  -6  13  -1  187.78   18.40
  13  -7  -1  197.18   15.90
   6 -13   1  174.48   15.80
   7   6   1  210.28   16.50
 -13   7   1  184.28   16.50
 -13   7   1  169.48   19.20
  -7  -3  -1 1038.60   28.80
  10  -7  -1 1006.80   32.70
  10  -7  -1 1026.60   30.80
 -10   7   1 1071.99   31.60
   3 -10   1 1048.50   30.90
 -10   7   1 1064.59   33.80
   7   3   1 1031.60   29.20
  -7   0  -1  225.68   11.70
   0   7  -1  223.68   13.70
   7  -7  -1  237.08   13.90
   7   0   1  233.08   11.10
  -7   7   1  201.18   15.30
  -7   7   1  232.98   14.60
   0  -7   1  233.08   12.90
   3   4  -1 3105.99   66.69
  -7   3  -1 3089.49   61.69
  -7   3  -1 2980.90   58.79
   4  -7  -1 3011.80   63.79
   7  -3   1 2931.61   59.99
  -4   7   1 3053.09   64.39
   7  -3   1 3003.30   61.09
  -3  -4   1 3124.29   66.39
   1  -7  -1  322.97   12.80
  -7   6  -1  324.87   14.00
   6   1  -1  327.47   16.40
   7  -6   1  279.97   13.20
  -1   7   1  267.37   12.70
  -6  -1   1  242.68   15.40
   9  -2  -1  256.27   16.40
  -7   9  -1  251.57   15.70
   9  -2  -1  225.88   13.50
   2   7   1  290.17   12.60
  -9   2   1  253.07   14.30
  -9   2   1  281.17   17.80
   7  -9   1  295.57   15.20
  12  -5  -1 1717.03   44.10
  12  -5  -1 1691.83   47.00
  -7  12  -1 1706.03   46.40
   5   7   1 1935.21   49.40
   7 -12   1 1962.10   49.99
   5   7   1 1947.51   42.70
 -12   5   1 1934.51   47.60
 -12   5   1 1963.70   52.39
  15  -8  -1 4000.20   89.99
  -7  15  -1 3955.50   90.69
  15  -8  -1 3957.30   92.89
   8   7   1 3665.53   84.29
   7 -15   1 3700.43   84.79
 -15   8   1 3694.43   82.79
 -15   8   1 3656.23   87.79
  12  -8  -1 1758.62   47.10
  -8  -4  -1 1825.02   45.60
  -4  12  -1 1768.22   48.00
  12  -8  -1 1868.81   49.99
 -12   8   1 1871.61   48.20
   4 -12   1 1833.52   47.90
 -12   8   1 1874.51   51.09
   8   4   1 1894.61   46.80
  -1   9  -1 1530.25   39.70
  -8  -1  -1 1535.65   37.30
   9  -8  -1 1536.35   40.20
  -9   8   1 1747.43   45.80
  -9   8   1 1790.02   44.20
   1  -9   1 1725.83   42.30
   8   1   1 1612.84   40.60
   2   6  -1 1770.22   41.90
   6  -8  -1 1779.32   42.90
  -8   2  -1 1785.82   40.10
   2   6  -1 1824.82   45.20
   8  -2   1 1974.70   40.10
   8  -2   1 1945.51   42.60
  -6   8   1 1911.01   46.20
  -8   5  -1 2207.98   48.70
   5   3  -1 2178.08   52.29
   3  -8  -1 2267.77   49.10
  -8   5  -1 2249.68   47.30
   8  -5   1 2121.69   51.09
  -5  -3   1 2178.08   51.69
  -3   8   1 2213.28   48.90
   0  -8  -1   70.89    9.30
  -8   8  -1   54.59    8.20
   8   0  -1   78.09    9.70
   8   0  -1   83.19   10.70
  -8   0   1   51.99    9.50
   8  -8   1   84.09   10.70
   0   8   1   70.69    8.20
  11  -3  -1  541.05   24.30
  -8  11  -1  515.65   23.20
  11  -3  -1  567.34   21.60
   3   8   1  561.04   18.80
   8 -11   1  570.54   22.80
 -11   3   1  568.34   21.20
 -11   3   1  598.74   26.10
  14  -6  -1 3080.59   71.49
  14  -6  -1 3052.29   74.39
  -8  14  -1 3068.99   73.69
 -14   6   1 2988.40   68.69
   8 -14   1 2971.10   71.49
   6   8   1 2993.90   63.79
 -14   6   1 3054.39   74.59
   6   8   1 3083.49   71.79
  -8  17  -1 1640.84   51.19
  17  -9  -1 1721.13   49.50
  17  -9  -1 1673.23   52.39
 -17   9   1 1628.64   52.89
 -17   9   1 1641.24   47.50
   8 -17   1 1640.54   49.00
   9   8   1 1695.43   49.50
  14  -9  -1 2120.39   55.39
  -5  14  -1 2176.08   56.79
  14  -9  -1 2081.09   57.49
   9   5   1 2109.79   53.49
 -14   9   1 2023.50   57.39
   5 -14   1 2098.39   54.29
 -14   9   1 2163.58   54.59
  11  -9  -1  997.70   32.30
  -9  -2  -1 1052.69   30.40
  -2  11  -1 1035.10   32.40
   9   2   1 1181.48   32.70
 -11   9   1 1136.29   37.50
 -11   9   1 1137.49   35.10
   2 -11   1 1158.18   33.80
  -9   1  -1 1881.91   43.10
   1   8  -1 1774.72   44.50
   1   8  -1 1902.41   48.50
   8  -9  -1 1848.62   46.00
  -1  -8   1 2019.60   46.40
   9  -1   1 1937.01   40.20
  -8   9   1 1974.50   48.70
  -9   4  -1 2899.31   57.89
  -9   4  -1 2925.21   61.59
   5  -9  -1 2909.41   63.19
   4   5  -1 2878.71   66.19
  -4  -5   1 3171.08   70.79
   9  -4   1 3327.97   69.99
   9  -4   1 3090.39   64.39
  -5   9   1 3025.90   68.59
   7   2  -1  581.34   22.90
  -9   7  -1  553.54   19.50
   2  -9  -1  565.34   18.50
  -7  -2   1  622.14   24.40
  -2   9   1  607.24   21.20
   9  -7   1  619.94   20.80
  10  -1  -1   59.49    8.60
  10  -1  -1   68.49   11.30
  -9  10  -1   49.80    9.40
   1   9   1   20.10    6.90
   9 -10   1   35.90    8.50
 -10   1   1   20.70    9.90
  -9  13  -1  522.15   25.10
  13  -4  -1  531.35   22.50
  13  -4  -1  517.45   25.90
 -13   4   1  464.95   25.90
   4   9   1  504.15   23.50
   4   9   1  434.16   18.20
   9 -13   1  456.15   22.20
 -13   4   1  428.66   20.00
  16  -7  -1  740.83   32.80
  16  -7  -1  766.92   29.70
  -9  16  -1  768.42   33.10
 -16   7   1  761.62   28.80
   7   9   1  710.73   30.40
 -16   7   1  710.73   33.30
   7   9   1  735.43   25.60
   9 -16   1  746.63   30.40
  19 -10  -1  177.98   19.80
  -9  19  -1  185.48   22.20
  19 -10  -1  186.48   23.30
   9 -19   1  192.68   20.10
 -19  10   1  205.98   23.30
  10   9   1  217.68   22.50
  10   9   1  181.38   19.40
 -19  10   1  182.78   21.20
  -6  16  -1  871.11   35.60
  16 -10  -1  834.92   32.20
 -16  10   1  881.71   32.80
   6 -16   1  847.72   32.30
  10   6   1  836.72   31.80
 -16  10   1  823.52   35.90
  -3  13  -1   60.69   11.30
 -10  -3  -1   64.59   11.30
  13 -10  -1   75.79   11.70
 -13  10   1   71.59   12.30
  10   3   1   74.49   10.60
 -13  10   1   63.09   12.50
   3 -13   1   68.69   11.30
   0  10  -1   56.09   10.40
  10 -10  -1   62.29   10.00
 -10   0  -1   53.89    9.40
   0 -10   1   41.10    8.00
  10   0   1   35.50    7.80
 -10  10   1   64.89   11.80
 -10  10   1   47.70   12.50
   3   7  -1  484.45   22.40
   3   7  -1  513.05   20.10
   7 -10  -1  532.15   20.60
 -10   3  -1  520.25   19.30
  10  -3   1  545.35   16.50
  10  -3   1  531.15   18.90
  -7  10   1  557.04   22.90
 -10   6  -1   30.40    6.40
   6   4  -1   27.90    8.70
   4 -10  -1   17.60    6.10
 -10   6  -1   32.70    7.70
  -6  -4   1   58.89   10.80
  10  -6   1   42.30    7.40
  -4  10   1   53.69    9.70
   9   1  -1   30.40    7.20
   1 -10  -1   24.40    6.30
 -10   9  -1   13.40    7.80
   9   1  -1   22.20    8.40
  10  -9   1   20.10    6.70
  -1  10   1   25.20    7.80
  -9  -1   1   32.90   10.10
  12  -2  -1  381.56   22.20
  12  -2  -1  350.56   18.10
 -10  12  -1  381.16   21.50
 -12   2   1  271.67   20.80
   2  10   1  311.37   16.60
  10 -12   1  269.27   18.20
  15  -5  -1 1073.39   38.10
  15  -5  -1 1026.50   33.50
 -10  15  -1 1078.09   37.50
   5  10   1 1063.89   31.00
   5  10   1 1061.09   36.90
 -15   5   1  973.40   32.20
  10 -15   1 1031.00   35.60
 -15   5   1 1058.69   39.40
 -10  18  -1 1236.38   44.40
  18  -8  -1 1204.58   40.50
  18  -8  -1 1218.28   44.40
  10 -18   1 1159.18   40.50
 -18   8   1 1131.79   37.40
 -18   8   1 1151.68   44.60
   8  10   1 1183.08   35.00
   8  10   1 1110.39   41.10
  21 -11  -1  435.86   27.70
  21 -11  -1  403.26   31.00
 -10  21  -1  403.76   32.70
  11  10   1  403.96   25.20
  11  10   1  463.75   30.90
 -21  11   1  382.06   33.70
 -21  11   1  434.66   29.70
  -7  18  -1  894.01   38.90
  18 -11  -1  884.71   34.80
 -18  11   1  878.61   38.80
 -18  11   1  849.72   34.50
  11   7   1  878.61   34.50
   7 -18   1  887.11   34.50
  15 -11  -1 1448.76   44.10
  -4  15  -1 1471.15   45.10
 -11  -4  -1 1387.46   41.90
  11   4   1 1533.55   44.20
 -15  11   1 1620.54   46.40
 -15  11   1 1511.25   48.90
   4 -15   1 1530.75   45.00
  12 -11  -1 3477.25   80.69
  -1  12  -1 3551.64   79.79
 -11  -1  -1 3568.64   77.79
 -12  11   1 3400.96   78.39
  11   1   1 3395.46   75.09
 -12  11   1 3382.06   81.29
   1 -12   1 3418.46   76.19
   2   9  -1 2187.48   56.59
   2   9  -1 2164.58   52.19
 -11   2  -1 2161.68   50.89
   9 -11  -1 2149.69   53.39
  11  -2   1 2364.16   49.70
  11  -2   1 2366.26   53.89
  -9  11   1 2295.87   57.39
   6 -11  -1 1099.59   32.30
   5   6  -1 1119.59   31.40
   5   6  -1 1119.79   35.40
 -11   5  -1 1080.79   26.90
 -11   5  -1 1103.89   31.20
  11  -5   1 1321.87   34.80
  -5  -6   1 1318.87   39.30
  11  -5   1 1324.97   33.20
  -6  11   1 1284.57   37.60
   3 -11  -1  784.92   24.40
 -11   8  -1  773.32   26.50
 -11   8  -1  790.62   25.10
   8   3  -1  771.82   28.80
  -8  -3   1  832.72   30.60
  -3  11   1  818.72   27.60
  11  -8   1  845.62   26.90
   0 -11  -1   18.70    6.20
 -11  11  -1   19.70    9.00
  11   0  -1   11.10    8.70
  11   0  -1   21.50    7.30
 -11   0   1   18.70   10.00
   0  11   1   12.00    8.10
  11 -11   1   24.40    8.10
  14  -3  -1   32.60    8.70
  14  -3  -1   37.50   11.00
 -11  14  -1   38.90   11.30
   3  11   1   10.40    8.40
  11 -14   1    5.00    8.70
 -14   3   1    4.40   10.90
  17  -6  -1 1461.05   43.80
 -11  17  -1 1589.04   49.00
  17  -6  -1 1452.05   48.20
 -17   6   1 1405.26   40.40
 -17   6   1 1414.86   48.20
   6  11   1 1439.16   46.30
  11 -17   1 1350.16   44.10
   6  11   1 1377.56   39.40
  20  -9  -1 1079.49   43.60
 -11  20  -1 1056.39   45.00
  20  -9  -1 1068.09   40.00
  11 -20   1  965.80   38.50
 -20   9   1  931.91   42.80
   9  11   1  938.21   34.20
 -20   9   1 1023.20   37.60
   9  11   1  974.80   40.90
 -11  23  -1  641.54   41.10
  12  11   1  565.74   31.30
  12  11   1  674.63   38.80
 -23  12   1  573.24   42.50
  11 -23   1  646.44   35.30
 -23  12   1  600.14   36.00
  -8  20  -1 1215.68   49.20
  20 -12  -1 1248.28   44.20
 -20  12   1 1233.38   44.00
  12   8   1 1286.87   45.40
   8 -20   1 1296.47   45.00
 -20  12   1 1275.87   49.30
 -12  -5  -1  534.75   27.90
  -5  17  -1  491.55   28.30
  17 -12  -1  539.05   27.70
 -17  12   1  561.34   28.40
 -17  12   1  548.55   31.40
   5 -17   1  569.74   27.50
  12   5   1  511.75   26.20
  14 -12  -1 2100.89   56.89
 -12  -2  -1 2166.68   54.59
  -2  14  -1 2140.29   56.69
 -14  12   1 1990.20   54.79
  12   2   1 2043.30   52.29
 -14  12   1 2047.70   58.19
   2 -14   1 2074.79   53.19
   1  11  -1 2732.63   69.19
  11 -12  -1 2651.73   65.79
 -12   1  -1 2805.62   63.29
   1  11  -1 2751.22   64.79
 -11  12   1 2646.74   66.79
  12  -1   1 2533.35   54.29
  -1 -11   1 2552.04   60.19
  12  -1   1 2685.43   60.79
 -11  12   1 2571.14   64.09
   4   8  -1 2350.26   60.79
 -12   4  -1 2423.16   56.09
   8 -12  -1 2414.96   58.39
   4   8  -1 2403.86   56.59
  12  -4   1 2554.94   57.29
  12  -4   1 2451.35   54.09
  -8  12   1 2445.46   60.69
   5 -12  -1 1119.99   32.40
   7   5  -1 1099.79   36.00
 -12   7  -1 1113.29   29.90
 -12   7  -1 1093.19   32.80
  -7  -5   1 1271.77   40.10
  12  -7   1 1377.56   36.30
  -5  12   1 1372.76   38.90
 -12  10  -1  300.97   19.70
   2 -12  -1  312.77   16.00
 -12  10  -1  301.97   18.10
  10   2  -1  302.27   19.80
  12 -10   1  233.48   16.40
  -2  12   1  258.17   18.10
 -10  -2   1  251.57   20.30
  13  -1  -1  543.85   22.20
 -12  13  -1  512.75   25.20
  13  -1  -1  540.35   26.60
  -1 -12  -1  551.04   19.20
   1  12   1  534.95   23.40
 -13   1   1  539.65   28.00
  12 -13   1  540.35   25.10
 -12  16  -1  733.53   32.50
  16  -4  -1  809.22   29.70
  16  -4  -1  721.33   33.50
   4  12   1  684.83   27.50
 -16   4   1  686.93   33.40
  12 -16   1  634.54   29.50
   4  12   1  707.43   31.60
 -12  19  -1  111.39   17.80
  19  -7  -1  137.39   17.50
  19  -7  -1  131.69   18.40
 -19   7   1  188.18   21.70
   7  12   1  139.29   17.70
  12 -19   1  157.78   20.20
 -19   7   1  189.88   23.10
   7  12   1  169.58   20.70
 -12  22  -1  292.27   32.20
  22 -10  -1  274.57   24.90
  22 -10  -1  255.87   30.10
  10  12   1  298.77   25.50
 -22  10   1  262.67   33.70
  12 -22   1  300.17   26.50
  10  12   1  258.07   29.10
 -22  10   1  261.77   27.80
 -12  25  -1  257.37   31.30
  25 -13  -1  232.88   27.10
  13  12   1  237.08   27.70
  13  12   1  209.18   32.60
 -25  13   1  273.97   34.30
  12 -25   1  307.37   30.80
 -25  13   1  329.17   34.30
  22 -13  -1  184.18   27.20
  -9  22  -1  185.08   27.20
  13   9   1  190.58   23.20
   9 -22   1  283.27   26.30
 -22  13   1  200.88   23.30
 -22  13   1  191.98   25.10
  19 -13  -1  390.36   26.60
  -6  19  -1  347.37   28.10
  13   6   1  308.57   24.30
 -19  13   1  316.17   26.60
   6 -19   1  348.77   24.90
 -19  13   1  345.97   30.80
  -3  16  -1  161.38   20.80
 -13  -3  -1  155.58   17.60
 -16  13   1  167.88   21.20
   3 -16   1  132.29   17.20
 -16  13   1  189.18   23.40
  13   3   1  142.99   16.30
  13 -13  -1   58.09   11.40
   0  13  -1   61.69   12.30
 -13   0  -1   50.49   11.40
  13   0   1   68.79   10.90
 -13  13   1   76.19   15.40
  13   0   1   53.99    9.70
 -13  13   1   58.59   12.40
   0 -13   1   87.39   12.20
   3  10  -1  164.38   17.60
  10 -13  -1  157.68   15.90
   3  10  -1  216.38   19.80
 -13   3  -1  183.08   16.40
 -10  13   1  205.58   20.10
  13  -3   1  222.48   15.60
  13  -3   1  193.98   12.20
 -13   6  -1  239.08   17.50
 -13   6  -1  241.18   13.30
   6   7  -1  233.08   19.20
   6   7  -1  239.88   17.00
   7 -13  -1  239.18   16.90
  13  -6   1  232.58   14.50
  -7  13   1  233.38   19.80
  -6  -7   1  273.47   21.00
  13  -6   1  218.28   15.70
 -13   9  -1  608.54   23.40
   4 -13  -1  591.14   22.80
 -13   9  -1  623.14   25.80
   9   4  -1  622.14   27.70
  -4  13   1  534.35   24.90
  -9  -4   1  524.25   26.80
  13  -9   1  543.95   22.60
 -13  12  -1  780.12   29.10
   1 -13  -1  738.03   24.70
  12   1  -1  756.52   26.10
  12   1  -1  778.92   31.70
  -1  13   1  788.92   29.30
 -12  -1   1  783.62   33.40
  13 -12   1  774.12   28.80
  15  -2  -1  325.47   23.40
  15  -2  -1  322.57   19.20
 -13  15  -1  370.86   24.30
 -15   2   1  318.47   25.30
  13 -15   1  333.87   21.90
   2  13   1  307.47   20.80
  18  -5  -1  683.43   33.40
  18  -5  -1  599.84   26.90
 -13  18  -1  699.13   33.50
   5  13   1  650.63   33.50
 -18   5   1  678.43   34.90
   5  13   1  671.43   29.60
  13 -18   1  657.53   31.10
  21  -8  -1  157.48   21.60
  21  -8  -1  163.48   19.30
 -13  21  -1  189.48   23.70
   8  13   1  181.88   22.00
  13 -21   1  170.18   21.90
 -21   8   1  183.08   24.10
   8  13   1  191.98   23.80
 -21   8   1  164.28   22.90
  24 -11  -1  133.79   22.60
 -13  24  -1  112.99   23.40
  24 -11  -1  106.89   19.60
 -24  11   1   78.39   24.40
 -24  11   1   91.09   19.30
  11  13   1   96.99   18.40
  11  13   1   80.19   23.60
  13 -24   1   89.49   18.70
  27 -14  -1  104.49   21.70
 -13  27  -1   74.19   26.40
  14  13   1   89.09   23.50
 -27  14   1  115.39   32.30
 -27  14   1   96.99   22.90
  14  13   1   83.69   22.70
 -10  24  -1  485.35   44.20
  24 -14  -1  481.25   34.50
  10 -24   1  462.35   33.00
  14  10   1  389.16   34.50
  14  10   1  451.35   29.00
 -24  14   1  455.55   36.20
  21 -14  -1  153.08   20.50
  -7  21  -1  176.08   22.30
 -21  14   1  185.78   21.50
  14   7   1  191.88   24.20
 -21  14   1  262.77   30.40
   7 -21   1  247.28   25.30
  18 -14  -1  563.64   30.50
  -4  18  -1  517.85   30.50
 -14  -4  -1  461.05   28.00
   4 -18   1  407.16   25.40
 -18  14   1  433.76   30.80
 -18  14   1  480.05   29.50
  14   4   1  440.16   25.40
  15 -14  -1 1482.75   46.80
 -14  -1  -1 1456.55   44.50
  -1  15  -1 1495.55   45.90
 -15  14   1 1418.86   48.30
  14   1   1 1396.76   34.80
  14   1   1 1430.46   42.30
 -15  14   1 1405.36   45.10
   1 -15   1 1417.16   42.30
 -14   2  -1 2043.70   53.19
   2  12  -1 2093.09   54.49
   2  12  -1 2120.69   59.59
  12 -14  -1 2044.40   55.49
 -12  14   1 1878.41   52.89
  14  -2   1 1917.41   49.30
  14  -2   1 1877.11   44.10
   9 -14  -1 1843.62   50.29
   5   9  -1 1881.91   48.60
 -14   5  -1 1936.81   39.80
 -14   5  -1 1850.21   48.60
   5   9  -1 1805.62   53.09
  14  -5   1 2017.20   47.40
  14  -5   1 1938.91   49.50
  -9  14   1 1951.30   53.59
   8   6  -1 3257.07   77.09
 -14   8  -1 3171.08   68.19
 -14   8  -1 2999.20   71.79
   6 -14  -1 3090.79   71.49
  14  -8   1 3228.28   71.99
  -8  -6   1 3090.59   76.89
  -6  14   1 3225.88   75.19
  11   3  -1   23.40   10.30
 -14  11  -1    6.70    9.00
 -14  11  -1   20.60   10.60
   3 -14  -1   -0.40    6.90
  14 -11   1   -8.40    6.70
 -11  -3   1   14.50   11.50
  -3  14   1    4.00   10.40
  14   0  -1   28.90    8.80
   0 -14  -1   29.90    7.70
 -14  14  -1   27.60   11.10
  14   0  -1   11.50   10.40
   0  14   1   20.10   10.40
  14 -14   1   29.70   10.00
 -14   0   1   40.50   13.50
  17  -3  -1  646.34   32.40
 -14  17  -1  625.34   32.60
  17  -3  -1  607.34   27.30
  14 -17   1  581.74   29.40
 -17   3   1  611.74   33.80
   3  14   1  577.84   28.80
 -14  20  -1  105.79   18.10
  20  -6  -1   78.09   17.60
  20  -6  -1  127.69   16.90
   6  14   1   69.59   16.50
 -20   6   1   79.09   18.80
   6  14   1  104.29   18.80
  14 -20   1   56.29   16.80
  23  -9  -1  313.17   26.60
 -14  23  -1  313.87   34.50
  14 -23   1  290.27   26.90
 -23   9   1  325.37   36.80
 -23   9   1  346.77   28.00
   9  14   1  318.57   29.10
   9  14   1  257.17   31.60
  26 -12  -1  279.87   35.20
 -14  26  -1  320.47   34.50
  26 -12  -1  372.16   31.50
  12  14   1  388.56   38.70
 -26  12   1  353.26   34.80
 -26  12   1  286.87   37.70
  12  14   1  328.87   32.30
 -14  29  -1   61.79   32.50
  29 -15  -1   68.79   23.20
 -29  15   1   24.60   34.80
  15  14   1   50.69   24.00
  14 -29   1   61.49   22.80
 -29  15   1   12.50   22.70
  15  14   1   38.20   25.90
 -11  26  -1  394.86   49.90
  26 -15  -1  379.16   34.70
  15  11   1  391.86   37.90
  15  11   1  352.66   33.00
  11 -26   1  320.27   32.30
 -26  15   1  352.86   39.40
 -26  15   1  378.26   38.60
  23 -15  -1  416.26   31.80
  -8  23  -1  470.55   37.90
 -23  15   1  444.46   38.90
 -23  15   1  478.65   37.40
   8 -23   1  524.85   33.40
  15   8   1  509.55   34.40
 -15  -5  -1  878.11   40.70
  -5  20  -1  954.30   42.10
  20 -15  -1 1032.70   42.10
  15   5   1  997.60   39.50
 -20  15   1  870.41   43.90
 -20  15   1 1026.90   42.00
   5 -20   1 1003.80   39.50
  17 -15  -1  813.32   35.10
 -15  -2  -1  859.21   34.60
  -2  17  -1  824.42   36.30
 -17  15   1  648.64   35.60
   2 -17   1  685.03   29.60
 -17  15   1  648.44   32.70
  15   2   1  659.23   29.60
 -15   1  -1 1276.57   41.00
   1  14  -1 1259.07   42.00
   1  14  -1 1333.37   46.80
  14 -15  -1 1292.27   42.50
 -14  15   1 1279.37   46.70
  15  -1   1 1288.77   34.00
 -14  15   1 1296.27   43.70
  -1 -14   1 1357.26   39.60
  15  -1   1 1309.87   39.90
 -15   4  -1 1257.37   38.90
   4  11  -1 1214.68   43.30
  11 -15  -1 1272.87   40.60
   4  11  -1 1266.47   39.20
  15  -4   1 1293.47   34.70
 -11  15   1 1344.37   43.50
  15  -4   1 1298.77   38.20
 -15   7  -1 3647.44   82.99
   7   8  -1 3715.83   88.29
   8 -15  -1 3762.62   84.49
   7   8  -1 3637.74   81.29
 -15   7  -1 3648.23   76.19
  15  -7   1 3571.94   78.39
  -8  15   1 3600.94   83.79
  -7  -8   1 3474.85   85.09
  10   5  -1 1271.27   42.70
   5 -15  -1 1241.68   37.30
 -15  10  -1 1232.98   39.40
 -15  10  -1 1255.77   36.60
  15 -10   1 1238.68   37.70
 -10  -5   1 1201.98   42.10
  -5  15   1 1244.38   40.00
 -15  13  -1  310.77   21.80
  13   2  -1  295.07   22.80
 -15  13  -1  316.27   23.60
  13   2  -1  289.37   17.30
   2 -15  -1  295.07   17.50
 -13  -2   1  296.97   24.00
  -2  15   1  277.57   22.30
  15 -13   1  318.67   20.30
  -1 -15  -1  223.98   15.20
 -15  16  -1  204.18   22.30
  16  -1  -1  229.18   22.30
  16  -1  -1  234.68   18.20
   1  15   1  263.47   23.00
 -16   1   1  251.97   26.00
  15 -16   1  256.87   21.70
  19  -4  -1  103.39   18.70
  19  -4  -1  101.49   15.00
 -15  19  -1  113.59   19.20
  15 -19   1  131.29   17.70
   4  15   1  119.79   18.00
   4  15   1  112.99   18.90
 -19   4   1  108.29   20.20
  22  -7  -1  177.68   21.40
 -15  22  -1  133.89   22.00
  22  -7  -1  134.99   20.20
   7  15   1  173.78   21.40
  15 -22   1  179.48   24.00
   7  15   1  165.18   22.20
 -22   7   1  169.88   26.10
 -15  25  -1  281.07   33.10
  25 -10  -1  275.07   29.70
  25 -10  -1  215.08   28.10
  10  15   1  240.18   25.00
  15 -25   1  237.28   26.60
 -25  10   1  234.78   33.50
  10  15   1  261.27   34.90
  28 -13  -1  153.28   23.10
 -15  28  -1  177.48   33.70
 -28  13   1  163.28   36.90
 -28  13   1  187.58   25.10
  15 -28   1  135.59   26.10
  13  15   1  169.18   29.30
  13  15   1  157.58   27.50
 -15  31  -1   74.59   37.40
  31 -16  -1   62.09   28.80
 -31  16   1   31.10   43.60
  16  15   1  124.79   31.40
  15 -31   1   60.59   26.90
 -31  16   1  114.79   26.30
  28 -16  -1  -27.70   18.70
 -12  28  -1    8.50   31.50
  16  12   1   11.80   22.30
  16  12   1   12.90   22.90
 -28  16   1   21.80   32.00
 -28  16   1   -6.80   22.30
  -9  25  -1   16.90   20.40
  25 -16  -1    4.80   16.10
 -25  16   1   28.40   21.80
 -25  16   1   13.90   22.30
  16   9   1    1.30   17.30
   9 -25   1   20.50   16.80
  -6  22  -1  221.18   27.10
  22 -16  -1  255.67   28.00
  16   6   1  221.48   25.90
   6 -22   1  162.88   24.40
 -22  16   1  164.48   23.80
 -22  16   1  180.48   27.10
  -3  19  -1   92.09   19.10
 -16  -3  -1   66.49   18.30
  19 -16  -1   90.69   16.70
  16   3   1   65.39   15.80
 -19  16   1   79.09   17.60
   3 -19   1   77.59   14.80
 -19  16   1   68.59   19.40
  16 -16  -1   -6.70    8.50
   0  16  -1   14.70   13.50
 -16   0  -1    8.40   11.10
   0  16  -1   19.70   13.80
  16   0   1   11.30    6.90
  16   0   1   12.50    9.60
 -16  16   1   23.30   13.60
   0 -16   1   14.20   10.00
 -16  16   1    7.30   13.00
   3  13  -1   82.29   14.80
 -16   3  -1   78.19   14.00
   3  13  -1   55.09   14.00
  13 -16  -1   73.29   12.70
 -13  16   1   88.79   16.60
  16  -3   1   92.09   13.70
  16  -3   1   88.89   11.90
   6  10  -1  929.21   32.50
   6  10  -1  874.01   36.70
 -16   6  -1  912.21   24.20
 -16   6  -1  892.31   33.20
  10 -16  -1  874.81   33.30
  16  -6   1  958.10   32.80
  16  -6   1  954.70   30.10
 -10  16   1  941.71   37.70
   7 -16  -1  460.65   23.00
   9   7  -1  491.65   28.20
 -16   9  -1  482.15   25.40
 -16   9  -1  460.15   21.10
  -9  -7   1  495.35   28.00
  16  -9   1  441.06   21.90
  -7  16   1  461.05   26.30
 -16  12  -1  957.80   36.60
   4 -16  -1  986.00   32.70
 -16  12  -1  981.30   33.90
  12   4  -1  957.60   37.80
  16 -12   1  997.10   34.80
  -4  16   1  976.50   37.00
 -12  -4   1  975.30   38.90
  15   1  -1   73.79   11.40
 -16  15  -1   76.19   14.90
   1 -16  -1   77.39   11.40
 -16  15  -1   86.59   16.30
  15   1  -1   74.29   14.90
  -1  16   1   66.69   13.90
 -15  -1   1   83.29   16.90
  16 -15   1   65.79   12.60
  18  -2  -1  190.78   19.30
  18  -2  -1  197.28   24.60
 -16  18  -1  136.09   18.90
   2  16   1  185.98   20.30
  16 -18   1  175.88   22.20
 -18   2   1  198.68   26.60
  21  -5  -1   36.00   16.10
 -16  21  -1   19.00   16.90
  16 -21   1   22.60   13.30
 -21   5   1    6.70   18.80
   5  16   1    6.60   16.30
   5  16   1   15.30   16.20
 -16  24  -1   97.09   22.80
  24  -8  -1  154.18   24.30
  24  -8  -1  159.08   22.50
   8  16   1  143.39   23.90
 -24   8   1  121.99   27.90
   8  16   1  153.58   22.40
 -16  27  -1   43.10   26.10
  27 -11  -1   41.80   18.70
  27 -11  -1   42.00   20.60
  11  16   1   31.90   20.90
 -27  11   1   55.39   30.50
  11  16   1   25.40   22.70
  30 -14  -1   97.39   25.60
 -16  30  -1  115.79   34.50
  16 -30   1  145.79   29.40
  14  16   1  138.09   36.30
  14  16   1   76.49   28.60
 -30  14   1   88.69   40.20
 -13  30  -1   66.89   32.60
  30 -17  -1  -12.80   21.50
  17  13   1   63.19   27.50
 -30  17   1   49.70   38.60
  17  13   1   15.50   25.50
 -30  17   1   77.19   26.50
  13 -30   1   50.39   25.00
  27 -17  -1  302.47   36.10
 -10  27  -1  231.28   33.20
 -27  17   1  230.48   30.50
  17  10   1  321.67   37.40
  17  10   1  267.67   35.50
 -27  17   1  196.68   36.00
  24 -17  -1   30.20   16.30
  -7  24  -1   36.90   21.30
 -24  17   1   69.59   24.90
  17   7   1   53.39   19.00
 -24  17   1   46.30   22.30
   7 -24   1   83.69   18.10
 -17  -4  -1  983.40   44.50
  21 -17  -1  961.20   42.80
 -21  17   1 1057.89   46.60
  17   4   1  966.80   41.10
   4 -21   1  972.20   39.80
 -21  17   1  957.80   48.20
 -17  -1  -1 1106.19   43.00
  -1  18  -1 1096.09   43.40
  18 -17  -1 1080.89   43.30
 -18  17   1 1027.50   42.80
  17   1   1 1059.69   39.70
   1 -18   1 1083.59   38.80
  17   1   1 1031.80   31.40
 -18  17   1 1037.40   46.30
 -17   2  -1  475.35   27.70
   2  15  -1  499.15   28.50
   2  15  -1  432.46   30.80
  15 -17  -1  442.96   25.70
  17  -2   1  356.96   18.70
 -15  17   1  391.26   30.50
  17  -2   1  373.16   23.30
 -15  17   1  372.46   27.30
   5  12  -1  767.32   31.90
   5  12  -1  763.32   35.70
 -17   5  -1  788.52   32.50
  12 -17  -1  818.82   33.40
  17  -5   1  734.53   25.90
 -12  17   1  765.92   34.90
  17  -5   1  749.82   29.50
 -17   8  -1 1069.79   31.10
   8   9  -1 1139.39   42.40
   8   9  -1 1090.29   36.50
   9 -17  -1 1098.19   37.50
 -17   8  -1 1092.99   38.60
  17  -8   1 1130.09   35.00
  -9  17   1 1118.99   41.30
 -17  11  -1 1953.40   55.39
   6 -17  -1 2013.90   53.29
 -17  11  -1 2044.10   51.49
  11   6  -1 1878.31   57.79
 -11  -6   1 1814.32   56.29
  17 -11   1 1892.21   51.49
  -6  17   1 1854.21   54.09
 -17  14  -1  600.54   31.70
   3 -17  -1  582.94   25.40
  14   3  -1  589.64   30.50
 -17  14  -1  611.44   29.30
  14   3  -1  588.04   25.30
  -3  17   1  652.03   31.70
  17 -14   1  592.84   28.60
 -14  -3   1  642.64   34.40
   0 -17  -1   12.70    8.80
  17   0  -1    7.90    8.90
  17   0  -1    4.90   12.80
 -17  17  -1    7.70   12.30
 -17   0   1    8.20   15.20
   0  17   1   11.60   14.20
  17 -17   1   10.60   11.90
  20  -3  -1  154.68   18.40
  20  -3  -1  180.08   22.80
 -17  20  -1  211.18   28.20
 -20   3   1  128.69   23.10
  17 -20   1  188.98   24.00
   3  17   1  210.88   23.30
   3  17   1  182.58   23.70
  23  -6  -1   87.09   15.70
 -17  23  -1  158.98   26.20
  23  -6  -1   84.49   23.40
 -23   6   1  139.69   26.90
   6  17   1  162.78   23.80
   6  17   1  160.78   23.70
  26  -9  -1   91.99   19.40
  26  -9  -1   84.59   22.40
 -17  26  -1   69.59   26.90
   9  17   1   70.29   22.90
   9  17   1   79.39   22.60
 -26   9   1   66.39   30.90
 -17  29  -1  148.59   34.20
  29 -12  -1   88.69   22.30
  29 -12  -1   52.39   27.10
  12  17   1  129.19   29.90
  12  17   1  123.49   30.20
 -29  12   1  137.19   38.90
  17 -29   1  120.59   25.40
 -17  32  -1  213.98   45.60
  32 -15  -1  235.88   36.50
  17 -32   1  158.28   33.20
 -32  15   1  200.98   49.80
  15  17   1  167.88   38.50
  15  17   1  203.28   40.20
 -14  32  -1  109.59   42.60
  32 -18  -1  193.48   35.20
 -32  18   1   44.80   48.30
  14 -32   1   79.59   30.50
 -32  18   1   12.50   28.20
  18  14   1   78.09   35.90
  18  14   1   91.49   32.90
 -11  29  -1  107.29   33.60
  29 -18  -1  227.58   32.60
  18  11   1  181.08   31.30
 -29  18   1  155.38   30.30
 -29  18   1  114.79   39.20
  11 -29   1  153.88   31.60
  18  11   1  125.89   27.80
  26 -18  -1  106.59   20.80
  -8  26  -1  105.69   29.60
 -26  18   1  148.99   28.90
   8 -26   1  134.69   22.60
  18   8   1   98.79   22.30
 -26  18   1   85.69   28.40
 -18  -5  -1  681.03   43.20
  -5  23  -1  670.93   44.30
  23 -18  -1  671.13   38.70
 -23  18   1  572.24   43.60
  18   5   1  599.44   36.90
 -23  18   1  701.03   42.60
   5 -23   1  621.44   35.40
 -18  -2  -1 1476.75   53.29
  20 -18  -1 1561.74   53.39
  -2  20  -1 1482.55   54.19
 -20  18   1 1431.46   56.89
  18   2   1 1368.56   39.50
 -20  18   1 1383.96   51.19
   2 -20   1 1395.16   47.30
  18   2   1 1407.16   48.70
   1  17  -1 1019.50   45.40
 -18   1  -1  967.10   40.20
   1  17  -1  987.80   40.30
  17 -18  -1  923.31   52.89
  -1 -17   1  868.31   33.50
  18  -1   1  871.51   29.30
  18  -1   1  901.41   36.30
 -17  18   1  883.61   43.70
 -17  18   1  890.81   40.60
  14 -18  -1  387.86   26.00
   4  14  -1  334.67   26.10
 -18   4  -1  362.56   27.10
   4  14  -1  354.66   28.40
  18  -4   1  237.88   15.30
 -14  18   1  241.68   26.40
  18  -4   1  275.97   20.70
 -18   7  -1  716.33   32.30
  11 -18  -1  729.73   31.60
   7  11  -1  705.83   31.10
   7  11  -1  712.73   36.40
 -11  18   1  761.92   36.60
  18  -7   1  784.92   28.70
  18  -7   1  760.22   31.30
 -18  10  -1 1044.40   33.60
 -18  10  -1 1066.49   39.30
  10   8  -1 1074.49   42.00
   8 -18  -1 1019.30   36.30
 -10  -8   1 1084.59   42.80
  -8  18   1 1076.59   40.90
  18 -10   1 1097.69   36.90
  13   5  -1 1121.09   42.80
   5 -18  -1 1023.00   35.90
 -18  13  -1 1081.99   40.30
 -18  13  -1 1082.99   37.40
  -5  18   1 1151.28   43.20
 -13  -5   1 1115.59   44.00
  18 -13   1 1148.99   39.60
 -18  16  -1   52.39   16.40
  16   2  -1   40.30   13.50
 -18  16  -1   48.00   14.50
   2 -18  -1   53.09   11.30
  16   2  -1   46.10   10.80
  -2  18   1   63.89   15.40
  18 -16   1   52.29   13.40
 -16  -2   1   68.19   17.40
  19  -1  -1  322.77   29.20
  19  -1  -1  350.96   24.60
 -18  19  -1  409.16   30.60
   1  18   1  389.26   32.60
 -19   1   1  318.77   34.30
  18 -19   1  380.36   28.60
  22  -4  -1  431.76   44.20
 -18  22  -1  304.07   34.40
  22  -4  -1  249.18   24.60
 -22   4   1  292.27   31.80
   4  18   1  295.77   33.80
  18 -22   1  253.47   26.80
   4  18   1  298.27   33.10
  25  -7  -1  464.05   33.80
 -18  25  -1  467.05   42.80
  25  -7  -1  464.65   37.60
 -25   7   1  400.66   49.20
   7  18   1  407.56   37.20
   7  18   1  429.46   38.50
 -18  28  -1  263.37   36.80
  28 -10  -1  286.67   35.20
  28 -10  -1  345.07   35.40
  18 -28   1  333.67   37.00
  10  18   1  292.87   33.60
  10  18   1  374.56   43.60
 -28  10   1  274.27   41.10
  31 -13  -1   -4.50   23.50
 -18  31  -1   71.89   39.40
  18 -31   1   74.19   26.90
  13  18   1   50.39   31.20
  13  18   1  128.19   37.70
 -31  13   1   45.70   44.60
 -12  31  -1   50.39   40.00
  31 -19  -1   40.30   27.30
  19  12   1  102.49   33.10
 -31  19   1   95.99   46.40
  19  12   1  103.19   32.10
  12 -31   1   76.99   27.20
 -31  19   1   76.59   31.30
  28 -19  -1   96.39   25.90
  -9  28  -1   75.89   30.00
 -28  19   1  118.29   35.30
 -28  19   1  155.18   31.60
  19   9   1   57.89   23.70
  -6  25  -1   43.90   26.20
  25 -19  -1   25.10   16.00
  19   6   1   47.40   19.60
 -25  19   1   40.50   30.60
   6 -25   1   52.29   17.20
 -25  19   1   30.30   26.30
 -19  -3  -1  282.77   29.50
  -3  22  -1  239.08   27.30
  22 -19  -1  241.78   27.30
   3 -22   1  199.48   26.60
  19   3   1  259.27   19.00
 -22  19   1  226.08   28.30
  19   3   1  221.88   28.30
 -22  19   1  285.67   36.90
   0  19  -1   49.40   17.80
  19 -19  -1   26.50   12.80
 -19   0  -1   19.70   18.00
   0  19  -1   46.60   17.40
  19   0   1   51.49   10.60
 -19  19   1    8.40   19.00
  19   0   1   37.30   14.10
 -19  19   1   39.70   17.50
   0 -19   1   29.80   12.00
 -19   3  -1  179.28   21.40
   3  16  -1  183.58   24.60
   3  16  -1  185.68   21.60
  19  -3   1  126.69   15.90
  19  -3   1  190.78   22.00
 -16  19   1  195.48   24.70
 -16  19   1  202.48   23.70
   6  13  -1  439.36   31.90
 -19   6  -1  480.95   30.10
  13 -19  -1  491.45   29.00
   6  13  -1  476.05   29.40
  19  -6   1  445.76   22.30
 -13  19   1  501.95   32.90
  19  -6   1  475.95   26.40
   9  10  -1   11.20   13.70
 -19   9  -1   21.70   10.10
  10 -19  -1   16.50   10.20
   9  10  -1   15.50   13.80
 -19   9  -1    5.20   12.50
  19  -9   1   21.40    9.30
 -10  19   1   16.20   15.00
   7 -19  -1  182.08   19.50
 -19  12  -1  136.19   16.50
 -19  12  -1  141.19   19.80
  12   7  -1  199.38   24.90
  19 -12   1  182.08   19.60
  -7  19   1  187.28   21.50
 -12  -7   1  236.28   26.00
 -19  15  -1   61.09   14.80
   4 -19  -1   58.89   12.70
  15   4  -1   33.80   11.50
  15   4  -1   51.19   15.00
 -19  15  -1   59.99   16.90
  19 -15   1   70.89   14.10
  -4  19   1   77.69   17.80
 -15  -4   1   63.99   17.20
  18   1  -1  479.15   32.80
 -19  18  -1  479.55   33.30
  18   1  -1  470.95   25.90
 -19  18  -1  464.35   34.40
   1 -19  -1  499.25   25.00
  -1  19   1  428.46   32.70
 -18  -1   1  462.25   35.30
  19 -18   1  391.06   39.70
  21  -2  -1  381.36   28.10
 -19  21  -1  381.36   32.80
  21  -2  -1  380.76   34.00
 -21   2   1  379.36   38.10
  19 -21   1  357.76   29.70
   2  19   1  356.76   34.90
   2  19   1  411.96   34.80
  24  -5  -1  274.47   32.70
 -19  24  -1  295.17   32.00
  24  -5  -1  252.27   24.40
   5  19   1  362.76   37.50
   5  19   1  314.67   37.10
  27  -8  -1  273.27   33.10
  27  -8  -1  313.57   40.70
 -19  27  -1  285.47   35.00
 -27   8   1  327.87   41.10
   8  19   1  356.56   41.70
   8  19   1  382.56   41.40
  30 -11  -1  242.08   30.90
  30 -11  -1  219.18   35.80
 -19  30  -1  277.07   41.90
 -30  11   1  291.67   48.40
  11  19   1  286.17   38.40
  19 -30   1  211.48   31.40
  11  19   1  258.37   38.10
  30 -20  -1   -8.30   23.00
 -10  30  -1   23.60   32.90
 -30  20   1    8.70   31.00
 -30  20   1   -5.00   39.40
  10 -30   1   31.20   22.40
  20  10   1   24.60   27.30
  20  10   1  -25.10   22.50
  -7  27  -1  155.68   34.90
  27 -20  -1  197.18   27.30
   7 -27   1  162.68   24.60
 -27  20   1  159.98   34.20
 -27  20   1  146.59   31.70
  20   7   1  289.27   37.60
  -4  24  -1  248.58   32.60
  24 -20  -1  241.28   29.40
 -20  -4  -1  230.48   30.60
 -24  20   1  236.98   30.20
 -24  20   1  185.78   31.10
  20   4   1  199.48   20.10
   4 -24   1  176.58   23.00
  20   4   1  220.28   26.90
 -20  -1  -1  385.06   36.80
  -1  21  -1  422.66   37.50
  -1  21  -1  455.05   37.20
  21 -20  -1  422.46   29.80
 -21  20   1  286.97   36.40
 -21  20   1  349.17   39.50
   1 -21   1  315.97   26.90
  20   1   1  332.67   21.20
  20   1   1  286.87   28.90
 -20   2  -1 1197.38   48.40
   2  18  -1 1271.27   53.79
  18 -20  -1 1262.17   47.80
   2  18  -1 1351.36   49.70
 -18  20   1 1292.17   74.39
  20  -2   1 1310.57   39.90
 -18  20   1 1278.77   51.49
  20  -2   1 1252.57   46.40
 -20   5  -1  963.50   42.40
   5  15  -1  963.50   46.80
  15 -20  -1 1015.10   41.60
   5  15  -1  949.40   41.10
  20  -5   1  918.61   32.20
 -15  20   1  894.31   43.20
  20  -5   1  909.81   36.60
   8  12  -1  961.10   39.70
 -20   8  -1  918.11   40.30
   8  12  -1  936.41   43.30
  12 -20  -1  891.01   37.00
  20  -8   1  888.41   36.60
 -12  20   1  895.51   42.70
  20  -8   1  987.10   34.90
 -20  11  -1  786.52   36.50
   9 -20  -1  829.12   34.70
 -20  11  -1  846.22   31.60
  11   9  -1  856.11   40.30
  11   9  -1  824.12   36.10
  -9  20   1  734.73   37.50
  20 -11   1  799.02   32.80
  14   6  -1   52.09   15.90
 -20  14  -1   67.79   15.20
   6 -20  -1   38.90   12.70
 -20  14  -1   41.20   15.80
  20 -14   1   13.40   11.20
  -6  20   1   24.80   15.30
 -14  -6   1   18.00   16.30
  17   3  -1  113.39   19.70
 -20  17  -1   93.59   21.60
 -20  17  -1   79.59   17.50
  17   3  -1  102.99   15.10
   3 -20  -1  102.99   14.90
 -17  -3   1  124.29   23.10
  -3  20   1   86.19   18.90
  20 -17   1   92.69   24.00
 -20  20  -1   -5.80   19.20
 -20  20  -1    9.70   16.30
  20   0  -1   -0.50   11.70
   0 -20  -1   -2.00    9.60
  20   0  -1   19.80   16.70
   0  20   1   22.20   19.60
 -20   0   1    1.00   19.30
  20 -20   1   53.99   15.70
  23  -3  -1   72.49   16.70
  23  -3  -1   87.49   23.80
 -20  23  -1   93.59   22.60
 -23   3   1   64.39   32.40
   3  20   1   57.09   23.10
  20 -23   1   90.59   19.00
   3  20   1   64.29   21.80
  26  -6  -1  368.66   32.30
 -20  26  -1  210.08   32.70
  26  -6  -1  313.17   33.20
   6  20   1  236.78   31.10
 -26   6   1  262.57   38.90
  29  -9  -1  328.17   39.40
 -20  29  -1  359.76   42.90
  29  -9  -1  310.97   38.00
   9  20   1  403.46   50.09
 -29   9   1  488.55   65.09
   9  20   1  374.56   43.90
  20 -29   1  322.47   40.60
 -20  32  -1  204.58   46.60
  32 -12  -1  139.29   32.00
  20 -32   1  170.58   26.70
 -32  12   1  167.38   49.50
  12  20   1  282.47   42.00
  12  20   1  227.58   45.00
  32 -21  -1  -49.10   26.70
 -11  32  -1   34.40   33.20
 -32  21   1   49.30   48.80
  11 -32   1   40.20   28.00
 -32  21   1   36.70   31.70
  21  11   1  -35.80   30.70
  21  11   1   -2.60   39.20
  -8  29  -1    2.30   33.40
  29 -21  -1  -10.40   21.00
  21   8   1    6.80   17.40
  21   8   1   65.19   27.10
 -29  21   1   16.00   38.60
 -29  21   1   13.70   29.80
  -5  26  -1   34.10   26.90
 -21  -5  -1   47.30   27.90
  26 -21  -1   58.59   21.80
 -26  21   1  115.49   28.10
  21   5   1   23.50   13.90
  21   5   1   33.40   21.10
   5 -26   1   18.70   16.50
 -26  21   1   -4.20   32.80
  -2  23  -1   82.99   24.30
  23 -21  -1   59.19   16.90
  -2  23  -1   62.79   22.90
 -21  -2  -1   84.29   26.40
 -23  21   1   75.29   26.90
  21   2   1  100.99   21.80
   2 -23   1   76.49   28.00
  21   2   1   92.09   13.50
 -23  21   1   94.09   25.70
 -21   1  -1  336.37   36.50
   1  20  -1  359.16   36.10
   1  20  -1  319.87   40.40
 -20  21   1  302.97   40.20
 -20  21   1  298.67   35.90
  21  -1   1  309.27   22.60
  21  -1   1  249.48   28.40
  17 -21  -1  860.01   40.10
 -21   4  -1  817.02   42.10
   4  17  -1  872.41   44.90
   4  17  -1  839.22   41.70
 -17  21   1  797.62   50.79
  21  -4   1  832.02   36.30
  21  -4   1  842.62   31.00
  14 -21  -1  321.67   26.00
   7  14  -1  341.47   31.80
 -21   7  -1  341.17   32.50
  21  -7   1  341.07   22.60
 -14  21   1  381.16   35.10
  21  -7   1  306.67   25.70
  11 -21  -1  421.56   27.30
  10  11  -1  379.46   30.90
  10  11  -1  438.86   33.40
 -21  10  -1  401.36   22.60
 -21  10  -1  431.46   32.90
 -11  21   1  429.86   33.80
  21 -10   1  395.56   24.40
  13   8  -1  245.58   28.60
 -21  13  -1  217.88   23.90
 -21  13  -1  250.27   29.30
   8 -21  -1  251.17   23.10
  21 -13   1  272.87   24.00
 -13  -8   1  262.67   28.80
  -8  21   1  261.17   30.50
  16   5  -1   12.90   11.60
  16   5  -1   39.50   16.20
   5 -21  -1   37.90   12.50
 -21  16  -1   24.20   17.40
 -21  16  -1   31.30   17.70
  21 -16   1   17.10   11.80
  -5  21   1   37.70   19.10
 -16  -5   1   28.50   19.60
   2 -21  -1  259.97   22.40
 -21  19  -1  282.47   33.10
  19   2  -1  250.37   23.30
  19   2  -1  317.97   32.50
 -21  19  -1  269.67   35.90
 -19  -2   1  283.87   37.10
  21 -19   1  301.07   28.90
  -2  21   1  293.17   33.90
 -21  22  -1  789.42   44.80
  22  -1  -1  732.03   44.00
  22  -1  -1  766.32   37.40
 -21  22  -1  626.94   47.30
 -22   1   1  620.24   49.00
   1  21   1  674.73   46.40
  21 -22   1  596.94   37.50
  25  -4  -1  351.46   38.50
  25  -4  -1  268.37   28.40
   4  21   1  404.36   43.60
 -25   4   1  405.56   51.19
   4  21   1  377.36   42.90
  28  -7  -1  326.67   36.20
  28  -7  -1  338.27   43.90
 -21  28  -1  266.27   40.70
   7  21   1  254.87   36.60
   7  21   1  283.97   34.80
 -28   7   1  312.37   45.10
  31 -10  -1  256.97   34.60
 -21  31  -1  219.48   44.40
  31 -10  -1  228.28   39.20
  10  21   1  215.98   39.00
  21 -31   1  285.37   36.80
  10  21   1  206.38   42.90
 -31  10   1  186.58   48.70
  -9  31  -1   38.50   38.40
  31 -22  -1    3.50   25.90
  22   9   1  -14.30   19.00
 -31  22   1   50.49   33.60
 -31  22   1   81.89   49.40
   9 -31   1   42.70   25.90
  22   9   1   52.79   31.90
  28 -22  -1   65.89   23.20
  -6  28  -1  106.89   36.10
 -28  22   1  111.69   33.80
  22   6   1  106.69   19.50
  22   6   1  136.89   28.20
 -28  22   1  126.39   39.90
  -3  25  -1  173.78   32.10
 -22  -3  -1  133.09   30.50
  -3  25  -1  126.29   28.30
  25 -22  -1  214.58   27.90
 -25  22   1  206.98   35.80
  22   3   1  161.88   18.80
   3 -25   1  193.18   24.50
 -25  22   1  177.38   34.50
   0  22  -1   30.40   21.50
  22 -22  -1  -17.30   12.30
 -22   0  -1   22.10   22.30
   0  22  -1   13.60   23.10
 -22  22   1   23.30   24.40
 -22  22   1   42.80   23.20
  22   0   1   32.90   12.30
  22   0   1   33.30   18.50
   3  19  -1  115.99   24.00
 -22   3  -1  105.89   23.60
   3  19  -1   96.79   28.00
 -19  22   1   77.09   22.80
  22  -3   1  100.19   18.80
 -19  22   1  100.29   27.20
   6  16  -1   54.09   20.20
 -22   6  -1   80.29   21.40
  16 -22  -1   56.09   15.80
   6  16  -1   48.00   20.10
  22  -6   1   88.79   17.50
  22  -6   1   60.89   12.90
 -16  22   1   73.39   20.50
 -22   9  -1  225.58   26.40
  13 -22  -1  230.18   23.30
   9  13  -1  304.57   31.10
   9  13  -1  283.67   31.30
  22  -9   1  292.87   22.30
 -13  22   1  282.77   33.90
  12  10  -1  348.47   31.40
 -22  12  -1  345.27   33.50
 -22  12  -1  323.47   25.40
  12  10  -1  357.26   38.70
  22 -12   1  339.87   26.10
  15   7  -1   98.69   21.00
 -22  15  -1  110.19   19.30
 -22  15  -1   73.59   23.20
   7 -22  -1   98.29   16.50
 -15  -7   1  129.89   23.20
  22 -15   1  142.19   19.20
  18   4  -1  200.68   23.50
   4 -22  -1  255.67   24.00
 -22  18  -1  224.28   27.60
 -22  18  -1  193.08   25.00
  22 -18   1  156.08   20.00
 -18  -4   1  187.08   28.00
 -22  21  -1  455.45   41.80
  21   1  -1  532.65   38.60
   1 -22  -1  506.75   28.40
  21   1  -1  572.94   32.60
 -22  21  -1  552.24   45.60
 -21  -1   1  467.15   53.29
  22 -21   1  471.85   35.40
  -1  22   1  493.75   42.40
 -22  24  -1  395.86   49.30
  24  -2  -1  386.56   32.60
 -22  24  -1  399.76   42.40
  24  -2  -1  298.77   40.20
  22 -24   1  298.87   33.40
 -24   2   1  304.87   37.40
   2  22   1  329.37   41.10
   2  22   1  359.66   44.20
  27  -5  -1  265.57   32.20
 -22  27  -1  367.96   48.30
  27  -5  -1  257.17   30.50
   5  22   1  324.57   39.10
 -27   5   1  243.28   42.90
   5  22   1  308.27   35.30
  30  -8  -1  194.88   37.30
 -22  30  -1  184.08   41.50
  30  -8  -1  222.38   31.10
  22 -30   1  166.18   30.30
 -30   8   1  193.08   47.00
   8  22   1  201.38   38.90
   8  22   1  135.39   39.10
  30 -23  -1  -11.40   24.00
  -7  30  -1   33.90   39.60
 -30  23   1   31.10   33.30
  23   7   1   28.30   28.70
  23   7   1   23.50   20.90
 -30  23   1   40.20   42.60
  -4  27  -1  145.49   33.00
  -4  27  -1  212.48   35.40
  27 -23  -1  130.39   25.00
 -23  -4  -1  223.68   35.00
 -27  23   1  261.07   39.10
   4 -27   1  152.48   24.70
 -27  23   1  145.09   38.00
  23   4   1  144.59   27.70
  23   4   1  141.79   20.00
  -1  24  -1  199.48   32.90
  24 -23  -1  174.98   23.80
 -23  -1  -1  195.88   31.70
  -1  24  -1  208.58   31.70
 -24  23   1  211.08   33.90
  23   1   1  177.28   26.90
   1 -24   1  215.38   28.40
  23   1   1  182.18   19.60
 -24  23   1  181.68   30.30
   2  21  -1  436.46   42.50
 -23   2  -1  375.56   42.00
   2  21  -1  438.26   45.20
  23  -2   1  387.26   26.40
 -21  23   1  357.56   40.40
 -21  23   1  373.46   43.40
  23  -2   1  462.35   37.00
   5  18  -1  540.15   41.30
 -23   5  -1  581.74   42.00
   5  18  -1  543.05   40.20
  23  -5   1  581.54   28.50
  23  -5   1  513.15   33.70
 -18  23   1  539.55   40.70
   8  15  -1  390.36   35.50
 -23   8  -1  391.16   37.20
   8  15  -1  407.36   37.30
  15 -23  -1  390.26   29.10
  23  -8   1  504.95   28.80
  23  -8   1  435.06   31.20
 -15  23   1  485.05   40.90
 -23  11  -1  605.74   40.00
  11  12  -1  583.84   37.80
  12 -23  -1  632.94   33.80
 -23  11  -1  568.54   27.10
  11  12  -1  609.34   39.90
  23 -11   1  640.14   33.10
 -12  23   1  655.93   42.20
 -23  14  -1  358.96   29.60
  14   9  -1  357.26   35.40
   9 -23  -1  416.16   29.30
 -23  14  -1  380.56   37.30
 -14  -9   1  402.96   38.30
  23 -14   1  382.86   28.60
  -9  23   1  411.06   36.10
 -23  17  -1   84.89   19.70
   6 -23  -1   48.80   15.10
  17   6  -1   29.60   17.20
 -23  17  -1   74.19   24.10
  -6  23   1   26.50   20.00
 -17  -6   1   64.99   24.00
  23 -17   1   33.10   15.00
  20   3  -1   19.20   14.00
   3 -23  -1   27.30   13.40
  20   3  -1   21.50   17.90
 -23  20  -1   31.30   21.70
 -23  20  -1   38.70   29.10
  23 -20   1   11.50   14.20
  -3  23   1   23.30   22.10
  23   0  -1  -15.40   18.70
 -23  23  -1   56.79   26.60
 -23  23  -1   13.60   25.10
  23   0  -1   40.50   17.80
 -23   0   1    3.40   27.20
   0  23   1   43.10   26.50
  23 -23   1   29.70   18.20
  26  -3  -1   97.79   24.80
 -23  26  -1   19.50   30.00
 -23  26  -1   25.50   28.50
   3  23   1   63.59   28.30
  23 -26   1   37.60   20.60
   3  23   1   -2.60   25.10
 -26   3   1   25.30   32.90
  29  -6  -1  133.59   31.30
 -23  29  -1  163.88   36.80
  29  -6  -1  141.39   26.20
 -29   6   1  120.59   43.50
   6  23   1  147.79   34.40
   6  23   1  119.49   34.70
  23 -29   1  137.99   29.20
  29 -24  -1   34.70   23.30
  -5  29  -1    2.00   31.50
  -5  29  -1  -21.20   31.60
 -29  24   1  -51.19   41.60
 -29  24   1  -20.40   35.80
  24   5   1  -21.00   24.80
   5 -29   1    0.20   23.40
  24   5   1  -30.70   17.90
  26 -24  -1   46.80   19.60
  -2  26  -1   44.30   31.30
  -2  26  -1   87.79   30.00
 -26  24   1  101.79   34.70
   2 -26   1   53.29   19.00
 -26  24   1   87.99   34.30
  24   2   1   63.69   18.30
   1  23  -1  157.08   31.40
 -24   1  -1  127.99   29.50
   1  23  -1   95.09   31.50
  24  -1   1  111.39   17.90
  24  -1   1  125.49   25.40
 -23  24   1   93.79   26.20
 -23  24   1  138.19   33.70
 -24   4  -1  289.07   32.70
   4  20  -1  275.57   33.40
   4  20  -1  273.77   32.80
  24  -4   1  232.88   28.10
 -20  24   1  240.08   32.90
  24  -4   1  261.07   22.60
 -20  24   1  246.48   29.90
   7  17  -1   23.60   21.60
   7  17  -1    5.30   18.30
 -24   7  -1    1.80   21.80
  17 -24  -1    8.50   13.10
 -17  24   1   32.10   22.90
  24  -7   1   37.30   13.80
  24  -7   1   32.40   16.00
  10  14  -1  504.95   39.10
  10  14  -1  459.85   39.30
  14 -24  -1  528.05   32.70
 -24  10  -1  457.35   40.20
 -14  24   1  431.26   41.50
  24 -10   1  437.96   28.30
  13  11  -1  141.99   23.70
  13  11  -1  153.08   25.40
 -24  13  -1  141.59   18.20
 -24  13  -1  193.58   27.70
  11 -24  -1  165.28   20.40
  24 -13   1  174.58   21.60
 -11  24   1  187.68   27.90
  16   8  -1   11.20   17.90
 -24  16  -1   21.20   18.40
   8 -24  -1   28.90   14.80
 -24  16  -1   14.60   22.90
 -16  -8   1   -5.30   26.20
  -8  24   1   11.00   21.60
  24 -16   1   -7.70   13.10
 -24  19  -1  311.97   40.50
  19   5  -1  303.87   27.30
  19   5  -1  291.87   36.30
   5 -24  -1  241.48   26.70
  24 -19   1  225.98   26.90
  -5  24   1  197.08   28.40
 -19  -5   1  200.98   32.40
 -24  22  -1  371.36   49.00
  22   2  -1  361.76   30.70
   2 -24  -1  348.17   28.30
 -24  22  -1  331.07   44.00
  22   2  -1  445.26   39.40
 -22  -2   1  368.46   49.50
  24 -22   1  475.45   38.00
  -2  24   1  382.36   46.30
 -24  25  -1  291.27   39.80
 -24  25  -1  335.27   39.50
  25  -1  -1  399.26   36.90
  25  -1  -1  304.77   34.70
  24 -25   1  357.86   38.30
 -25   1   1  322.17   43.00
   1  24   1  282.47   36.80
   1  24   1  451.25   50.49
  28  -4  -1  330.97   33.60
  28  -4  -1  296.77   35.90
 -24  28  -1  347.77   45.10
 -24  28  -1  354.46   52.99
  24 -28   1  374.16   43.10
   4  24   1  470.25   52.99
   4  24   1  454.15   55.19
 -28   4   1  367.16   48.20
  31  -7  -1  106.79   29.10
  31  -7  -1  194.08   39.10
 -24  31  -1   64.19   44.70
   7  24   1   80.19   42.30
   7  24   1   56.29   37.30
 -31   7   1  -22.00   43.40
  -6  31  -1   85.49   36.80
  31 -25  -1   82.29   48.30
  25   6   1  132.79   35.10
   6 -31   1  189.18   31.10
 -31  25   1  131.09   41.50
 -31  25   1  214.08   56.09
  -3  28  -1   71.79   36.10
 -25  -3  -1   43.50   33.20
  28 -25  -1   20.70   23.60
  -3  28  -1   68.49   31.60
   3 -28   1   45.00   21.30
  25   3   1   34.10   19.80
 -28  25   1  114.49   39.60
 -28  25   1   83.49   40.50
  25   3   1   50.89   28.10
   0  25  -1   30.50   29.00
  25 -25  -1   19.20   20.90
 -25   0  -1    4.70   30.70
   0  25  -1    9.80   32.10
  25   0   1   39.20   18.10
  25   0   1   16.00   22.70
 -25  25   1   24.40   31.10
 -25  25   1  -20.30   28.00
   3  22  -1   79.69   29.70
   3  22  -1  112.99   27.30
 -25   3  -1  110.79   28.70
 -22  25   1   75.39   28.10
  25  -3   1   76.19   20.80
  25  -3   1   76.89   15.40
 -22  25   1   88.09   28.60
   6  19  -1   -2.50   20.90
   6  19  -1  -10.30   24.00
 -25   6  -1    2.40   23.50
 -19  25   1   22.00   22.10
  25  -6   1   -2.80   13.20
  25  -6   1   39.30   17.80
   9  16  -1   52.79   23.50
 -25   9  -1   49.30   25.40
  16 -25  -1   64.39   16.80
   9  16  -1  111.39   26.10
  25  -9   1   27.90   17.10
 -16  25   1   71.09   26.00
  25  -9   1   59.59   16.10
  12  13  -1   94.59   24.20
  13 -25  -1  119.79   19.00
  12  13  -1   86.69   23.20
 -25  12  -1  144.49   27.40
 -25  12  -1  141.89   16.60
 -13  25   1  115.79   27.10
  25 -12   1  140.19   20.40
 -25  15  -1  131.29   27.30
  15  10  -1   90.29   24.10
 -25  15  -1  105.29   19.50
  15  10  -1  123.29   24.10
  10 -25  -1  108.89   19.50
 -10  25   1  129.29   26.60
  25 -15   1   91.89   19.50
   7 -25  -1  233.88   27.40
  18   7  -1  215.88   23.30
 -25  18  -1  201.58   27.10
  18   7  -1  235.58   31.70
  -7  25   1  206.68   29.80
  25 -18   1  209.48   24.30
 -18  -7   1  179.68   30.40
  21   4  -1  317.87   29.90
 -25  21  -1  350.96   46.80
 -25  21  -1  410.36   51.29
  21   4  -1  370.66   38.40
   4 -25  -1  359.96   29.30
 -21  -4   1  390.56   52.79
  25 -21   1  507.15   37.10
  -4  25   1  454.45   50.49
  24   1  -1  234.58   27.50
 -25  24  -1  266.97   42.00
  24   1  -1  294.57   35.20
 -25  24  -1  351.86   39.30
  25 -24   1  309.37   38.10
 -24  -1   1  299.07   40.60
  -1  25   1  297.07   38.40
  27  -2  -1  503.85   41.60
 -25  27  -1  507.95   60.39
 -25  27  -1  620.04   66.79
  27  -2  -1  637.94   59.69
   2  25   1  563.94   58.09
   2  25   1  521.25   55.59
 -27   2   1  500.35   65.29
  25 -27   1  412.76   43.70
 -25  30  -1  196.88   54.39
  30  -5  -1   86.69   33.80
  30  -5  -1  196.18   31.40
 -25  30  -1  108.89   44.10
 -30   5   1  101.59   44.00
   5  25   1  104.69   36.60
  25 -30   1   63.79   27.70
   5  25   1  102.79   39.20
  30 -26  -1  112.49   39.20
  -4  30  -1   23.70   44.20
  26   4   1  126.99   25.30
  26   4   1  182.08   36.10
 -30  26   1   28.60   54.59
 -30  26   1  172.18   45.60
 -26  -1  -1  180.18   38.30
  -1  27  -1  109.89   37.50
  27 -26  -1  157.68   28.10
  -1  27  -1  112.39   42.40
 -27  26   1  158.98   44.40
 -27  26   1  120.49   39.80
  26   1   1  164.48   24.80
  26   1   1   71.99   29.80
   2  24  -1   74.29   28.40
   2  24  -1   49.00   34.10
 -26   2  -1   27.30   28.40
 -24  26   1   81.09   30.10
 -24  26   1   20.40   33.50
  26  -2   1    7.90   14.50
  26  -2   1   36.90   21.40
 -26   5  -1   43.50   27.80
   5  21  -1   69.99   29.90
   5  21  -1   -2.80   23.60
  26  -5   1   51.59   15.90
 -21  26   1   28.40   23.90
  26  -5   1   54.09   25.90
 -21  26   1   48.30   29.60
   8  18  -1  103.59   28.00
 -26   8  -1  112.59   28.80
   8  18  -1   97.49   26.60
  26  -8   1  115.79   19.50
  26  -8   1  110.69   23.50
 -18  26   1  119.19   28.40
 -26  11  -1  319.57   34.50
  11  15  -1  293.77   32.40
  11  15  -1  317.37   40.70
 -15  26   1  341.87   43.10
  26 -11   1  366.36   39.90
  14  12  -1  270.17   30.10
 -26  14  -1  292.77   34.00
 -26  14  -1  357.06   29.10
  14  12  -1  361.86   39.10
  12 -26  -1  286.57   29.80
  26 -14   1  386.86   33.80
 -12  26   1  287.47   33.60
   9 -26  -1   39.90   17.10
 -26  17  -1   34.80   20.90
  26 -17   1   59.89   16.90
  -9  26   1   93.19   26.60
 -26  20  -1  222.78   29.80
  20   6  -1  211.18   29.90
   6 -26  -1  178.08   22.30
  20   6  -1  163.58   22.90
 -26  20  -1  161.18   33.70
  -6  26   1  220.28   34.00
 -20  -6   1  164.08   36.00
  26 -20   1  163.48   22.10
   3 -26  -1   65.79   18.20
 -26  23  -1   34.30   32.70
 -26  23  -1  -22.60   28.50
  23   3  -1   35.70   24.60
  23   3  -1   44.50   31.70
 -23  -3   1   60.29   35.00
  26 -23   1  106.79   23.70
  -3  26   1   -3.20   30.50
 -26  26  -1  -37.90   37.30
  26   0  -1   -4.30   21.20
  26   0  -1   11.70   26.50
 -26  26  -1  -13.50   32.20
  26 -26   1   41.10   25.10
   0  26   1  -21.50   30.50
   0  26   1   12.70   31.40
 -26   0   1   14.20   35.30
 -26  29  -1   99.99   46.10
  29  -3  -1   26.20   29.40
  29  -3  -1   20.00   21.80
 -26  29  -1   23.20   41.60
  26 -29   1  -12.40   19.40
   3  26   1   58.49   34.00
   3  26   1   81.49   39.10
 -29   3   1   31.20   42.90
  -2  29  -1  120.69   47.30
  29 -27  -1  117.29   39.90
 -27  -2  -1  100.79   36.00
  -2  29  -1  115.69   38.00
 -29  27   1  162.78   47.20
  27   2   1   48.20   31.90
  27   2   1  122.79   29.40
 -29  27   1  139.69   52.09
   1  26  -1   -1.10   38.30
   1  26  -1  141.59   37.00
  26 -27  -1   55.29   25.90
 -27   1  -1   97.19   32.80
  27  -1   1  -28.80   16.30
 -26  27   1   14.30   34.90
  27  -1   1   67.79   26.00
 -26  27   1   68.29   38.70
   4  23  -1  137.79   37.80
 -27   4  -1  170.78   52.19
   4  23  -1  106.59   32.80
 -23  27   1  180.68   38.50
  27  -4   1  135.69   21.70
  27  -4   1   88.29   23.00
 -23  27   1  115.79   30.30
  20 -27  -1   97.69   21.20
 -27   7  -1  162.08   30.80
   7  20  -1  112.49   28.30
   7  20  -1  137.29   31.90
  27  -7   1  101.29   24.10
 -20  27   1  128.29   31.10
  27  -7   1  131.69   21.00
  10  17  -1  126.59   28.80
  10  17  -1  120.79   28.70
 -27  10  -1  134.99   31.10
 -17  27   1  135.29   30.40
  27 -10   1  142.69   30.00
 -27  13  -1  149.99   31.70
  13  14  -1  133.59   29.20
 -14  27   1  118.89   32.50
  27 -13   1  128.19   22.80
 -27  16  -1   55.79   19.80
  16  11  -1   84.09   25.30
 -27  16  -1   68.39   35.50
  16  11  -1   56.09   23.20
  11 -27  -1   64.89   20.10
  27 -16   1   64.49   19.60
 -11  27   1  102.09   28.60
  19   8  -1  246.28   26.50
 -27  19  -1  253.67   29.70
   8 -27  -1  297.57   30.80
 -27  19  -1  235.48   35.60
  19   8  -1  278.87   35.70
  27 -19   1  280.57   31.50
  -8  27   1  334.77   39.50
 -19  -8   1  234.68   37.80
 -27  22  -1  488.05   58.89
 -27  22  -1  620.44   52.89
  22   5  -1  324.87   39.90
  22   5  -1  437.66   45.90
   5 -27  -1  460.05   34.90
  27 -22   1  387.56   40.50
  -5  27   1  495.55   58.59
 -22  -5   1  403.36   45.60
 -27  25  -1  290.57   47.00
  25   2  -1  294.17   32.10
 -27  25  -1  301.57   40.80
  25   2  -1  272.47   37.20
 -25  -2   1  278.97   44.90
  -2  27   1  264.37   42.80
  27 -25   1  288.67   34.70
  28  -1  -1  377.86   45.70
 -27  28  -1  297.87   48.00
 -27  28  -1  216.38   51.59
  28  -1  -1  488.95   62.59
   1  27   1  307.77   43.20
  27 -28   1  235.08   28.90
   1  27   1  219.88   41.70
 -28   1   1  234.98   48.40
  28 -28  -1  104.59   41.30
   0  28  -1   20.60   45.30
 -28   0  -1  -24.70   32.90
   0  28  -1   89.79   26.80
  28   0   1   -4.40   28.20
 -28  28   1  -48.80   44.60
 -28  28   1   64.29   45.20
 -28   3  -1   -5.00   32.80
   3  25  -1  -37.70   31.30
   3  25  -1   34.70   38.90
  25 -28  -1   34.80   24.60
 -25  28   1  -31.90   34.40
  28  -3   1  -14.40   22.50
  28  -3   1   31.50   24.70
 -25  28   1   33.40   36.30
 -28   6  -1  115.69   39.20
  22 -28  -1  149.59   29.40
   6  22  -1  178.08   36.70
   6  22  -1  112.49   32.20
 -22  28   1  114.19   40.20
 -22  28   1  182.18   35.60
  28  -6   1  177.98   27.40
 -28   9  -1   74.99   36.10
   9  19  -1   73.29   30.90
   9  19  -1   45.80   28.20
  19 -28  -1   18.80   19.80
  28  -9   1   44.40   17.60
 -19  28   1   61.49   30.90
  12  16  -1   36.90   25.90
  12  16  -1   -2.10   23.90
  28 -12   1   73.89   21.00
 -16  28   1   32.30   27.10
 -28  15  -1  123.39   19.40
 -28  15  -1  112.29   33.60
  15  13  -1  164.68   28.50
  15  13  -1  108.29   27.40
 -13  28   1  116.29   29.40
  28 -15   1  129.79   23.30
  18  10  -1  265.67   34.50
  10 -28  -1  247.78   28.70
  18  10  -1  229.28   31.10
 -28  18  -1  180.28   35.80
 -28  18  -1  256.67   28.50
 -10  28   1  264.47   38.80
  28 -18   1  235.28   27.20
  21   7  -1  173.58   32.50
 -28  21  -1  147.99   38.60
   7 -28  -1  156.18   24.50
  21   7  -1  205.78   25.70
 -28  21  -1  153.18   30.30
 -21  -7   1  214.68   40.10
  28 -21   1  195.48   26.80
  -7  28   1  223.78   39.00
   4 -28  -1  233.18   26.00
 -28  24  -1  287.57   48.40
  24   4  -1  245.88   36.10
 -28  24  -1  318.77   41.60
  24   4  -1  230.68   29.60
  -4  28   1  217.58   41.60
 -24  -4   1  233.78   45.40
 -28  27  -1  225.98   43.30
  27   1  -1  233.18   33.90
  27   1  -1  286.17   39.80
 -28  27  -1  263.47   52.89
  28 -27   1  213.18   30.70
  -1  28   1  200.08   43.60
 -27  -1   1  228.68   46.40
  -1  28   1  161.08   42.20
 -29   2  -1  147.99   36.50
   2  27  -1  107.59   46.10
 -27  29   1  133.89   46.40
  29  -2   1   76.79   22.90
 -27  29   1   82.19   50.29
  29  -2   1  118.59   30.70
 -29   5  -1    4.60   32.30
   5  24  -1   11.70   36.00
   5  24  -1  -27.40   31.30
  24 -29  -1   41.80   24.30
 -24  29   1   63.19   38.30
 -24  29   1    5.00   34.30
  29  -5   1    2.40   20.10
  29  -5   1   59.39   25.80
   8  21  -1   20.30   28.40
  21 -29  -1   16.70   21.50
   8  21  -1   45.40   31.70
 -29   8  -1   76.19   31.80
  29  -8   1   50.19   20.60
  29  -8   1   30.20   24.10
 -21  29   1   88.89   37.20
 -21  29   1   31.40   31.20
  11  18  -1   39.30   29.50
  18 -29  -1   44.00   20.80
  11  18  -1  112.19   30.20
 -29  11  -1   26.90   31.30
 -18  29   1   49.80   32.50
  29 -11   1  108.59   21.70
  14  15  -1  128.79   30.00
  15 -29  -1  113.19   27.40
  14  15  -1  175.88   30.40
 -29  14  -1  133.19   34.30
 -15  29   1  178.98   43.90
  29 -14   1  146.99   25.70
 -29  17  -1  107.69   34.60
  17  12  -1  118.49   29.70
 -29  17  -1   87.89   21.40
  17  12  -1   77.69   28.00
  29 -17   1   52.19   21.70
 -12  29   1   77.09   30.20
  20   9  -1  332.27   36.30
 -29  20  -1  319.57   34.20
 -29  20  -1  350.66   44.50
  20   9  -1  311.27   37.50
  -9  29   1  334.77   39.80
  29 -20   1  344.27   39.00
 -29  23  -1   56.89   33.10
   6 -29  -1   95.19   21.50
  23   6  -1   73.89   29.60
 -29  23  -1  -95.59   40.30
  23   6  -1   19.90   22.00
 -23  -6   1   36.10   38.50
  -6  29   1   40.40   39.90
  29 -23   1   85.99   25.20
  26   3  -1   -4.50   30.30
 -29  26  -1   30.70   38.50
  26   3  -1    1.40   23.80
 -29  26  -1   25.80   43.90
  -3  29   1   21.90   42.30
  29 -26   1    3.40   25.30
 -26  -3   1   11.50   42.80
 -30   4  -1   94.39   38.00
   4  26  -1   54.09   25.30
   4  26  -1   83.89   45.10
 -26  30   1  143.49   46.10
  30  -4   1  145.69   34.40
  30  -4   1  135.89   27.70
 -26  30   1   36.10   42.80
   7  23  -1  -37.30   31.80
   7  23  -1   22.30   33.80
  23 -30  -1   29.40   24.50
 -30   7  -1    2.50   34.00
  30  -7   1   66.39   22.90
 -23  30   1   13.80   33.60
 -23  30   1   18.60   39.10
  30  -7   1   62.89   29.10
  20 -30  -1   30.70   24.40
 -30  10  -1   17.80   34.20
  10  20  -1   11.20   30.70
  10  20  -1   49.30   33.10
 -20  30   1   44.40   31.50
  30 -10   1  -13.70   19.80
  13  17  -1   88.19   33.20
 -30  13  -1  126.69   35.80
  17 -30  -1  136.39   26.20
  13  17  -1  203.18   33.80
  30 -13   1  140.59   26.30
 -17  30   1  116.89   36.30
  16  14  -1  202.08   35.50
  16  14  -1  127.59   33.20
 -30  16  -1  233.48   28.70
  14 -30  -1  201.68   28.00
 -30  16  -1  133.79   37.50
 -14  30   1  139.39   37.00
  30 -16   1  127.49   26.90
  19  11  -1  127.49   32.40
  19  11  -1  169.98   35.30
 -30  19  -1  165.48   25.80
 -30  19  -1  137.89   39.10
 -11  30   1  214.08   42.50
  30 -19   1  192.98   28.90
  22   8  -1  250.47   31.60
 -30  22  -1  240.38   45.10
  22   8  -1  211.58   39.00
  30 -22   1  249.08   32.20
 -22  -8   1  274.57   49.70
  -8  30   1  367.36   47.10
 -30  25  -1   97.39   47.40
  25   5  -1   87.69   36.20
  25   5  -1  175.08   30.30
 -30  25  -1  253.47   36.90
   5 -30  -1  189.48   26.90
  -5  30   1  177.48   49.50
 -25  -5   1  136.09   46.40
  30 -25   1  186.58   34.20
 -31   6  -1   61.19   37.40
   6  25  -1   83.09   41.90
   6  25  -1    5.20   28.30
  31  -6   1  -67.39   29.00
 -25  31   1  -31.80   39.70
 -25  31   1   84.39   40.60
  31  -6   1   65.49   26.70
   9  22  -1   29.10   35.20
 -31   9  -1   57.99   35.00
  22 -31  -1   24.00   20.70
   9  22  -1   42.90   36.60
 -22  31   1    7.90   36.10
 -22  31   1   72.29   44.50
  31  -9   1    9.10   23.40
  12  19  -1   39.30   35.00
  19 -31  -1  107.39   26.80
  12  19  -1   83.09   36.40
 -31  12  -1   80.69   37.50
  31 -12   1   97.09   26.60
 -19  31   1   58.39   41.10
  16 -31  -1   62.79   27.10
  15  16  -1    2.60   34.20
 -31  15  -1   52.89   35.70
  15  16  -1   25.80   32.10
  31 -15   1   68.99   24.50
 -16  31   1  -22.10   43.00
 -31  18  -1   49.80   21.70
 -31  18  -1   58.19   38.10
  18  13  -1  107.29   37.30
  13 -31  -1   74.19   24.30
  18  13  -1   39.10   33.70
 -13  31   1   94.79   38.70
  31 -18   1   45.60   25.00
 -31  21  -1  174.18   30.30
 -31  21  -1  190.68   45.20
  21  10  -1  166.78   28.30
  21  10  -1  169.98   38.10
  21  10  -1   72.89   34.30
 -10  31   1  204.88   44.50
  31 -21   1  127.79   29.60
 -31  24  -1  202.58   50.79
  24   7  -1  116.09   39.70
 -31  24  -1  145.89   35.30
  24   7  -1  103.09   29.30
 -24  -7   1   86.99   46.50
  -7  31   1  195.58   52.89
  31 -24   1  124.79   32.10
  11  21  -1   50.39   41.90
 -32  11  -1   52.49   38.40
  11  21  -1   87.09   41.40
  32 -11   1  172.28   30.10
 -21  32   1   86.99   33.90
 -32  14  -1   30.80   39.30
  14  18  -1   74.49   37.40
  18 -32  -1   86.89   28.60
  14  18  -1   87.39   40.40
  32 -14   1  127.59   28.60
 -18  32   1   40.00   46.00
 -32  17  -1  281.47   47.00
  17  15  -1  292.47   44.00
  17  15  -1  331.47   47.30
  15 -32  -1  307.77   36.70
  32 -17   1  311.77   36.70
 -15  32   1  219.38   49.60
  12 -32  -1  219.68   32.70
  20  12  -1  192.78   40.60
 -32  20  -1  216.78   45.90
  20  12  -1  161.48   40.00
 -32  20  -1  235.18   28.40
 -12  32   1  252.47   50.09
  32 -20   1  215.08   34.30
   0  -1  -2  421.96   12.80
  -1   1  -2  377.16   12.90
  -1   1  -2  414.96   13.00
   0  -1  -2  414.16   12.60
   1   0  -2  379.46   13.90
   1   0  -2  435.76   14.50
  -1   1  -2  427.96   12.60
   0  -1  -2  378.16   12.30
   1  -1   2  410.66   13.20
   0   1   2  375.16   13.00
  -1   0   2  426.96   14.40
  -1   0   2  383.06   14.40
   1  -1   2  431.06   12.70
   0   1   2  434.96   13.20
   1  -1   2  370.26   13.30
  -2   0  -2 1715.73   33.90
  -2   0  -2 1679.83   34.00
   2  -2  -2 1732.63   38.70
   0   2  -2 1677.63   38.20
   2  -2  -2 1768.92   38.10
  -2   0  -2 1711.73   33.80
   0   2  -2 1704.93   38.10
  -2   2   2 1908.31   41.40
  -2   2   2 1853.81   41.50
   0  -2   2 1890.01   41.90
   2   0   2 1878.81   38.00
   0  -2   2 1831.92   41.00
   2   0   2 1815.72   36.40
   2   0   2 1859.21   37.70
  -1  -2  -2 1410.76   33.90
  -2   3  -2 1682.53   36.70
  -1  -2  -2 1661.13   32.50
  -2   3  -2 1675.13   36.20
   3  -1  -2 1691.63   38.50
   3  -1  -2 1814.12   48.90
  -3   1   2 1654.33   38.90
   1   2   2 1593.24   33.50
   1   2   2 1633.64   34.20
  -3   1   2 1632.24   37.90
   2  -3   2 1620.64   36.40
  -1   4  -2  685.93   20.90
  -1   4  -2  706.83   24.00
   4  -3  -2  702.23   21.00
   4  -3  -2  662.53   21.90
   1  -4   2  618.14   19.90
  -4   3   2  622.94   20.50
  -4   3   2  616.54   21.60
   1  -4   2  662.23   20.10
   1  -3  -2 1255.57   28.80
  -3   2  -2 1267.37   27.90
   2   1  -2 1351.56   36.00
  -3   2  -2 1313.57   28.40
   2   1  -2 1249.38   31.30
   3  -2   2 1254.77   27.90
  -1   3   2 1262.87   29.10
  -2  -1   2 1207.58   31.40
  -1   3   2 1243.28   29.60
  -3   5  -2 2316.07   51.09
   5  -2  -2 2386.26   54.19
   5  -2  -2 2383.66   52.79
   3  -5   2 2678.33   56.69
  -5   2   2 2674.33   59.59
  -5   2   2 2595.94   57.39
   2   3   2 2580.34   50.09
  -2   6  -2 1770.32   42.10
   6  -4  -2 1745.93   41.80
  -2   6  -2 1749.12   41.40
   6  -4  -2 1646.84   42.80
   2  -6   2 1711.13   40.90
  -6   4   2 1690.83   41.60
  -6   4   2 1692.93   43.40
   3  -4  -2  221.18   11.60
   3  -4  -2  203.88   12.90
   1   3  -2  213.18   12.90
   1   3  -2  209.28   12.50
   4  -1   2  160.08    7.40
  -3   4   2  186.98   11.60
  -3   4   2  184.08   12.50
   4  -1   2  179.78    7.50
  -1  -3   2  184.58   12.90
  -4   4  -2  973.10   24.50
   4   0  -2  973.00   28.30
   0  -4  -2  969.00   21.80
   4   0  -2  995.50   27.00
   0   4   2 1073.69   25.50
  -4   0   2 1125.59   29.70
  -4   0   2 1103.69   31.20
   4  -4   2 1103.99   27.90
  -4   7  -2   26.90    7.40
   7  -3  -2   15.70    6.90
   7  -3  -2   32.40    8.70
  -7   3   2    3.00    6.40
  -7   3   2    7.30    7.40
   4  -7   2   12.70    5.90
   8  -5  -2  731.13   26.10
   8  -5  -2  692.73   24.00
  -3   8  -2  703.93   24.30
  -8   5   2  743.63   27.30
  -8   5   2  735.23   25.60
   5   3   2  757.02   20.10
   3  -8   2  748.23   24.70
   5  -5  -2 2473.25   56.89
   5  -5  -2 2516.85   55.49
   0   5  -2 2580.34   56.99
   0   5  -2 2492.25   55.49
  -5   5   2 2503.35   56.79
   0  -5   2 2421.36   54.59
   0  -5   2 2547.55   56.19
  -5   5   2 2441.26   55.19
   2  -5  -2  982.60   25.20
   3   2  -2 1007.00   28.80
  -5   3  -2  941.81   22.20
  -3  -2   2 1110.99   31.00
  -2   5   2 1070.49   27.40
   5  -3   2 1081.39   25.40
   6  -1  -2   50.49    7.60
  -1  -5  -2   53.79    3.80
  -5   6  -2   49.30    7.20
   6  -1  -2   55.59    8.90
  -6   1   2   44.90    7.70
   5  -6   2   42.60    6.60
  -6   1   2   37.80    8.20
   1   5   2   49.90    5.70
   9  -4  -2  255.57   15.30
   9  -4  -2  317.37   19.40
  -5   9  -2  278.27   16.90
   5  -9   2  242.28   15.20
  -9   4   2  208.58   16.00
  -9   4   2  210.78   18.50
  10  -6  -2 1604.24   45.40
  -4  10  -2 1584.84   43.20
  10  -6  -2 1639.84   43.30
 -10   6   2 1526.15   41.70
 -10   6   2 1519.35   44.60
   4 -10   2 1519.05   41.10
   6   4   2 1511.15   45.20
  -1   7  -2   18.60    7.00
   7  -6  -2    7.60    6.90
  -1   7  -2   17.20    7.20
   7  -6  -2   22.00    7.10
  -7   6   2   16.40    9.70
  -7   6   2   15.40    7.70
   1  -7   2   17.30    6.30
   6   1   2   16.60    3.70
   2   4  -2 1838.82   43.10
   4  -6  -2 1833.62   42.00
  -6   2  -2 1796.62   35.30
   2   4  -2 1761.22   44.30
  -4   6   2 1866.81   45.20
   6  -2   2 1865.91   37.70
  -4   6   2 1896.21   43.90
  -2  -4   2 1831.62   45.90
   5   1  -2  194.78   13.00
   5   1  -2  172.18   14.00
  -6   5  -2  186.38   10.70
   1  -6  -2  185.18    9.40
  -5  -1   2  140.99   14.00
  -1   6   2  159.88   10.70
   6  -5   2  155.68   10.10
  -6   8  -2 1386.66   36.10
   8  -2  -2 1357.56   36.90
   8  -2  -2 1401.16   39.60
  -8   2   2 1373.46   39.70
  -8   2   2 1332.27   36.20
   2   6   2 1360.46   29.90
   6  -8   2 1347.57   35.70
  -6  11  -2 1426.06   40.00
  11  -5  -2 1387.36   42.20
  11  -5  -2 1354.96   38.90
   5   6   2 1383.96   29.40
   5   6   2 1406.26   37.00
 -11   5   2 1433.46   43.90
   6 -11   2 1416.46   40.00
 -11   5   2 1482.65   40.60
  -5  12  -2  161.48   18.40
  12  -7  -2  156.78   15.00
  12  -7  -2  152.38   18.60
 -12   7   2  136.49   16.70
   5 -12   2  145.89   15.40
   7   5   2  148.99   12.90
 -12   7   2  146.49   19.60
   9  -7  -2  604.24   23.00
  -2   9  -2  548.25   22.80
   9  -7  -2  562.14   24.80
  -9   7   2  558.74   25.20
   7   2   2  534.85   16.60
  -9   7   2  560.84   23.00
   2  -9   2  506.65   21.60
   6  -7  -2 1069.79   30.10
   1   6  -2 1067.29   30.90
  -7   1  -2 1016.70   22.70
   1   6  -2 1079.09   32.30
  -1  -6   2 1141.79   31.80
  -6   7   2 1147.79   34.60
  -1  -6   2 1160.18   34.40
  -6   7   2 1184.98   33.30
  -7   4  -2 1097.59   25.50
   3  -7  -2 1133.69   28.90
   4   3  -2 1184.88   33.70
  -3   7   2  984.70   27.70
  -4  -3   2 1039.00   31.70
   7  -4   2  981.70   24.70
   7   0  -2 1990.50   50.29
   0  -7  -2 1936.21   40.70
   7   0  -2 1979.10   47.50
  -7   7  -2 1970.40   45.30
   7  -7   2 2003.50   47.50
  -7   0   2 2117.29   52.79
   0   7   2 2048.20   44.90
  -7  10  -2 2174.28   52.19
  10  -3  -2 2117.19   52.69
  10  -3  -2 2110.49   55.39
   3   7   2 2118.59   44.20
   7 -10   2 2095.69   51.79
 -10   3   2 2109.49   51.69
 -10   3   2 2111.49   55.69
  -7  13  -2  980.50   34.10
  13  -6  -2  934.41   32.30
  13  -6  -2  928.31   35.20
   6   7   2  946.21   23.50
 -13   6   2  957.10   37.40
   6   7   2 1018.70   31.20
 -13   6   2  970.00   33.10
   7 -13   2  950.50   33.00
  14  -8  -2   26.10   11.60
  14  -8  -2   42.20   11.20
  -6  14  -2   23.50   11.20
 -14   8   2    0.80    9.50
   6 -14   2   10.90    8.10
   8   6   2   19.90    8.20
 -14   8   2   14.00   12.20
  -3  11  -2 1612.94   44.30
  11  -8  -2 1585.04   44.40
  11  -8  -2 1630.24   47.10
 -11   8   2 1597.04   43.70
   8   3   2 1500.55   37.10
   3 -11   2 1582.44   42.60
 -11   8   2 1416.96   45.40
  -8   0  -2 2275.57   46.60
   0   8  -2 2241.08   56.19
   8  -8  -2 2240.68   53.99
   0   8  -2 2251.37   54.09
   8   0   2 2419.76   50.19
   0  -8   2 2450.75   57.39
  -8   8   2 2430.96   58.29
  -8   8   2 2537.95   61.09
   3   5  -2  411.76   18.60
  -8   3  -2  399.36   13.00
   5  -8  -2  431.86   17.50
   3   5  -2  401.46   19.90
  -3  -5   2  508.35   22.70
   8  -3   2  530.85   15.00
  -5   8   2  507.55   20.60
   6   2  -2 2618.14   61.79
  -8   6  -2 2540.95   54.49
   2  -8  -2 2573.14   54.59
  -6  -2   2 2529.35   61.99
  -2   8   2 2696.83   57.39
   8  -6   2 2602.24   56.59
   9  -1  -2  756.92   28.90
   9  -1  -2  785.22   26.20
  -8   9  -2  772.42   25.60
  -1  -8  -2  757.92   17.90
   8  -9   2  820.32   26.70
  -9   1   2  779.92   30.50
   1   8   2  832.52   23.20
  12  -4  -2   71.49   13.20
  12  -4  -2   85.69   12.10
  -8  12  -2   75.69   11.70
 -12   4   2   95.59   12.60
   4   8   2   95.69   10.30
 -12   4   2   89.99   14.60
   8 -12   2   80.59   11.20
  15  -7  -2   38.60   12.50
  15  -7  -2   21.20    9.00
  -8  15  -2   33.10   12.20
 -15   7   2   12.90   12.10
   7   8   2   23.60    7.40
   8 -15   2   27.10    9.50
   7   8   2   28.20    9.00
 -15   7   2   18.00   10.30
  16  -9  -2  989.70   36.10
  16  -9  -2  949.01   39.00
  -7  16  -2  927.81   37.20
 -16   9   2  850.51   33.30
 -16   9   2  780.22   36.70
   9   7   2  788.12   29.90
   7 -16   2  837.22   33.20
  -4  13  -2 1385.56   42.50
  13  -9  -2 1412.66   42.10
  13  -9  -2 1364.26   44.60
   4 -13   2 1221.98   38.40
 -13   9   2 1246.28   43.00
 -13   9   2 1261.77   39.60
   9   4   2 1214.48   34.10
  -1  10  -2  620.74   27.10
  -9  -1  -2  626.94   19.60
  10  -9  -2  643.04   25.20
  -1  10  -2  619.74   26.20
   1 -10   2  668.23   25.50
   9   1   2  693.53   20.40
 -10   9   2  689.23   27.40
 -10   9   2  680.53   29.40
   2   7  -2  327.17   19.40
   7  -9  -2  306.17   16.30
  -9   2  -2  314.37   12.30
   2   7  -2  320.77   18.00
  -7   9   2  315.47   19.20
   9  -2   2  304.47   11.40
  -2  -7   2  301.17   20.20
  -7   9   2  333.57   21.40
   9  -2   2  311.27    9.70
   5   4  -2  704.23   26.80
  -9   5  -2  726.83   20.80
   4  -9  -2  725.13   23.00
  -9   5  -2  715.83   19.10
  -5  -4   2  642.94   26.40
   9  -5   2  634.94   19.70
  -4   9   2  611.84   22.80
  -9   8  -2  788.62   24.60
   1  -9  -2  789.82   21.70
   8   1  -2  791.52   26.10
   8   1  -2  753.22   28.80
   9  -8   2  903.31   27.60
  -1   9   2  913.81   26.90
  -8  -1   2  902.21   32.20
  11  -2  -2  714.93   26.60
  -9  11  -2  723.33   27.00
  11  -2  -2  692.13   29.60
   2   9   2  614.64   20.50
 -11   2   2  631.84   24.80
   9 -11   2  603.94   24.30
 -11   2   2  614.14   29.10
  14  -5  -2 1029.10   38.30
  14  -5  -2  974.80   33.60
  -9  14  -2  982.90   35.50
 -14   5   2  951.70   33.40
   5   9   2  966.30   27.00
   5   9   2  949.01   32.60
 -14   5   2 1011.40   38.80
   9 -14   2  958.30   34.00
  -9  17  -2  781.32   35.50
  17  -8  -2  771.42   35.90
  17  -8  -2  786.22   32.70
   8   9   2  786.42   25.20
 -17   8   2  832.32   38.30
   9 -17   2  873.51   34.50
   8   9   2  788.62   31.60
 -17   8   2  849.72   33.50
  18 -10  -2  830.22   34.90
  -8  18  -2  825.72   37.70
  18 -10  -2  806.02   38.50
   8 -18   2  805.52   34.30
 -18  10   2  811.52   34.30
  10   8   2  816.82   32.40
 -18  10   2  737.33   38.40
  15 -10  -2  996.20   36.10
  15 -10  -2  966.20   38.60
  -5  15  -2  993.20   37.20
  10   5   2  959.70   31.20
 -15  10   2  963.50   35.70
 -15  10   2  929.11   39.00
   5 -15   2  988.40   35.40
  12 -10  -2  464.55   23.30
  -2  12  -2  467.05   24.70
 -10  -2  -2  453.85   19.10
  10   2   2  463.05   18.10
 -12  10   2  434.36   24.50
   2 -12   2  467.05   22.90
 -12  10   2  458.15   27.50
   9 -10  -2  319.67   18.70
 -10   1  -2  297.07   13.70
   1   9  -2  286.57   18.70
   1   9  -2  292.77   19.90
  10  -1   2  313.37   13.20
  -9  10   2  336.87   20.60
  10  -1   2  295.57    8.60
  -1  -9   2  334.07   18.20
  -9  10   2  356.56   23.60
   6 -10  -2  995.10   30.10
   4   6  -2 1030.30   34.20
 -10   4  -2 1006.30   26.10
   4   6  -2 1029.30   31.40
  -6  10   2  871.81   29.70
  -4  -6   2  930.71   32.20
  10  -4   2  894.11   23.50
   7   3  -2 2671.93   64.99
   3 -10  -2 2646.44   57.69
 -10   7  -2 2548.45   56.09
  10  -7   2 2702.63   60.39
  -7  -3   2 2826.42   67.59
  -3  10   2 2709.23   61.99
 -10  10  -2 1197.08   34.30
   0 -10  -2 1116.99   29.60
  10   0  -2 1167.08   38.20
  10   0  -2 1132.09   34.50
  10 -10   2 1279.37   36.90
   0  10   2 1276.57   34.40
 -10   0   2 1298.77   41.80
  13  -3  -2 4005.20   93.79
  13  -3  -2 4017.20   89.69
 -10  13  -2 3948.10   89.29
 -13   3   2 4150.18   95.89
 -13   3   2 4003.90   88.79
  10 -13   2 3974.70   90.89
   3  10   2 4109.19   83.79
 -10  16  -2 2220.38   60.19
  16  -6  -2 2156.98   62.19
  16  -6  -2 2144.69   58.09
 -16   6   2 2440.06   61.09
   6  10   2 2320.07   60.79
 -16   6   2 2303.87   66.69
  10 -16   2 2337.87   62.39
   6  10   2 2323.67   53.09
 -10  19  -2 1239.28   47.70
  19  -9  -2 1306.77   45.20
  19  -9  -2 1361.06   50.19
   9  10   2 1234.88   35.20
  10 -19   2 1275.77   44.80
 -19   9   2 1232.28   43.20
 -19   9   2 1219.08   49.50
   9  10   2 1238.58   42.90
  20 -11  -2   39.50   16.20
  20 -11  -2   42.50   14.40
  -9  20  -2   27.00   16.50
  11   9   2   44.10   11.30
 -20  11   2   29.40   15.00
  11   9   2   66.69   15.00
 -20  11   2   50.29   17.80
  -6  17  -2   29.40   13.20
  17 -11  -2   17.20   11.00
  17 -11  -2    6.60   12.50
   6 -17   2   11.20   11.00
  11   6   2   -3.00    8.00
 -17  11   2   -6.00   13.20
 -17  11   2   -6.70   11.30
  14 -11  -2  663.23   29.00
  -3  14  -2  670.73   31.10
 -14  11   2  631.74   32.00
 -14  11   2  670.13   29.40
  11   3   2  634.04   23.70
   3 -14   2  617.34   27.30
 -11   0  -2  244.18   14.70
  11 -11  -2  201.28   17.50
   0  11  -2  241.58   20.40
   0  11  -2  215.58   18.80
 -11  11   2  245.88   20.20
  11   0   2  257.47   13.60
   0 -11   2  245.38   17.90
 -11  11   2  248.58   22.70
   3   8  -2 2263.07   55.69
   3   8  -2 2315.97   59.79
   8 -11  -2 2272.67   55.79
 -11   3  -2 2252.37   49.90
  11  -3   2 2233.48   48.70
  -8  11   2 2235.08   56.39
  11  -3   2 2213.68   46.70
 -11   6  -2  771.92   23.50
   6   5  -2  741.83   29.90
   5 -11  -2  776.32   25.60
 -11   6  -2  760.22   20.80
  -5  11   2  747.33   27.30
  11  -6   2  757.62   23.50
  -6  -5   2  745.73   30.60
   9   2  -2  562.14   23.20
 -11   9  -2  545.05   21.50
   2 -11  -2  556.64   19.30
   9   2  -2  567.34   26.50
  11  -9   2  489.75   21.10
  -9  -2   2  529.95   27.00
  -2  11   2  510.25   22.10
  12  -1  -2 1234.78   40.80
  12  -1  -2 1127.39   35.70
  -1 -11  -2 1146.59   27.60
 -11  12  -2 1180.98   36.60
  11 -12   2 1260.97   38.70
   1  11   2 1309.27   35.60
 -12   1   2 1302.77   43.90
 -11  15  -2  686.13   30.30
  15  -4  -2  672.93   29.10
  15  -4  -2  708.13   33.20
 -15   4   2  764.12   35.30
 -15   4   2  757.12   29.90
  11 -15   2  775.82   31.30
   4  11   2  764.32   26.50
  18  -7  -2  902.21   35.60
  18  -7  -2  892.11   39.00
 -11  18  -2  931.51   37.90
   7  11   2  932.31   30.60
   7  11   2  946.31   36.80
 -18   7   2  939.61   42.90
 -18   7   2  892.91   35.30
  11 -18   2  914.01   36.70
 -11  21  -2  530.95   36.80
  21 -10  -2  529.05   42.30
  21 -10  -2  591.54   32.30
 -21  10   2  587.84   34.30
  11 -21   2  531.15   31.60
  10  11   2  576.44   26.40
 -21  10   2  538.25   37.70
  10  11   2  524.75   32.10
 -10  22  -2  132.99   24.80
  22 -12  -2  108.89   18.80
  22 -12  -2  131.99   23.70
  10 -22   2  108.79   17.50
 -22  12   2  145.99   22.60
 -22  12   2  119.79   24.70
  12  10   2  129.89   15.30
  12  10   2  145.49   20.10
  19 -12  -2  685.03   32.70
  -7  19  -2  639.14   35.10
   7 -19   2  641.64   32.00
  12   7   2  588.94   29.10
 -19  12   2  633.74   33.40
 -19  12   2  572.94   36.10
  16 -12  -2  257.07   21.10
  -4  16  -2  244.48   25.10
 -16  12   2  241.98   21.90
 -16  12   2  164.48   21.10
   4 -16   2  169.58   19.10
  12   4   2  176.88   16.10
  -1  13  -2   55.19   13.90
  13 -12  -2   52.39   11.40
 -12  -1  -2   56.79   10.20
  -1  13  -2   47.10   13.30
  12   1   2   53.79    9.00
   1 -13   2   69.09   12.50
 -13  12   2   55.89   14.80
 -13  12   2   56.49   13.50
   2  10  -2  476.75   23.70
 -12   2  -2  469.55   18.90
   2  10  -2  468.55   25.70
  10 -12  -2  437.86   22.50
 -10  12   2  440.96   27.50
  12  -2   2  457.35   17.70
 -10  12   2  488.45   25.10
  12  -2   2  473.75   14.50
   5   7  -2  106.09   13.20
   7 -12  -2  108.69   12.60
   5   7  -2  105.19   14.50
 -12   5  -2   91.89   12.10
  -7  12   2   99.39   13.70
  12  -5   2   94.19   10.10
  -5  -7   2   92.59   15.50
 -12   8  -2  643.94   23.60
   4 -12  -2  653.53   23.00
   8   4  -2  682.83   29.70
 -12   8  -2  651.83   22.10
  -4  12   2  777.42   28.70
  -8  -4   2  766.42   32.60
  12  -8   2  754.32   25.40
  11   1  -2 1229.58   41.20
   1 -12  -2 1214.38   31.50
 -12  11  -2 1189.38   35.80
  11   1  -2 1210.58   36.90
  12 -11   2 1222.28   37.30
  -1  12   2 1231.78   36.10
 -11  -1   2 1281.17   43.00
  14  -2  -2 1451.95   48.30
 -12  14  -2 1577.34   45.80
  14  -2  -2 1539.55   45.00
   2  12   2 1538.75   41.20
  12 -14   2 1519.95   46.00
 -14   2   2 1552.24   50.59
 -12  17  -2  252.27   23.60
  17  -5  -2  170.08   17.20
   5  12   2  201.78   21.30
 -17   5   2  205.38   25.40
 -17   5   2  222.38   21.40
  12 -17   2  180.88   19.50
   5  12   2  194.78   19.40
 -12  20  -2  353.86   29.90
  20  -8  -2  368.26   30.90
  20  -8  -2  359.96   25.10
   8  12   2  358.16   23.60
  12 -20   2  330.27   26.20
   8  12   2  341.97   26.40
 -20   8   2  314.77   32.70
 -20   8   2  360.76   28.90
  23 -11  -2  498.05   33.20
 -12  23  -2  490.35   39.20
  23 -11  -2  438.46   37.20
  11  12   2  451.35   33.20
 -23  11   2  452.55   35.30
 -23  11   2  383.26   47.10
  11  12   2  438.96   27.10
  12 -23   2  443.86   31.30
  24 -13  -2  630.14   36.70
 -11  24  -2  630.54   43.50
  11 -24   2  578.34   36.30
 -24  13   2  606.14   40.80
  13  11   2  604.64   37.50
 -24  13   2  589.74   45.30
  13  11   2  600.44   29.60
  21 -13  -2  894.31   40.80
 -21  13   2 1015.70   43.60
   8 -21   2 1033.30   42.40
 -21  13   2 1072.29   49.80
  13   8   2 1031.00   40.30
  -5  18  -2  242.88   27.80
  18 -13  -2  332.97   25.40
   5 -18   2  223.48   21.80
 -18  13   2  226.08   27.60
  13   5   2  261.37   20.10
 -18  13   2  267.37   26.00
  15 -13  -2  284.77   22.00
  -2  15  -2  364.16   26.90
  -2  15  -2  318.07   23.50
 -13  -2  -2  311.47   20.10
   2 -15   2  348.07   21.90
 -15  13   2  325.17   27.70
 -15  13   2  308.77   25.10
  13   2   2  315.07   18.20
 -13   1  -2   11.40    8.00
   1  12  -2    9.30   10.40
  12 -13  -2   -9.70    7.30
   1  12  -2   11.00   10.90
 -12  13   2    9.90   12.00
  13  -1   2   10.10    4.40
 -12  13   2    1.50   10.30
  13  -1   2   18.70    7.50
  -1 -12   2   25.20    9.30
   4   9  -2 1714.83   46.60
 -13   4  -2 1681.53   41.80
   4   9  -2 1645.54   50.49
   9 -13  -2 1683.43   46.40
  13  -4   2 1626.04   40.30
  -9  13   2 1660.53   48.10
  13  -4   2 1659.13   38.80
   7   6  -2 1092.69   38.40
   6 -13  -2 1032.20   32.60
 -13   7  -2 1048.00   27.30
 -13   7  -2 1062.09   31.20
  13  -7   2 1001.80   29.60
  -7  -6   2 1000.50   37.30
  -6  13   2 1009.30   34.10
  10   3  -2 4182.38   96.69
 -13  10  -2 4080.09   87.99
   3 -13  -2 4221.08   87.69
 -13  10  -2 4164.88   89.99
  -3  13   2 4333.97   94.29
 -10  -3   2 4429.86  100.99
  13 -10   2 4296.67   94.09
 -13  13  -2 4723.83  100.89
  13   0  -2 4584.94  100.89
  13   0  -2 4615.84  106.89
   0 -13  -2 4531.05   92.59
   0  13   2 4876.01  102.99
  13 -13   2 4820.22  106.69
 -13   0   2 4875.01  111.79
 -13  16  -2 2195.98   59.99
  16  -3  -2 2195.88   63.79
  16  -3  -2 2135.39   58.59
   3  13   2 2176.98   55.09
 -16   3   2 2227.18   65.69
  13 -16   2 2215.78   60.69
 -13  19  -2 1367.16   47.70
  19  -6  -2 1313.67   49.40
  19  -6  -2 1238.38   43.00
 -19   6   2 1299.47   43.80
   6  13   2 1367.26   46.90
   6  13   2 1262.57   39.90
  13 -19   2 1251.07   45.50
 -19   6   2 1305.77   50.59
  22  -9  -2  287.97   40.90
  22  -9  -2  349.87   33.80
 -13  22  -2  313.67   32.50
   9  13   2  417.66   26.90
  13 -22   2  362.96   28.70
 -22   9   2  390.76   37.60
   9  13   2  401.46   31.10
 -22   9   2  404.56   33.20
  25 -12  -2  115.69   21.40
 -13  25  -2   77.09   24.80
  25 -12  -2  120.39   25.70
 -25  12   2  122.09   30.60
  12  13   2  148.79   24.80
  12  13   2  122.19   19.80
 -25  12   2  126.59   25.30
 -12  26  -2   58.89   24.30
  26 -14  -2   10.70   15.80
  14  12   2   85.19   20.10
 -26  14   2   78.69   30.20
 -26  14   2   85.69   24.90
  14  12   2   87.59   27.30
  -9  23  -2  -31.30   18.30
  23 -14  -2  -18.10   12.80
 -23  14   2    2.90   18.70
 -23  14   2   45.00   22.10
   9 -23   2   47.00   16.70
  14   9   2    5.50   13.90
  -6  20  -2  835.42   41.80
   6 -20   2  783.02   37.10
 -20  14   2  762.02   42.30
 -20  14   2  841.62   38.70
  14   6   2  797.72   33.90
  -3  17  -2   37.30   14.20
 -14  -3  -2   34.30   12.40
  17 -14  -2   42.20   13.00
 -17  14   2   56.09   15.90
  14   3   2   56.39   11.30
 -17  14   2   67.99   17.20
   3 -17   2   41.50   11.60
 -14   0  -2  246.58   18.70
  14 -14  -2  233.58   20.10
   0  14  -2  230.78   22.10
   0  14  -2  240.88   23.90
   0 -14   2  221.98   19.30
 -14  14   2  224.38   23.50
  14   0   2  206.28   10.10
 -14  14   2  237.28   25.70
  14   0   2  213.18   15.90
 -14   3  -2  380.06   19.60
   3  11  -2  345.27   24.70
   3  11  -2  371.16   23.20
  11 -14  -2  358.26   21.10
  14  -3   2  395.06   22.40
 -11  14   2  414.66   25.60
  14  -3   2  407.86   18.30
 -11  14   2  408.66   27.80
   6   8  -2   75.99   13.20
   8 -14  -2   77.59   12.00
 -14   6  -2   77.09   11.60
   6   8  -2   64.49   14.10
  -6  -8   2  103.59   16.40
  14  -6   2  126.09   12.40
  -8  14   2  125.09   15.80
   5 -14  -2  548.35   22.40
   9   5  -2  537.85   28.50
 -14   9  -2  530.55   21.00
 -14   9  -2  563.24   24.10
  14  -9   2  489.15   21.60
  -5  14   2  519.15   26.10
  -9  -5   2  559.84   29.50
  12   2  -2 1284.77   39.20
  12   2  -2 1226.98   43.60
 -14  12  -2 1297.37   38.30
   2 -14  -2 1300.07   35.00
  14 -12   2 1356.86   41.10
  -2  14   2 1321.87   40.10
 -12  -2   2 1258.17   45.10
  15  -1  -2  576.24   27.10
  -1 -14  -2  591.54   19.20
  15  -1  -2  649.24   32.70
 -14  15  -2  606.24   29.80
   1  14   2  611.54   27.90
  14 -15   2  575.74   28.00
 -15   1   2  591.04   33.90
 -14  18  -2  558.84   31.90
  18  -4  -2  552.74   29.40
  18  -4  -2  570.54   34.30
   4  14   2  633.84   29.80
 -18   4   2  633.34   37.20
  14 -18   2  622.24   31.10
  21  -7  -2  250.37   23.50
 -14  21  -2  232.28   29.50
  21  -7  -2  214.78   39.60
 -21   7   2  249.18   31.90
   7  14   2  215.98   24.40
  14 -21   2  229.88   24.30
   7  14   2  273.77   28.20
 -14  24  -2  147.09   25.60
  24 -10  -2  149.19   25.70
  24 -10  -2  108.29   19.70
 -24  10   2  203.08   25.20
 -24  10   2  166.68   29.50
  10  14   2  163.18   24.60
  10  14   2  145.19   19.30
 -14  27  -2   26.30   24.50
  27 -13  -2  -48.40   20.80
  27 -13  -2    0.40   17.10
  13  14   2   16.30   21.70
 -27  13   2  -23.90   28.00
  13  14   2    3.00   20.50
 -27  13   2    2.70   22.00
  28 -15  -2  157.08   27.00
 -13  28  -2  138.39   31.70
  15  13   2  256.87   31.70
  15  13   2  215.58   26.50
 -28  15   2  257.87   42.90
  13 -28   2  222.38   29.90
 -28  15   2  241.88   31.80
 -10  25  -2  241.38   29.90
  25 -15  -2  340.47   33.80
 -25  15   2  315.77   32.60
  15  10   2  328.47   29.40
  10 -25   2  346.87   34.10
 -25  15   2  271.57   33.60
  15  10   2  334.07   33.60
  -7  22  -2  293.67   36.10
  22 -15  -2  360.46   30.70
 -22  15   2  292.17   39.10
   7 -22   2  372.06   29.10
  15   7   2  325.37   27.80
 -22  15   2  321.87   33.50
  19 -15  -2   -3.20   23.50
  -4  19  -2   35.30   15.50
 -19  15   2   14.30   17.10
  15   4   2   16.70   10.50
   4 -19   2   27.40   12.90
 -19  15   2   40.80   15.30
  16 -15  -2  143.99   18.10
 -15  -1  -2  115.79   15.30
  -1  16  -2  109.89   16.40
  -1  16  -2   72.59   16.40
   1 -16   2  122.19   16.60
 -16  15   2   83.49   18.50
  15   1   2   82.69    8.50
  15   1   2   98.29   12.80
 -16  15   2   92.89   16.50
 -15   2  -2  515.35   24.30
  13 -15  -2  537.45   26.40
   2  13  -2  498.25   30.30
   2  13  -2  526.25   28.10
  15  -2   2  555.94   22.70
 -13  15   2  505.65   29.70
 -13  15   2  549.45   33.00
   5  10  -2  455.65   25.90
 -15   5  -2  429.36   21.40
   5  10  -2  446.86   27.80
  10 -15  -2  463.45   23.80
  15  -5   2  464.35   20.40
  15  -5   2  464.75   18.70
 -10  15   2  424.66   28.00
 -15   8  -2  736.63   27.80
   7 -15  -2  725.23   27.70
 -15   8  -2  716.53   22.60
   8   7  -2  694.93   32.60
  15  -8   2  770.02   26.50
  -7  15   2  735.83   31.70
  -8  -7   2  727.63   34.40
 -15  11  -2  220.58   19.80
  11   4  -2  195.88   21.70
   4 -15  -2  198.28   15.50
 -15  11  -2  178.18   17.60
 -11  -4   2  299.97   25.30
  -4  15   2  277.07   22.40
  15 -11   2  266.67   18.10
 -15  14  -2  842.52   32.80
  14   1  -2  860.31   37.40
  14   1  -2  852.21   31.90
   1 -15  -2  835.12   26.40
 -14  -1   2  838.62   38.90
  -1  15   2  824.42   32.70
  15 -14   2  881.91   34.10
 -15  17  -2 1126.89   42.30
  17  -2  -2 1157.28   45.50
  17  -2  -2 1198.58   40.90
 -17   2   2 1106.09   47.10
  15 -17   2 1169.78   42.30
   2  15   2 1195.58   40.20
  20  -5  -2  311.67   30.70
 -15  20  -2  309.07   29.80
  15 -20   2  302.87   25.60
   5  15   2  285.37   28.30
   5  15   2  266.27   25.60
 -20   5   2  287.57   32.40
  23  -8  -2   29.90   18.90
  23  -8  -2   50.99   14.90
 -15  23  -2   82.59   22.30
 -23   8   2   66.29   28.30
   8  15   2   34.00   17.80
   8  15   2   66.69   17.20
  26 -11  -2  184.18   30.70
  26 -11  -2  237.18   30.70
 -15  26  -2  175.58   30.10
  11  15   2  150.18   23.00
 -26  11   2  220.58   27.10
  11  15   2  167.78   27.30
 -26  11   2  189.68   33.30
  29 -14  -2   -7.90   21.30
 -15  29  -2   22.80   30.60
 -29  14   2   25.30   36.30
  15 -29   2   36.00   23.10
 -29  14   2   70.29   26.80
  14  15   2   17.40   25.00
  14  15   2   25.80   23.50
  30 -16  -2  167.18   30.90
 -14  30  -2  108.59   37.10
 -30  16   2  100.89   43.80
  14 -30   2   98.29   29.90
  16  14   2   98.19   28.00
  16  14   2  139.69   29.60
 -11  27  -2  121.29   29.50
  27 -16  -2  120.19   23.80
  16  11   2  155.58   26.10
 -27  16   2  170.18   34.30
 -27  16   2  100.29   31.00
  16  11   2  113.39   22.00
  24 -16  -2  106.09   20.90
  -8  24  -2  145.59   29.80
 -24  16   2  197.98   29.90
  16   8   2  227.48   29.00
 -24  16   2  172.08   28.50
   8 -24   2  252.87   29.80
  21 -16  -2  923.01   42.30
  -5  21  -2  902.51   44.80
  16   5   2  798.62   34.90
 -21  16   2  776.12   42.20
   5 -21   2  820.52   38.50
  -2  18  -2  210.78   23.20
 -16  -2  -2  189.78   20.00
  -2  18  -2  127.49   35.50
  18 -16  -2  161.68   25.70
 -18  16   2  221.98   24.90
  16   2   2  172.38   18.60
 -18  16   2  175.48   23.90
   2 -18   2  172.88   20.00
  15 -16  -2   46.60   12.30
   1  15  -2   39.10   14.80
 -16   1  -2   37.60   12.70
   1  15  -2   35.60   14.00
 -15  16   2   41.30   15.50
  16  -1   2   50.69    7.60
  16  -1   2   38.70   10.40
 -15  16   2   25.40   15.10
  -1 -15   2   44.00   12.00
  12 -16  -2  252.67   20.60
   4  12  -2  285.67   24.40
   4  12  -2  287.97   24.60
 -16   4  -2  295.17   20.90
  16  -4   2  221.58   13.80
  16  -4   2  237.78   16.70
 -12  16   2  253.87   23.20
   7   9  -2  691.43   33.90
 -16   7  -2  648.44   17.00
   7   9  -2  697.33   30.60
   9 -16  -2  671.63   28.40
 -16   7  -2  674.03   27.10
  -7  -9   2  595.54   32.70
  16  -7   2  567.54   22.70
  -9  16   2  616.44   30.60
 -16  10  -2 2117.39   55.39
  10   6  -2 2236.28   63.69
   6 -16  -2 2142.69   55.29
 -16  10  -2 2134.29   51.59
  -6  16   2 2298.77   61.99
  16 -10   2 2342.57   58.19
 -10  -6   2 2295.57   65.79
  13   3  -2 1638.94   52.99
 -16  13  -2 1608.94   45.90
 -16  13  -2 1599.94   48.20
  13   3  -2 1589.34   46.50
   3 -16  -2 1633.54   43.30
  16 -13   2 1628.44   48.30
  -3  16   2 1633.74   48.70
 -13  -3   2 1701.53   55.09
   0 -16  -2 3215.88   68.99
  16   0  -2 3200.18   84.79
  16   0  -2 3187.48   77.89
 -16  16  -2 3176.68   78.89
 -16   0   2 3239.88   87.29
  16 -16   2 3383.96   83.29
   0  16   2 3313.47   79.79
 -16  19  -2 1160.28   46.10
  19  -3  -2 1207.98   49.00
  19  -3  -2 1211.48   43.60
   3  16   2 1294.47   44.00
 -19   3   2 1293.27   52.69
  16 -19   2 1188.08   51.49
  22  -6  -2  464.75   28.70
  22  -6  -2  455.25   34.30
 -16  22  -2  495.75   36.90
  16 -22   2  495.15   32.00
 -22   6   2  509.55   41.20
   6  16   2  552.74   37.30
   6  16   2  503.05   32.10
 -16  25  -2  112.69   25.30
  25  -9  -2   87.79   18.80
  25  -9  -2  110.79   25.00
 -25   9   2   80.49   27.90
   9  16   2  104.99   20.70
   9  16   2  101.09   23.20
 -16  28  -2   90.39   29.70
  28 -12  -2   69.09   21.50
  28 -12  -2   48.30   26.00
  16 -28   2  130.29   25.50
 -28  12   2   74.39   34.20
  12  16   2   58.09   26.20
  12  16   2   52.29   24.80
 -16  31  -2  371.56   48.10
  31 -15  -2  374.26   41.20
  15  16   2  309.47   38.90
 -31  15   2  491.75   46.80
  15  16   2  321.87   37.80
 -31  15   2  300.57   51.09
  16 -31   2  436.36   49.60
  32 -17  -2  132.89   33.20
 -15  32  -2   75.89   37.80
 -32  17   2   -4.20   48.90
  15 -32   2   80.39   25.40
  17  15   2   78.69   33.10
  17  15   2   41.50   33.00
 -32  17   2   78.29   32.50
  29 -17  -2  148.29   29.50
 -12  29  -2  145.09   35.50
  17  12   2   69.39   26.60
  12 -29   2  163.08   28.40
  17  12   2  141.49   26.30
 -29  17   2  149.88   32.00
 -29  17   2  138.69   38.80
  26 -17  -2  228.38   27.80
  -9  26  -2  295.27   38.60
 -26  17   2  301.67   34.50
  17   9   2  330.07   34.40
 -26  17   2  292.67   38.20
  -6  23  -2  155.28   24.30
 -23  17   2  286.17   33.70
 -23  17   2  218.78   26.90
   6 -23   2  273.67   29.00
  17   6   2  230.88   26.00
  -3  20  -2  193.48   26.00
  20 -17  -2  149.19   20.60
 -17  -3  -2  121.89   19.80
 -20  17   2  111.89   32.10
  17   3   2  109.49   16.30
 -20  17   2   79.09   19.00
   3 -20   2   70.49   15.40
 -17   0  -2  286.37   24.60
  17 -17  -2  262.07   30.80
   0  17  -2  287.37   27.90
   0  17  -2  225.58   30.70
  17   0   2  213.28   19.20
   0 -17   2  252.27   23.40
  17   0   2  234.18   14.20
 -17  17   2  250.97   27.50
 -17  17   2  286.27   31.70
   3  14  -2  159.98   20.30
 -17   3  -2  145.89   16.80
   3  14  -2  151.18   20.80
  14 -17  -2  114.89   15.30
  17  -3   2  162.38   15.80
 -14  17   2  165.18   22.20
 -14  17   2  184.58   24.70
  17  -3   2  163.78   12.30
  11 -17  -2   88.79   14.20
   6  11  -2   48.70   15.80
   6  11  -2   58.69   14.50
 -17   6  -2   83.09   13.60
  17  -6   2   47.00    8.80
 -11  17   2   29.20   15.90
   8 -17  -2  983.90   35.00
 -17   9  -2  986.00   34.60
 -17   9  -2  993.50   28.80
   9   8  -2  991.50   36.50
   9   8  -2  988.30   41.00
  -8  17   2 1062.49   39.60
  -9  -8   2  972.50   41.00
  17  -9   2 1047.50   33.70
 -17  12  -2  361.16   22.00
 -17  12  -2  377.16   24.90
   5 -17  -2  361.36   20.60
  12   5  -2  351.56   27.80
  17 -12   2  314.17   20.90
 -12  -5   2  319.77   27.30
  -5  17   2  341.67   26.40
  15   2  -2  666.43   35.20
  15   2  -2  617.44   28.60
 -17  15  -2  624.14   30.40
   2 -17  -2  636.44   24.80
 -17  15  -2  645.54   32.90
 -15  -2   2  691.13   37.20
  -2  17   2  640.54   32.60
  17 -15   2  696.13   32.20
  18  -1  -2  307.87   23.90
 -17  18  -2  266.57   28.10
  18  -1  -2  268.97   28.40
   1  17   2  284.37   27.90
  17 -18   2  263.27   24.60
 -18   1   2  245.98   31.40
  21  -4  -2  281.57   26.60
 -17  21  -2  260.87   31.50
  21  -4  -2  287.57   33.80
   4  17   2  264.17   30.10
   4  17   2  271.07   30.00
 -21   4   2  222.08   28.30
  17 -21   2  330.57   27.60
 -17  24  -2   54.99   22.60
  24  -7  -2    2.10   17.20
  24  -7  -2   39.10   15.70
   7  17   2   19.50   17.80
 -24   7   2   14.30   23.70
   7  17   2   49.70   19.90
  27 -10  -2  175.28   29.40
  27 -10  -2  173.38   26.40
 -17  27  -2  217.28   33.50
 -27  10   2  108.09   35.80
  10  17   2  120.19   26.50
  10  17   2   97.69   25.10
  30 -13  -2  138.09   28.80
  30 -13  -2   87.19   35.10
 -17  30  -2  133.99   37.10
  17 -30   2  201.38   33.70
  13  17   2  218.18   36.10
 -30  13   2  181.48   43.90
  13  17   2  180.68   30.90
 -13  31  -2  339.07   48.90
  31 -18  -2  368.96   41.00
  13 -31   2  322.87   38.00
 -31  18   2  470.85   52.99
  18  13   2  431.76   51.99
  18  13   2  402.76   48.30
 -31  18   2  401.06   54.49
 -10  28  -2  162.58   37.50
  28 -18  -2  164.98   28.60
 -28  18   2  136.89   35.20
  18  10   2  172.98   24.50
 -28  18   2  141.99   33.00
  18  10   2  163.78   26.70
  25 -18  -2  172.08   25.30
  -7  25  -2  104.29   26.60
 -25  18   2   99.69   28.30
   7 -25   2  112.89   22.60
  18   7   2   88.59   20.50
 -25  18   2  125.19   28.30
  22 -18  -2  164.98   24.00
  -4  22  -2  153.78   25.10
   4 -22   2  153.08   21.00
  18   4   2  178.18   21.40
 -22  18   2  117.59   26.00
  -1  19  -2   -3.80   15.70
  -1  19  -2    5.70   16.00
  19 -18  -2    6.70   12.10
 -18  -1  -2  -24.20   14.40
   1 -19   2   32.20   13.50
 -19  18   2   33.10   30.40
  18   1   2   -8.40   10.60
  18   1   2    7.60    6.90
 -19  18   2   -1.80   15.00
   2  16  -2  465.55   31.10
   2  16  -2  437.26   41.60
 -18   2  -2  473.35   28.00
  18  -2   2  469.95   24.70
 -16  18   2  505.35   33.70
 -16  18   2  497.95   36.50
  18  -2   2  493.95   20.40
 -18   5  -2  373.56   25.70
   5  13  -2  429.86   28.50
   5  13  -2  440.26   31.00
  13 -18  -2  392.66   25.80
 -13  18   2  417.26   29.60
  18  -5   2  392.86   18.90
  18  -5   2  346.77   21.30
  10 -18  -2 1298.97   42.30
   8  10  -2 1301.27   48.70
 -18   8  -2 1236.28   41.20
   8  10  -2 1268.77   43.20
 -10  18   2 1230.38   45.50
  18  -8   2 1243.08   37.60
   7 -18  -2  973.30   34.70
  11   7  -2  972.60   42.20
 -18  11  -2  977.60   32.30
 -18  11  -2  941.21   36.40
 -11  -7   2 1051.59   43.80
  18 -11   2  994.30   35.30
  -7  18   2 1036.00   40.60
 -18  14  -2  390.96   28.50
  14   4  -2  370.46   23.50
  14   4  -2  389.46   29.50
   4 -18  -2  460.75   23.20
 -18  14  -2  451.85   26.90
 -14  -4   2  408.46   31.70
  18 -14   2  439.16   25.20
  -4  18   2  425.96   28.40
 -18  17  -2  379.06   28.50
  17   1  -2  367.66   30.90
  17   1  -2  362.06   24.90
   1 -18  -2  368.66   19.70
  18 -17   2  399.06   28.00
 -17  -1   2  348.87   33.20
  -1  18   2  310.37   29.60
  20  -2  -2  159.38   28.20
  20  -2  -2  193.28   24.00
 -18  20  -2  159.68   23.70
   2  18   2  200.18   23.70
  18 -20   2  177.48   21.10
 -20   2   2  200.18   27.90
 -18  23  -2  361.16   37.40
  23  -5  -2  375.06   35.70
   5  18   2  318.97   33.10
  18 -23   2  311.47   29.40
 -23   5   2  343.27   43.60
   5  18   2  257.87   33.50
 -18  26  -2   24.30   25.10
  26  -8  -2   60.39   18.80
  26  -8  -2   62.49   22.50
   8  18   2   36.40   20.00
 -26   8   2    7.70   28.60
   8  18   2   31.00   22.10
  29 -11  -2   74.29   29.40
  29 -11  -2   76.09   25.50
 -18  29  -2   91.59   32.60
  18 -29   2  124.29   27.70
  11  18   2   93.49   28.90
  11  18   2  111.19   28.70
 -29  11   2   77.69   40.70
 -18  32  -2   11.90   36.80
 -32  14   2  -16.50   48.10
  14  18   2  -42.70   34.60
  18 -32   2   11.00   25.30
  14  18   2    7.90   32.60
 -11  30  -2   20.70   39.10
  11 -30   2   30.50   23.90
  19  11   2  -36.80   25.50
  19  11   2  -11.90   25.20
 -30  19   2   23.00   42.70
 -30  19   2  -22.00   28.20
  -8  27  -2   43.90   28.60
  27 -19  -2   75.39   22.10
  19   8   2   57.49   23.00
 -27  19   2   51.59   30.70
 -27  19   2   63.29   29.80
  24 -19  -2  257.37   31.20
  -5  24  -2  351.66   40.00
 -24  19   2  274.57   34.70
   5 -24   2  301.97   31.30
 -24  19   2  310.77   34.60
  19   5   2  362.76   32.40
  21 -19  -2  110.79   18.20
 -19  -2  -2  145.89   22.10
  -2  21  -2  119.99   24.20
 -21  19   2  151.58   25.30
  19   2   2  131.49   19.20
   2 -21   2  165.08   23.40
 -21  19   2  170.98   29.00
  19   2   2  119.59   14.60
   1  18  -2    3.70   16.20
  18 -19  -2  -18.50   10.40
 -19   1  -2   -3.30   14.60
   1  18  -2   13.70   17.10
  19  -1   2   -4.90    8.20
 -18  19   2   20.30   17.80
  19  -1   2  -10.80   11.30
   4  15  -2  247.68   26.90
 -19   4  -2  256.97   25.60
  19  -4   2  246.78   16.60
  19  -4   2  239.38   19.90
 -15  19   2  249.58   33.00
 -15  19   2  229.98   29.00
   7  12  -2  496.45   30.30
   7  12  -2  469.15   33.60
  12 -19  -2  479.15   28.30
 -19   7  -2  527.85   29.50
 -12  19   2  459.05   34.70
  19  -7   2  445.16   21.40
  10   9  -2  777.82   39.00
 -19  10  -2  775.92   34.40
  10   9  -2  789.02   35.50
 -19  10  -2  736.33   25.40
   9 -19  -2  747.03   31.70
  -9  19   2  770.92   37.10
 -10  -9   2  787.72   39.90
  19 -10   2  798.92   31.00
 -19  13  -2 1847.12   50.79
 -19  13  -2 1801.52   55.09
  13   6  -2 1864.91   61.39
   6 -19  -2 1814.12   51.29
 -13  -6   2 1840.72   61.59
  19 -13   2 1849.91   53.39
  -6  19   2 1821.42   57.09
  16   3  -2 1333.37   51.69
 -19  16  -2 1312.97   45.80
   3 -19  -2 1298.07   39.50
 -19  16  -2 1334.77   48.30
  16   3  -2 1292.57   44.30
 -16  -3   2 1416.96   55.59
  -3  19   2 1399.26   49.90
  19 -16   2 1453.05   49.10
  19   0  -2  608.24   32.10
 -19  19  -2  609.04   35.80
   0 -19  -2  557.14   23.30
  19   0  -2  547.35   43.90
   0  19   2  630.14   37.50
  19 -19   2  673.13   36.10
 -19   0   2  654.93   41.40
  22  -3  -2  646.94   36.70
 -19  22  -2  547.45   42.70
  22  -3  -2  665.93   41.90
 -22   3   2  675.83   47.20
  19 -22   2  701.03   38.20
   3  19   2  651.43   40.30
   3  19   2  627.34   39.80
  25  -6  -2  -16.50   14.30
 -19  25  -2   29.10   22.90
  25  -6  -2  -33.50   16.50
 -25   6   2   39.30   29.10
   6  19   2   29.90   21.70
   6  19   2   23.20   20.70
  28  -9  -2  129.99   29.90
 -19  28  -2   33.20   30.40
  28  -9  -2   93.29   22.50
   9  19   2   96.89   28.80
   9  19   2   72.69   27.70
 -28   9   2   55.39   38.80
 -19  31  -2  129.59   40.20
  31 -12  -2  135.09   32.10
  31 -12  -2  188.28   40.50
  19 -31   2  157.28   27.10
  12  19   2  180.48   36.10
  12  19   2  165.88   39.20
 -31  12   2   87.59   46.90
 -12  32  -2    6.90   28.00
  32 -20  -2   68.99   26.10
  20  12   2   95.79   32.00
  20  12   2   97.89   32.10
  12 -32   2   84.19   30.10
 -32  20   2  101.79   52.29
 -32  20   2   82.99   34.10
  29 -20  -2  368.66   42.40
  -9  29  -2  300.07   42.50
 -29  20   2  305.87   45.50
 -29  20   2  318.47   39.80
  20   9   2  312.67   34.90
   9 -29   2  283.47   32.70
  26 -20  -2  346.57   36.00
  -6  26  -2  348.47   44.80
  20   6   2  354.36   35.90
 -26  20   2  366.36   47.90
 -26  20   2  445.66   49.10
 -20  -3  -2  485.65   39.50
  23 -20  -2  448.26   33.50
  -3  23  -2  545.25   45.40
  20   3   2  481.55   32.20
  20   3   2  452.15   22.40
 -23  20   2  524.45   43.90
   3 -23   2  487.55   34.10
 -23  20   2  424.16   44.40
   0  20  -2  292.47   33.80
   0 -20   2  544.55   32.10
  20   0   2  533.65   23.20
 -20  20   2  537.85   42.80
  20   0   2  497.65   30.50
 -20  20   2  544.35   38.60
   3  17  -2  153.78   24.20
  17 -20  -2  166.38   20.20
 -20   3  -2  188.18   21.90
   3  17  -2  152.38   21.20
  20  -3   2  110.99   15.80
 -17  20   2   63.59   31.60
 -17  20   2  116.09   25.50
  20  -3   2  112.59   12.30
 -20   6  -2  599.44   32.30
   6  14  -2  552.64   33.60
  14 -20  -2  583.84   39.20
   6  14  -2  522.35   36.60
  20  -6   2  568.64   25.20
 -14  20   2  550.34   35.90
  20  -6   2  550.94   27.10
   9  11  -2  124.39   20.90
   9  11  -2  146.69   21.30
 -20   9  -2  161.98   20.30
  11 -20  -2  159.48   18.90
  20  -9   2  153.78   18.30
 -11  20   2  202.28   23.90
   8 -20  -2  134.99   16.70
 -20  12  -2  121.79   15.70
  12   8  -2  153.28   23.90
 -20  12  -2  130.29   19.80
  -8  20   2  133.29   20.70
 -12  -8   2  141.99   22.80
  20 -12   2  144.79   17.50
 -20  15  -2  268.87   30.30
  15   5  -2  276.97   28.40
  15   5  -2  267.77   22.90
 -20  15  -2  257.07   26.10
   5 -20  -2  289.17   22.30
 -15  -5   2  326.67   32.90
  20 -15   2  332.57   24.60
  -5  20   2  324.27   30.00
  18   2  -2  261.47   24.20
   2 -20  -2  244.88   20.00
  18   2  -2  194.48   25.20
 -20  18  -2  245.78   30.50
 -20  18  -2  255.87   33.10
 -18  -2   2  278.67   31.50
  20 -18   2  295.17   27.40
  -2  20   2  279.17   28.50
  21  -1  -2  274.67   33.30
 -20  21  -2  289.77   35.30
  21  -1  -2  292.47   28.30
   1  20   2  372.36   37.30
  20 -21   2  323.47   30.50
 -21   1   2  308.47   36.10
  24  -4  -2  103.09   27.50
 -20  24  -2  -24.40   21.50
  20 -24   2   37.00   17.20
   4  20   2   47.60   21.30
 -24   4   2    5.70   24.80
   4  20   2   32.20   21.40
  27  -7  -2   71.39   19.30
  27  -7  -2   -3.80   22.90
 -20  27  -2   61.99   28.90
   7  20   2    5.90   25.80
   7  20   2   14.30   22.30
 -27   7   2   27.70   35.50
  30 -10  -2   83.29   27.40
 -20  30  -2   67.79   33.90
  30 -10  -2   12.30   30.80
 -30  10   2  -26.40   40.40
  20 -30   2    3.20   23.50
  10  20   2   60.19   32.30
  10  20   2   28.50   29.40
 -10  31  -2  201.18   43.80
  31 -21  -2  143.59   32.30
  21  10   2  168.08   34.40
 -31  21   2  148.99   39.00
  10 -31   2  132.29   31.60
 -31  21   2  241.08   56.29
  21  10   2  183.18   32.40
  28 -21  -2  269.07   35.90
  -7  28  -2  223.58   36.00
 -28  21   2  223.28   42.30
 -28  21   2  245.78   39.70
  21   7   2  296.77   32.70
  21   7   2  255.37   25.40
  -4  25  -2    9.80   25.70
  25 -21  -2   41.80   20.60
  21   4   2   85.89   21.20
 -25  21   2  -39.50   31.10
   4 -25   2   53.49   18.10
  21   4   2   52.39   12.50
 -25  21   2  118.49   27.80
  -1  22  -2  119.69   26.70
 -21  -1  -2  116.69   24.10
  21   1   2  117.99   13.80
 -22  21   2  133.89   26.20
  21   1   2  151.78   21.10
   1 -22   2  134.99   19.60
 -22  21   2  148.19   30.30
   2  19  -2  111.49   22.10
   2  19  -2   67.49   22.50
 -21   2  -2   89.69   19.90
  21  -2   2   70.29   11.10
  21  -2   2  103.49   17.20
 -19  21   2  111.09   26.70
 -19  21   2   76.89   21.50
   5  16  -2 1261.07   54.49
 -21   5  -2 1227.18   46.20
   5  16  -2 1274.77   49.99
  16 -21  -2 1327.67   49.10
  21  -5   2 1187.08   37.10
 -16  21   2 1161.38   50.29
 -16  21   2 1228.08   56.19
  21  -5   2 1133.79   40.40
 -21   8  -2 1025.00   41.50
   8  13  -2 1073.79   44.60
   8  13  -2  931.51   47.10
  13 -21  -2 1000.70   40.50
  21  -8   2 1067.59   36.40
  11  10  -2  535.15   36.00
 -21  11  -2  540.05   33.70
 -21  11  -2  538.25   23.00
  10 -21  -2  539.75   29.70
  11  10  -2  541.15   39.70
  21 -11   2  570.74   29.00
 -10  21   2  556.34   36.20
 -11 -10   2  568.74   38.60
   7 -21  -2  464.85   27.50
  14   7  -2  413.96   40.70
 -21  14  -2  440.26   34.10
 -21  14  -2  577.44   29.30
 -14  -7   2  498.45   38.50
  21 -14   2  527.25   29.20
  -7  21   2  540.25   37.40
  17   4  -2  166.18   25.80
  17   4  -2  131.29   18.50
   4 -21  -2  139.89   16.90
 -21  17  -2  153.78   22.10
 -21  17  -2  118.19   23.40
  -4  21   2  185.08   25.80
  21 -17   2  120.99   23.20
 -17  -4   2  157.68   26.80
   1 -21  -2  256.97   20.30
  20   1  -2  267.47   33.60
  20   1  -2  258.27   27.80
 -21  20  -2  329.97   34.00
 -21  20  -2  304.27   36.10
 -20  -1   2  360.36   41.60
  -1  21   2  316.07   37.00
  21 -20   2  325.57   29.70
  23  -2  -2  109.69   21.00
  23  -2  -2   57.29   23.40
 -21  23  -2  121.69   25.70
 -23   2   2   48.10   27.00
   2  21   2   60.49   23.30
  21 -23   2   37.70   16.40
  26  -5  -2  -18.70   15.30
  26  -5  -2   41.40   22.10
 -21  26  -2   -3.60   27.40
 -26   5   2   58.99   34.50
  21 -26   2   91.69   21.20
   5  21   2  100.59   28.30
   5  21   2   85.59   30.00
  29  -8  -2    9.80   21.50
  29  -8  -2   -7.20   27.80
 -21  29  -2   20.20   31.60
   8  21   2   -3.20   29.70
  21 -29   2   20.80   22.40
 -29   8   2    3.10   41.50
   8  21   2  -37.10   26.00
  32 -11  -2    7.20   38.60
  32 -11  -2   42.00   31.90
 -21  32  -2    3.30   41.00
 -32  11   2   12.30   51.39
  11  21   2    2.20   37.40
  11  21   2  -51.99   36.00
  30 -22  -2   67.09   28.80
  -8  30  -2  113.89   32.70
  -8  30  -2  102.39   39.20
  22   8   2   61.29   19.00
 -30  22   2   62.49   43.00
  22   8   2  128.19   30.50
 -30  22   2  153.58   38.80
   8 -30   2   95.69   27.00
  -5  27  -2  117.89   32.20
  27 -22  -2  132.39   27.40
 -27  22   2  209.38   36.90
  22   5   2  177.38   19.20
 -27  22   2  183.38   36.90
  22   5   2  220.58   30.00
  24 -22  -2   84.59   27.80
 -22  -2  -2  157.88   26.70
  -2  24  -2  165.28   32.90
 -24  22   2  123.19   32.80
 -24  22   2  161.08   30.60
  22   2   2  101.39   21.60
  22   2   2  166.78   20.00
   2 -24   2  133.89   21.70
   1  21  -2  115.89   24.30
 -22   1  -2  115.29   23.40
   1  21  -2   52.59   20.60
  22  -1   2  128.69   15.10
 -21  22   2   98.69   22.90
 -21  22   2  131.09   31.10
   4  18  -2  170.48   26.20
 -22   4  -2  221.88   25.00
  18 -22  -2  222.88   26.10
   4  18  -2  171.38   24.50
  22  -4   2  230.68   19.10
  22  -4   2  243.78   24.10
 -18  22   2  221.08   31.80
 -18  22   2  218.98   27.70
 -22   7  -2  173.38   22.90
   7  15  -2  177.58   25.20
   7  15  -2  195.98   25.50
  15 -22  -2  206.58   25.20
 -15  22   2  211.88   26.60
  22  -7   2  174.38   18.60
  12 -22  -2  268.27   24.70
  10  12  -2  254.97   32.10
  10  12  -2  334.77   33.80
 -22  10  -2  264.37   30.50
  22 -10   2  248.68   22.90
   9 -22  -2  177.88   21.60
 -22  13  -2  186.88   23.90
  13   9  -2  190.58   24.50
 -22  13  -2  171.38   22.10
  13   9  -2  191.98   27.00
 -13  -9   2  262.67   33.70
  22 -13   2  219.38   22.80
  -9  22   2  230.08   31.70
  16   6  -2  476.65   35.50
   6 -22  -2  476.95   28.30
  16   6  -2  464.95   30.30
 -22  16  -2  555.84   36.30
 -22  16  -2  521.35   38.00
  19   3  -2  679.43   43.30
 -22  19  -2  704.33   46.70
  19   3  -2  715.03   35.90
 -22  19  -2  741.83   41.90
   3 -22  -2  712.03   31.50
 -19  -3   2  703.83   48.50
  22 -19   2  826.92   40.30
  22   0  -2  432.56   38.60
 -22  22  -2  323.47   41.20
  22   0  -2  352.36   40.50
 -22  22  -2  363.46   46.30
  22 -22   2  355.36   33.10
 -22   0   2  458.95   45.80
   0  22   2  393.86   44.20
  25  -3  -2   17.40   25.10
  25  -3  -2   37.40   19.50
 -22  25  -2   56.79   28.60
 -25   3   2   23.70   32.90
  22 -25   2   50.99   19.30
   3  22   2   49.70   25.20
   3  22   2    5.60   22.60
  28  -6  -2  144.79   25.10
 -22  28  -2   64.69   38.80
  28  -6  -2   67.49   29.70
  22 -28   2   99.89   24.60
 -28   6   2  134.79   42.60
   6  22   2  140.39   33.00
   6  22   2  101.69   31.40
 -22  31  -2  -26.50   41.10
  31  -9  -2   68.69   35.70
  31  -9  -2    6.60   26.70
  22 -31   2  -29.10   32.10
   9  22   2   -8.90   33.60
   9  22   2   -9.50   36.30
 -31   9   2   -6.30   47.20
  -6  29  -2  381.86   49.00
  29 -23  -2  318.07   42.60
  -6  29  -2  242.18   42.60
  23   6   2  473.85   47.00
 -29  23   2  341.07   46.50
   6 -29   2  418.16   41.70
  23   6   2  319.57   29.50
 -29  23   2  355.86   49.00
  -3  26  -2  594.74   57.09
  26 -23  -2  567.64   41.80
  23   3   2  639.34   43.30
  23   3   2  657.63   31.40
   3 -26   2  627.84   41.20
 -26  23   2  809.72   61.49
 -26  23   2  568.94   58.49
   0  23  -2  110.69   36.10
   0  23  -2  236.58   33.10
 -23   0  -2  199.48   28.10
  23   0   2  180.68   24.60
 -23  23   2  144.49   28.80
  23   0   2  204.38   22.50
 -23  23   2  235.88   38.80
   3  20  -2  339.97   37.80
 -23   3  -2  347.27   36.40
   3  20  -2  376.26   40.90
  23  -3   2  258.27   26.20
  23  -3   2  344.37   21.80
 -20  23   2  317.17   39.80
 -20  23   2  327.47   37.70
  17 -23  -2  278.27   28.40
   6  17  -2  273.67   34.00
   6  17  -2  212.58   29.30
 -23   6  -2  259.07   32.70
  23  -6   2  257.17   25.20
 -17  23   2  300.87   36.20
  23  -6   2  308.97   22.30
 -17  23   2  411.96   44.90
   9  14  -2   17.30   20.80
  14 -23  -2   19.10   13.10
 -23   9  -2   16.40   18.90
   9  14  -2   42.10   20.00
 -14  23   2    2.20   22.60
  23  -9   2   44.60   12.90
  12  11  -2  747.53   43.80
 -23  12  -2  719.43   26.70
  11 -23  -2  729.93   35.60
 -23  12  -2  663.93   40.90
  12  11  -2  671.93   41.80
 -11  23   2  715.63   42.70
  23 -12   2  728.13   34.40
 -23  15  -2  132.59   24.10
  15   8  -2  157.48   25.20
 -23  15  -2  150.18   19.70
   8 -23  -2  134.49   18.50
  23 -15   2  132.49   19.00
 -15  -8   2  105.89   24.00
  -8  23   2  156.28   26.90
  18   5  -2  310.67   28.30
 -23  18  -2  243.48   29.60
  18   5  -2  202.28   27.50
   5 -23  -2  221.88   23.70
 -23  18  -2  238.08   27.40
 -18  -5   2  256.57   32.20
  -5  23   2  248.08   29.30
  23 -18   2  267.07   28.40
  21   2  -2  111.39   24.90
 -23  21  -2  115.49   37.80
   2 -23  -2  114.99   16.50
 -23  21  -2   90.49   24.90
 -21  -2   2   84.49   28.50
  23 -21   2   81.69   18.70
  -2  23   2   65.89   25.90
 -23  24  -2  103.19   28.60
  24  -1  -2  204.68   32.00
 -23  24  -2  126.79   36.20
  24  -1  -2  135.19   25.00
 -24   1   2  165.48   35.80
  23 -24   2  143.39   24.50
   1  23   2  126.39   28.10
 -23  27  -2   52.99   33.20
  27  -4  -2  -16.10   25.60
   4  23   2   54.99   27.00
   4  23   2   52.59   30.10
 -27   4   2  -17.40   37.10
  23 -27   2   32.00   20.80
  30  -7  -2   67.99   25.40
  30  -7  -2   67.59   34.80
 -23  30  -2   69.29   45.50
  23 -30   2   54.99   19.10
 -30   7   2   35.50   45.20
   7  23   2   29.70   34.50
   7  23   2   25.00   32.40
  -7  31  -2   81.69   31.80
  24   7   2  125.39   22.90
   7 -31   2  113.79   30.90
  24   7   2  101.19   33.20
 -31  24   2   91.29   44.10
 -31  24   2  188.98   55.29
  28 -24  -2  176.28   30.40
  -4  28  -2  266.27   43.00
  -4  28  -2  271.77   43.00
 -28  24   2  226.08   43.00
  24   4   2  246.28   27.70
 -28  24   2  240.58   48.60
  24   4   2  203.58   30.90
  -1  25  -2  175.68   35.10
  25 -24  -2  122.59   29.10
 -24  -1  -2  124.19   29.30
  -1  25  -2  143.59   31.80
 -25  24   2  104.39   34.30
  24   1   2  101.49   17.50
 -25  24   2  118.09   34.50
  24   1   2  120.99   26.30
   2  22  -2  195.78   32.60
 -24   2  -2  226.58   27.40
 -22  24   2  215.08   31.10
 -22  24   2  175.68   32.80
  24  -2   2  168.58   17.50
  24  -2   2  166.88   22.60
 -24   5  -2  332.37   38.20
   5  19  -2  394.36   40.50
   5  19  -2  391.06   44.80
 -19  24   2  417.16   49.10
  24  -5   2  418.76   26.20
 -19  24   2  401.06   40.80
  24  -5   2  458.25   31.90
  16 -24  -2  221.18   27.10
   8  16  -2  174.78   28.50
 -24   8  -2  181.38   26.20
   8  16  -2  199.38   29.30
 -16  24   2  253.87   30.00
  24  -8   2  215.88   21.40
  13 -24  -2  873.71   40.40
  11  13  -2  877.91   47.30
  11  13  -2  814.72   47.30
 -24  11  -2  829.42   45.50
  24 -11   2  880.01   38.60
 -13  24   2  933.31   49.00
  14  10  -2  403.66   39.40
  10 -24  -2  433.26   30.00
 -24  14  -2  397.56   27.30
 -24  14  -2  449.76   39.40
  14  10  -2  425.56   38.70
  24 -14   2  415.46   29.00
 -10  24   2  377.06   41.30
 -14 -10   2  402.66   41.40
   7 -24  -2   63.99   16.30
  17   7  -2   37.70   16.00
  17   7  -2   37.00   20.00
 -24  17  -2   26.40   23.30
  -7  24   2   71.29   23.20
 -17  -7   2   58.99   24.70
  24 -17   2   42.70   14.60
 -24  20  -2   10.50   21.70
   4 -24  -2    2.90   13.40
 -24  20  -2    2.30   28.50
  20   4  -2    1.60   19.40
  -4  24   2    0.40   25.70
 -20  -4   2  -20.10   24.30
  24 -20   2   22.10   16.00
 -24  23  -2   47.70   28.80
 -24  23  -2   82.89   32.00
  23   1  -2   48.80   23.40
  23   1  -2   40.00   19.10
  24 -23   2   57.09   20.10
  -1  24   2   10.50   27.40
 -23  -1   2   72.89   33.90
  26  -2  -2   74.99   30.40
 -24  26  -2   89.49   32.50
 -24  26  -2  108.99   39.50
  26  -2  -2   71.99   24.40
 -26   2   2   82.29   37.50
   2  24   2   55.69   31.00
   2  24   2  122.69   29.40
  24 -26   2  135.39   27.20
 -24  29  -2   27.40   37.20
  29  -5  -2   39.80   23.30
  29  -5  -2   43.10   32.20
   5  24   2   71.49   34.60
 -29   5   2    3.10   45.10
   5  24   2   70.59   35.90
  24 -29   2   32.10   25.40
  30 -25  -2    2.30   36.80
  -5  30  -2  -14.20   39.30
  25   5   2   67.79   20.80
   5 -30   2  111.79   28.60
 -30  25   2   52.49   42.20
 -30  25   2   81.79   45.20
  25   5   2   31.10   29.90
  -2  27  -2  109.09   36.00
  -2  27  -2   98.69   36.10
  27 -25  -2   71.49   21.80
 -25  -2  -2  156.08   32.20
 -27  25   2  204.08   40.30
  25   2   2   93.49   32.10
 -27  25   2   50.29   36.50
  25   2   2  125.99   21.20
   1  24  -2  111.19   29.80
   1  24  -2  142.79   35.20
 -25   1  -2  163.98   30.20
 -24  25   2  171.68   33.00
 -24  25   2  136.89   34.50
  25  -1   2  130.89   17.70
  25  -1   2  169.78   25.30
   4  21  -2   67.29   30.70
   4  21  -2   28.90   26.20
 -25   4  -2   61.29   23.90
  25  -4   2   58.29   19.30
  25  -4   2   60.49   15.30
 -21  25   2   20.50   28.10
 -21  25   2   24.70   27.90
 -25   7  -2  161.08   26.20
   7  18  -2  162.38   28.60
   7  18  -2  131.29   29.00
 -18  25   2  100.99   26.50
 -18  25   2  128.59   30.70
  25  -7   2  110.99   16.30
  25  -7   2  122.79   20.20
  15 -25  -2  270.57   28.80
 -25  10  -2  338.87   38.50
  10  15  -2  259.47   32.40
  10  15  -2  332.87   39.90
  25 -10   2  310.47   27.40
 -15  25   2  276.77   36.80
 -25  13  -2  110.79   25.30
  12 -25  -2  120.19   18.90
 -25  13  -2  130.69   14.70
  13  12  -2   90.69   23.10
  25 -13   2  165.78   22.60
 -12  25   2  114.29   27.90
 -25  16  -2  177.68   28.90
 -25  16  -2  176.88   22.20
   9 -25  -2  179.78   22.00
  16   9  -2  286.57   36.90
 -16  -9   2  196.18   32.60
  -9  25   2  216.58   30.80
  25 -16   2  222.18   26.50
  19   6  -2   24.80   18.50
   6 -25  -2   15.90   14.90
 -25  19  -2   58.49   21.80
 -25  19  -2   16.80   26.10
  19   6  -2   36.30   22.00
  -6  25   2   45.80   27.10
  25 -19   2   55.59   17.10
 -19  -6   2   30.60   28.90
  22   3  -2   17.20   22.20
   3 -25  -2   36.80   14.90
 -25  22  -2   16.00   29.80
  22   3  -2   38.10   18.60
 -25  22  -2   18.00   40.80
 -22  -3   2   61.09   32.50
  25 -22   2   37.70   19.00
  -3  25   2   34.90   29.20
 -25  25  -2  375.16   44.60
 -25  25  -2  435.86   44.20
  25   0  -2  436.36   41.40
  25   0  -2  505.35   50.69
  25 -25   2  348.47   41.00
   0  25   2  347.57   40.50
 -25   0   2  364.76   47.80
  28  -3  -2  160.28   39.30
 -25  28  -2  195.08   42.40
 -25  28  -2  113.19   44.40
  28  -3  -2  124.19   26.30
   3  25   2  179.58   35.50
  25 -28   2  158.88   28.70
 -28   3   2  158.78   47.10
   3  25   2  170.48   39.00
  -3  29  -2  199.68   42.00
  -3  29  -2  150.68   44.40
  29 -26  -2  115.49   25.40
  26   3   2  273.57   35.10
  26   3   2  203.88   34.10
 -29  26   2   79.49   51.89
 -29  26   2  284.97   48.60
   0  26  -2  553.14   66.39
   0  26  -2  606.74   56.69
  26 -26  -2  581.64   49.50
 -26   0  -2  560.44   51.19
 -26  26   2  505.95   52.79
  26   0   2  408.46   31.00
 -26  26   2  503.85   65.99
   3  23  -2  875.01   63.29
   3  23  -2  836.32   59.29
 -26   3  -2  844.12   51.09
 -23  26   2  809.92   56.79
  26  -3   2  719.93   43.40
  26  -3   2  894.11   38.40
 -23  26   2  796.92   64.49
   6  20  -2  359.46   41.80
 -26   6  -2  353.16   42.80
   6  20  -2  377.36   49.60
  20 -26  -2  405.36   52.19
  26  -6   2  437.26   34.10
  26  -6   2  468.45   30.70
 -20  26   2  363.36   45.20
 -20  26   2  409.86   46.50
 -26   9  -2  262.67   30.80
   9  17  -2  228.28   34.20
   9  17  -2  234.28   33.20
  26  -9   2  349.77   28.30
 -17  26   2  334.37   43.50
 -26  12  -2   -9.30   22.70
  12  14  -2  -13.90   20.20
  12  14  -2    0.60   24.70
  14 -26  -2   -1.90   14.90
  26 -12   2   40.50   15.80
 -14  26   2   23.90   24.90
 -26  15  -2   90.29   26.80
  15  11  -2   89.69   26.60
  15  11  -2  110.09   27.30
  11 -26  -2   78.99   17.80
 -26  15  -2  102.79   17.30
  26 -15   2   85.39   18.60
 -11  26   2  111.59   29.60
   8 -26  -2  117.09   21.10
 -26  18  -2  126.39   22.80
 -26  18  -2  136.29   29.90
  18   8  -2   62.09   22.50
  18   8  -2   75.69   20.20
  26 -18   2  122.09   21.60
 -18  -8   2   81.39   29.00
  -8  26   2  116.49   30.10
 -26  21  -2   77.59   31.90
  21   5  -2   71.59   25.10
 -26  21  -2  101.09   28.50
   5 -26  -2   66.29   18.20
  21   5  -2   35.30   20.30
  -5  26   2  126.49   35.30
 -21  -5   2  115.79   35.80
  26 -21   2   96.89   22.80
  24   2  -2   99.29   23.90
 -26  24  -2  149.59   39.10
 -26  24  -2  132.09   32.60
  24   2  -2  116.79   30.40
  -2  26   2  137.89   36.10
 -24  -2   2  123.49   38.00
  26 -24   2  127.89   27.50
 -26  27  -2  113.49   43.40
  27  -1  -2   24.60   25.60
 -26  27  -2   86.79   38.50
  27  -1  -2   61.29   35.10
  26 -27   2   73.19   28.80
   1  26   2   31.00   33.30
   1  26   2   56.29   33.30
 -27   1   2  -12.30   42.00
   4  26   2   -5.00   40.40
  28 -27  -2   86.29   25.10
 -27  -1  -2   27.30   30.10
  -1  28  -2   95.99   47.10
  -1  28  -2   21.20   26.60
  27   1   2   99.89   30.70
  27   1   2   36.60   21.90
 -28  27   2   85.39   45.40
 -28  27   2   95.39   45.40
   2  25  -2  280.97   46.70
   2  25  -2  238.78   40.20
  25 -27  -2  428.26   46.60
 -27   2  -2  242.58   35.10
 -25  27   2  256.97   42.70
  27  -2   2  287.87   40.50
  27  -2   2  375.66   31.60
 -25  27   2  260.67   40.50
   5  22  -2  253.57   38.70
 -27   5  -2  272.07   34.60
   5  22  -2  230.28   39.90
  22 -27  -2  291.87   37.80
  27  -5   2  277.37   30.30
  27  -5   2  344.87   31.50
 -22  27   2  270.77   38.20
 -22  27   2  353.46   47.10
 -27   8  -2  208.98   30.90
  19 -27  -2  194.48   26.50
   8  19  -2  205.68   34.80
   8  19  -2  231.88   37.20
 -19  27   2  230.38   36.20
 -19  27   2  228.38   39.50
  27  -8   2  215.08   22.60
  11  16  -2   80.79   27.10
 -27  11  -2  124.99   28.20
  11  16  -2  121.39   31.20
 -16  27   2  163.78   39.00
  27 -11   2  149.19   29.30
 -27  14  -2  -14.40   24.50
  14  13  -2   33.30   24.90
  14  13  -2   37.70   25.10
  13 -27  -2    5.30   15.70
 -13  27   2   32.90   26.80
  27 -14   2    7.00   16.20
 -27  17  -2   99.79   20.50
  17  10  -2  172.18   31.90
 -27  17  -2  111.09   29.60
  10 -27  -2  139.49   21.90
  17  10  -2  114.99   28.50
 -17 -10   2   59.09   30.20
 -10  27   2  112.19   30.40
  27 -17   2   91.79   19.40
  20   7  -2   25.60   25.10
 -27  20  -2  -57.99   31.60
  20   7  -2   76.09   21.40
   7 -27  -2   36.70   18.00
 -27  20  -2   13.20   23.50
  -7  27   2   41.90   30.90
  27 -20   2   56.59   20.00
 -20  -7   2   50.59   33.00
  23   4  -2   29.50   19.30
   4 -27  -2    9.80   16.50
 -27  23  -2   -6.90   28.40
  23   4  -2   46.40   28.10
 -27  23  -2   53.49   33.40
  27 -23   2    9.20   21.60
 -23  -4   2   27.00   37.10
  -4  27   2   40.70   33.60
  26   1  -2   23.00   31.60
 -27  26  -2   -6.90   32.30
 -27  26  -2   -5.40   41.80
  26   1  -2   82.39   26.30
  27 -26   2  -32.00   23.90
  -1  27   2   11.50   33.40
 -26  -1   2   52.99   42.00
  29  -2  -2   53.39   35.20
 -27  29  -2   62.59   49.90
 -27  29  -2  -23.60   40.20
 -29   2   2  -10.70   49.00
   2  27   2   -6.20   38.30
   2  27   2  -20.80   39.20
   1  27  -2   32.50   25.40
 -28   1  -2   71.49   54.99
   1  27  -2   58.29   46.70
  28  -1   2   47.30   26.40
  28  -1   2   71.49   20.20
 -27  28   2   94.79   44.80
 -27  28   2   75.29   48.20
 -28   4  -2  155.78   31.90
  24 -28  -2  198.98   31.10
   4  24  -2  191.78   43.20
   4  24  -2  166.58   36.40
  28  -4   2  170.98   23.30
 -24  28   2  132.69   44.80
 -24  28   2  160.38   36.60
   7  21  -2  206.58   37.20
  21 -28  -2  161.58   28.40
 -28   7  -2  203.08   33.70
   7  21  -2  191.08   38.40
 -21  28   2  242.68   40.40
  28  -7   2  235.58   25.30
 -21  28   2  196.38   44.60
  18 -28  -2  275.07   35.10
  10  18  -2  296.47   41.40
  10  18  -2  283.37   37.80
 -28  10  -2  238.38   34.20
 -18  28   2  281.67   39.40
  13  15  -2  137.19   32.00
 -28  13  -2  152.38   30.80
  13  15  -2  159.68   32.50
 -15  28   2  121.69   33.20
  28 -13   2  155.08   24.40
  16  12  -2   27.30   26.90
 -28  16  -2   32.70   27.70
 -28  16  -2   12.50   14.90
  12 -28  -2  -10.90   16.80
  16  12  -2   20.10   25.20
 -12  28   2  -17.50   30.50
  28 -16   2    5.70   17.90
 -28  19  -2   16.50   29.50
   9 -28  -2   67.89   20.20
  19   9  -2   39.80   20.40
 -28  19  -2   30.60   21.40
  19   9  -2   34.40   25.10
  28 -19   2   43.40   19.70
  -9  28   2   10.80   29.50
 -19  -9   2   54.79   35.00
  22   6  -2   -3.30   20.70
  22   6  -2   63.89   29.90
 -28  22  -2  144.79   28.50
 -28  22  -2   36.10   35.20
   6 -28  -2   65.59   20.00
  28 -22   2  114.79   26.80
 -22  -6   2   43.80   41.10
  -6  28   2   79.39   36.30
 -28  25  -2  228.88   40.30
  25   3  -2  256.37   33.20
  25   3  -2  212.18   39.10
 -28  25  -2  205.58   44.70
  -3  28   2  264.37   44.70
 -25  -3   2  255.47   50.39
  28 -25   2  169.68   31.20
  28   0  -2   -6.30   28.90
 -28  28  -2  -43.20   47.60
 -28  28  -2   -1.50   39.40
  28   0  -2   12.40   35.30
   0  28   2   32.70   36.60
   0  28   2   66.29   38.80
  28 -28   2   33.70   31.60
 -28   0   2   85.69   50.49
 -29   3  -2  299.47   56.89
   3  26  -2  289.97   52.09
  26 -29  -2  386.46   46.50
  29  -3   2  274.67   36.50
 -26  29   2  290.77   52.59
 -26  29   2  314.07   50.79
  29  -3   2  354.16   46.90
 -29   6  -2  359.96   38.10
   6  23  -2  244.68   42.20
   6  23  -2  399.76   48.00
  23 -29  -2  318.87   35.70
 -23  29   2  267.77   44.60
 -23  29   2  358.16   52.09
  29  -6   2  389.46   38.90
  29  -6   2  339.97   43.10
   9  20  -2  335.87   42.30
   9  20  -2  331.17   45.10
 -29   9  -2  386.96   48.80
  20 -29  -2  389.86   42.90
 -20  29   2  320.77   46.80
  29  -9   2  339.87   35.10
 -20  29   2  414.06   47.30
  12  17  -2   70.19   32.00
 -29  12  -2   20.80   29.60
  12  17  -2  102.99   33.90
  17 -29  -2  113.19   24.20
 -17  29   2  115.89   40.00
  29 -12   2  170.18   24.90
  15  14  -2  -32.40   29.70
  15  14  -2   26.50   27.10
 -29  15  -2   32.80   34.80
 -14  29   2   42.20   31.70
  29 -15   2    0.10   19.10
  18  11  -2  -27.40   25.90
  11 -29  -2  -22.40   18.40
  18  11  -2   23.30   28.80
 -29  18  -2   22.70   17.50
 -29  18  -2    2.00   30.10
 -11  29   2   81.29   34.40
  29 -18   2  -25.40   18.00
 -29  21  -2    7.20   22.50
  21   8  -2   62.69   31.60
   8 -29  -2   34.80   20.00
 -29  21  -2   48.70   32.30
  21   8  -2   36.60   22.60
  29 -21   2   62.09   24.60
  -8  29   2    7.40   38.00
 -21  -8   2   31.10   38.00
 -29  24  -2  102.19   40.40
   5 -29  -2   58.09   22.50
 -29  24  -2  134.89   32.60
  24   5  -2   81.09   33.40
  24   5  -2   82.29   25.70
  -5  29   2   35.90   43.00
 -24  -5   2   65.29   45.80
  29 -24   2   80.39   28.60
  27   2  -2   99.19   32.00
  27   2  -2   23.60   36.70
 -29  27  -2   63.89   47.00
 -29  27  -2  -27.50   36.00
  -2  29   2   71.09   40.80
 -27  -2   2   63.89   50.39
  29 -27   2    5.60   22.30
 -30   5  -2   33.80   31.10
  25 -30  -2    0.30   46.80
   5  25  -2   65.79   46.20
   5  25  -2   -7.00   27.40
  30  -5   2   54.89   22.90
 -25  30   2   67.49   43.40
  30  -5   2   86.59   29.30
 -25  30   2   85.49   37.50
   8  22  -2  234.68   43.60
   8  22  -2  205.28   44.00
 -30   8  -2  213.88   43.90
  22 -30  -2  245.48   32.60
  30  -8   2  258.77   28.90
 -22  30   2  188.38   47.80
 -22  30   2  215.78   42.00
  19 -30  -2   36.20   22.80
 -30  11  -2   50.29   31.40
  11  19  -2    3.30   33.80
  11  19  -2   43.50   34.70
  30 -11   2    5.30   22.10
 -19  30   2    1.60   34.40
 -30  14  -2  145.19   38.30
  16 -30  -2  178.28   26.50
  14  16  -2  145.99   35.10
  14  16  -2  123.89   34.60
 -16  30   2  122.39   40.60
  30 -14   2  104.09   24.30
 -30  17  -2  206.78   23.80
  17  13  -2  223.98   37.40
  17  13  -2  277.57   38.00
 -30  17  -2  241.68   39.50
 -13  30   2  164.88   43.90
  30 -17   2  186.78   27.50
  10 -30  -2  -10.50   19.90
 -30  20  -2   33.90   35.50
 -30  20  -2   39.40   22.80
  20  10  -2   55.89   35.30
  20  10  -2   18.00   22.60
  20  10  -2   41.40   30.40
  30 -20   2   42.40   23.80
 -10  30   2   41.40   36.40
  23   7  -2   69.69   35.10
 -30  23  -2   66.89   33.60
 -30  23  -2   22.90   38.40
   7 -30  -2   48.80   20.60
  23   7  -2   -4.90   24.20
 -23  -7   2   75.49   45.30
  -7  30   2   19.60   43.20
  30 -23   2   72.19   28.40
  -4  30   2   18.30   44.40
  30 -26   2   43.40   22.40
   7  24  -2   89.09   45.50
   7  24  -2   76.49   43.80
 -31   7  -2  104.69   34.70
 -24  31   2  -13.10   33.40
  31  -7   2  115.99   24.90
 -24  31   2   39.40   27.90
  21 -31  -2   95.69   27.50
  10  21  -2  162.98   41.70
  10  21  -2  168.88   40.00
 -31  10  -2  195.48   36.00
 -21  31   2  100.49   40.40
  31 -10   2  182.18   28.50
 -21  31   2   86.49   48.00
 -31  13  -2  284.77   38.90
  13  18  -2  236.78   39.90
  18 -31  -2  228.68   31.10
  13  18  -2  277.07   44.80
  31 -13   2  265.47   32.40
 -18  31   2  247.18   47.20
  16  15  -2  224.48   38.10
 -31  16  -2  220.88   39.90
  16  15  -2  298.57   45.40
  15 -31  -2  229.38   31.60
 -15  31   2  197.18   44.70
  31 -16   2  250.87   30.20
 -31  19  -2  159.58   20.80
 -31  19  -2  165.08   39.70
  19  12  -2  140.19   39.10
  19  12  -2  119.69   39.60
  31 -19   2  143.69   28.20
 -12  31   2   93.79   40.20
  22   9  -2   22.10   41.90
 -31  22  -2   84.09   27.50
   9 -31  -2   63.29   23.00
 -31  22  -2   58.39   38.10
  22   9  -2  123.09   39.90
  22   9  -2   36.70   28.10
  31 -22   2   61.79   29.80
  -9  31   2   46.90   47.30
 -22  -9   2   31.20   47.10
  20 -32  -2   26.60   22.00
 -32  12  -2   17.40   33.30
  12  20  -2   35.60   37.00
  12  20  -2   21.70   31.00
  32 -12   2   71.89   27.20
 -20  32   2   24.80   27.30
 -32  15  -2   51.59   35.10
  15  17  -2   27.70   41.20
  15  17  -2   80.89   39.50
  17 -32  -2   45.00   26.50
  32 -15   2   13.40   26.20
 -17  32   2  -73.09   39.50
  18  14  -2    3.40   39.40
 -32  18  -2   24.50   35.40
  18  14  -2   46.50   37.70
  14 -32  -2  -18.40   25.50
  32 -18   2  -18.70   24.90
 -14  32   2   -9.20   43.70
 -32  21  -2   32.70   19.30
 -32  21  -2  -45.60   37.40
  21  11  -2  -26.40   25.90
  21  11  -2   16.10   41.20
  11 -32  -2   -2.20   27.70
  32 -21   2  -15.40   26.50
 -11  32   2    4.00   36.90
   0   0  -3 1195.38   30.10
   0   0  -3 1191.58   30.10
   0   0  -3 1269.67   30.70
   0   0   3 1146.09   30.30
   0   0   3 1325.37   32.10
   2  -1  -3 5109.39  102.29
  -1   2  -3 5140.79  101.19
  -1  -1  -3 4979.70   97.79
  -1  -1  -3 4979.20   97.89
   2  -1  -3 5189.98  102.09
  -1   2  -3 5075.19  100.29
  -1   2  -3 5091.99  100.49
  -1  -1  -3 4962.70   97.59
   1   1   3 5275.27  102.49
  -2   1   3 5350.56  106.59
   1   1   3 5335.87  103.79
   1  -2   3 5261.87  105.39
   1  -2   3 5223.38  104.19
  -2   1   3 5340.67  106.59
   1  -2  -3 4280.57   86.49
   1  -2  -3 3942.91   81.49
   1   1  -3 4042.00   83.19
  -2   1  -3 4067.99   81.09
  -2   1  -3 4080.89   79.59
   1   1  -3 4117.69   83.89
  -2   1  -3 4037.80   80.09
   1   1  -3 3879.11   83.19
  -1   2   3 4128.29   83.89
  -1   2   3 4064.99   83.49
  -1  -1   3 4180.98   84.79
  -1  -1   3 4040.10   84.99
   2  -1   3 4086.89   82.69
   2  -1   3 4061.29   90.99
   2  -1   3 4209.18   80.49
   4  -2  -3 3039.10   66.49
  -2  -2  -3 2868.61   56.09
  -2   4  -3 2972.60   63.49
  -2  -2  -3 2851.71   56.29
  -2   4  -3 3041.90   63.39
   4  -2  -3 2981.90   65.29
  -4   2   3 2725.83   62.19
  -4   2   3 2873.91   63.69
   2  -4   3 2870.51   60.19
   2  -4   3 2727.53   60.89
   2   2   3 2728.03   56.59
   2   2   3 2783.82   56.09
   3  -3  -3  183.98   13.20
   0   3  -3  173.98   12.80
   3  -3  -3  206.38   12.50
   0   3  -3  216.18   13.40
  -3   0  -3  193.28    8.00
  -3   0  -3  185.68    7.60
  -3   0  -3  214.38    7.80
   0   3  -3  197.58   13.50
  -3   3   3  204.68   14.70
   3   0   3  204.38    9.70
   0  -3   3  188.48   13.90
  -3   3   3  205.28   14.20
   3   0   3  203.78    8.40
   3   0   3  219.78   11.10
   0  -3   3  190.88   13.30
   3   0  -3  231.18   15.00
  -3   3  -3  248.08   12.60
   3   0  -3  273.97   14.90
   0  -3  -3  250.07   10.50
  -3   3  -3  273.17   12.70
  -3   3  -3  244.18   11.50
   3  -3   3  259.47   13.00
   0   3   3  285.77   13.20
   0   3   3  241.48   13.10
   3  -3   3  239.08   12.10
  -3   0   3  297.87   16.70
  -3   0   3  241.88   15.80
   6  -3  -3  176.38   13.80
  -3   6  -3  163.78   12.90
   6  -3  -3  164.78   15.50
  -3   6  -3  146.59   13.20
  -6   3   3  156.58   14.80
   3   3   3  140.39    8.10
   3  -6   3  142.29   12.80
  -6   3   3  161.68   16.70
  -1   5  -3 1643.74   41.20
   5  -4  -3 1622.44   41.20
   5  -4  -3 1644.24   42.80
  -1   5  -3 1661.43   41.70
   4   1   3 1654.43   34.40
   4   1   3 1643.44   34.00
   4   1   3 1673.63   32.70
   1  -5   3 1680.73   42.00
  -5   4   3 1633.64   43.50
  -5   4   3 1629.74   42.60
   1  -5   3 1596.94   41.30
   2  -4  -3 3408.56   70.99
   2   2  -3 3492.25   73.99
  -4   2  -3 3472.95   66.79
   2   2  -3 3431.96   74.09
  -4   2  -3 3444.76   68.29
   2  -4  -3 3471.95   72.59
  -4   2  -3 3353.56   67.79
   2   2  -3 3493.25   74.99
   4  -2   3 3318.67   67.19
  -2   4   3 3266.67   70.09
  -2  -2   3 3271.87   71.89
  -2   4   3 3303.57   69.59
  -1  -4  -3 3762.22   71.39
  -4   5  -3 3743.23   77.49
   5  -1  -3 3807.02   82.19
  -1  -4  -3 3636.24   71.09
   5  -1  -3 3776.52   80.89
   1   4   3 3541.95   72.39
   1   4   3 3674.73   73.89
   4  -5   3 3598.94   76.29
  -5   1   3 3746.83   80.69
  -5   1   3 3551.34   78.39
  -4   8  -3 1717.43   43.70
  -4   8  -3 1767.02   44.40
   8  -4  -3 1545.75   43.70
   8  -4  -3 1714.23   47.30
  -8   4   3 1609.34   44.60
   4   4   3 1659.83   33.10
  -8   4   3 1675.63   47.50
   4  -8   3 1658.53   43.50
  -2   7  -3 4535.95   96.19
  -2   7  -3 4560.54   95.29
   7  -5  -3 4529.75   97.89
   7  -5  -3 4492.25   95.89
  -7   5   3 4567.14   99.99
   2  -7   3 4656.03   97.69
  -7   5   3 4639.14   98.39
   1   4  -3 2263.17   53.69
   1   4  -3 2264.37   52.79
   4  -5  -3 2251.87   51.39
   4  -5  -3 2181.78   52.99
   5  -1   3 2138.09   44.10
  -1  -4   3 2096.39   51.69
  -4   5   3 2115.59   51.49
   5  -1   3 2180.38   44.70
  -4   5   3 2160.88   50.59
   4   1  -3 2451.85   56.59
  -5   4  -3 2490.55   48.80
  -5   4  -3 2293.77   49.50
   1  -5  -3 2102.29   55.09
   4   1  -3 2282.37   54.59
   5  -4   3 2349.86   52.19
  -1   5   3 2422.46   53.89
  -1   5   3 2312.17   52.49
  -4  -1   3 2488.05   57.89
   7  -2  -3 4242.28   93.89
  -5   7  -3 4299.27   89.09
  -5   7  -3 4316.67   88.89
   7  -2  -3 4261.77   91.99
  -7   2   3 4329.87   91.79
   2   5   3 4218.58   82.89
  -7   2   3 4217.88   93.79
   5  -7   3 4225.88   89.49
  -5  10  -3  933.81   31.40
  10  -5  -3  868.91   30.70
  10  -5  -3  928.41   34.00
   5 -10   3  952.90   31.90
 -10   5   3  907.71   33.10
 -10   5   3  968.00   36.50
   9  -6  -3  492.35   24.50
  -3   9  -3  532.05   23.60
  -3   9  -3  503.25   23.10
   9  -6  -3  492.85   22.40
  -9   6   3  458.65   23.70
  -9   6   3  459.45   26.30
   6   3   3  472.65   14.40
   3  -9   3  466.85   21.80
   0   6  -3   21.60    8.00
   6  -6  -3   32.00    8.10
   6  -6  -3   31.60    9.00
   0   6  -3   22.60    8.50
   0  -6   3   22.20    9.30
  -6   6   3   35.30    9.80
  -6   6   3    2.30    8.70
   6   0   3   33.20    4.10
   0  -6   3   25.30    8.50
  -6   3  -3  334.87   11.20
   3  -6  -3  331.37   14.90
   3   3  -3  326.07   18.40
   3   3  -3  354.26   18.30
  -6   3  -3  356.66   11.40
   3   3  -3  361.16   17.70
   6  -3   3  354.06   13.50
  -3   6   3  336.47   18.10
  -3   6   3  363.56   17.50
  -3  -3   3  340.07   19.40
   6   0  -3   30.60    9.30
   0  -6  -3   23.70    4.50
  -6   6  -3   28.20    7.10
   6   0  -3   27.80    7.50
   6  -6   3   33.10    6.90
   0   6   3   33.50    7.00
  -6   0   3   21.30    9.80
  -6   9  -3  125.09   14.60
   9  -3  -3  121.09   14.90
   9  -3  -3  138.79   16.90
   6  -9   3   94.99   11.50
  -9   3   3  105.29   15.80
   3   6   3   98.69    9.00
  -9   3   3   73.59   11.50
  12  -6  -3   62.19   13.00
  -6  12  -3   84.89   14.10
  12  -6  -3   62.39   11.50
 -12   6   3   60.29   14.30
 -12   6   3   37.00   11.20
   6   6   3   47.00    8.00
   6 -12   3   48.70   10.50
  11  -7  -3  511.35   24.20
  -4  11  -3  498.25   24.90
  11  -7  -3  524.95   27.00
  -4  11  -3  493.05   24.50
 -11   7   3  538.75   26.40
 -11   7   3  570.74   29.90
   7   4   3  542.55   17.90
   4 -11   3  532.45   24.80
   8  -7  -3  177.88   15.10
  -1   8  -3  195.88   17.30
   8  -7  -3  181.68   17.20
  -1   8  -3  201.78   16.80
   1  -8   3  184.48   16.00
  -8   7   3  176.48   19.40
  -8   7   3  174.18   16.90
   5  -7  -3 3424.56   74.09
   2   5  -3 3405.16   75.99
   2   5  -3 3486.85   78.09
  -5   7   3 3626.64   79.49
  -2  -5   3 3583.14   80.09
   7  -2   3 3504.95   69.69
  -5   7   3 3480.05   77.39
   2  -7  -3 4015.70   81.09
  -7   5  -3 3958.40   79.89
   5   2  -3 4016.80   88.69
   5   2  -3 4037.40   86.89
  -2   7   3 3974.30   84.29
  -2   7   3 4108.79   86.79
   7  -5   3 4073.59   83.39
  -5  -2   3 4118.79   90.39
  -7   8  -3 2151.88   50.89
   8  -1  -3 2124.69   56.29
   8  -1  -3 2164.08   53.99
  -8   1   3 2009.30   55.69
   1   7   3 2077.69   46.20
  -8   1   3 2197.88   53.79
   7  -8   3 2074.79   50.39
  11  -4  -3  538.85   28.30
  -7  11  -3  551.74   24.90
  11  -4  -3  571.64   25.30
 -11   4   3  509.55   28.80
   4   7   3  514.35   16.10
   7 -11   3  508.15   23.40
 -11   4   3  484.95   24.70
  14  -7  -3 1198.58   43.50
  14  -7  -3 1234.28   40.50
  -7  14  -3 1244.78   41.20
 -14   7   3 1290.37   42.10
 -14   7   3 1234.78   45.60
   7   7   3 1245.88   27.10
   7 -14   3 1235.48   41.10
   7   7   3 1277.57   35.90
  -5  13  -3 1548.15   46.60
  13  -8  -3 1553.24   46.70
  13  -8  -3 1575.74   49.90
 -13   8   3 1576.74   48.40
   5 -13   3 1606.54   47.50
   8   5   3 1655.83   40.50
 -13   8   3 1724.13   53.09
  10  -8  -3  609.64   26.10
  10  -8  -3  588.44   28.30
  -2  10  -3  624.94   26.60
  -2  10  -3  623.74   27.50
 -10   8   3  737.53   32.80
   8   2   3  715.23   18.90
 -10   8   3  711.93   30.00
   2 -10   3  767.72   28.50
   7  -8  -3  228.98   15.70
   1   7  -3  258.57   18.00
   1   7  -3  239.58   18.60
  -7   8   3  161.18   18.20
  -1  -7   3  166.78   15.20
   8  -1   3  147.59    7.50
  -7   8   3  107.69   13.10
  -1  -7   3  163.28   17.80
   4  -8  -3 2450.15   54.99
   4   4  -3 2375.86   60.19
  -8   4  -3 2374.46   47.70
   4   4  -3 2415.46   58.39
  -8   4  -3 2487.35   48.10
  -4   8   3 2604.84   61.19
   8  -4   3 2341.07   56.29
  -4  -4   3 2570.74   63.09
  -4   8   3 2574.64   58.89
  -8   7  -3 2094.09   47.90
   1  -8  -3 2094.59   45.10
   7   1  -3 2028.40   52.49
   7   1  -3 2142.89   55.79
  -1   8   3 2031.00   47.30
   8  -7   3 1984.10   47.90
  -7  -1   3 1999.00   54.49
  10  -2  -3 1091.69   35.50
  -8  10  -3 1087.59   33.90
  10  -2  -3 1120.89   39.10
 -10   2   3 1085.09   39.10
 -10   2   3 1095.39   36.00
   2   8   3 1117.09   28.80
   8 -10   3 1108.79   34.30
  13  -5  -3   33.50   13.70
  13  -5  -3    9.30    7.50
  -8  13  -3   16.60   10.30
   5   8   3   26.10    6.90
 -13   5   3   19.80   10.90
 -13   5   3   29.90   14.70
   8 -13   3   25.20    9.50
  16  -8  -3   38.10   13.20
  16  -8  -3   56.79   12.60
  -8  16  -3   51.59   14.20
 -16   8   3   47.30   15.60
   8   8   3   43.20    7.30
 -16   8   3   47.90   13.50
   8   8   3   32.40    9.10
   8 -16   3   39.60   12.30
  15  -9  -3   54.49   11.90
  -6  15  -3   62.69   14.40
  15  -9  -3   54.89   14.20
   9   6   3   53.59    9.60
   6 -15   3   42.60   12.00
 -15   9   3   26.30   12.70
 -15   9   3   60.29   16.60
  -3  12  -3  176.08   19.80
  12  -9  -3  228.08   18.90
  12  -9  -3  214.68   20.80
  -3  12  -3  184.08   19.70
   3 -12   3  175.18   17.40
 -12   9   3  169.38   21.80
   9   3   3  159.48   10.70
 -12   9   3  165.78   20.30
   9  -9  -3   42.80   10.00
   0   9  -3   34.10   10.40
   0   9  -3   38.30   11.20
  -9   9   3   31.80   11.00
   0  -9   3   48.40   10.20
  -9   9   3   55.19   14.00
   3   6  -3  743.53   29.70
   3   6  -3  741.93   29.00
   6  -9  -3  779.02   26.10
  -9   3  -3  737.03   17.10
  -3  -6   3  776.92   30.90
  -6   9   3  798.22   31.00
   9  -3   3  775.82   20.50
  -6   9   3  809.82   29.20
   6   3  -3   20.10    9.70
   6   3  -3   17.80    7.80
   3  -9  -3   24.40    6.70
  -9   6  -3   21.80    6.20
   9  -6   3   25.40    6.80
  -6  -3   3   31.40   12.10
  -3   9   3   22.70    9.00
   0  -9  -3   31.70    5.10
   9   0  -3   19.30   10.00
   9   0  -3   24.90    8.50
  -9   9  -3   27.90    8.40
   0   9   3   34.20    8.30
   9  -9   3   29.70    8.30
  -9   0   3   23.40   11.30
  -9  12  -3  138.69   17.90
  12  -3  -3  136.79   17.30
  12  -3  -3  152.48   18.40
 -12   3   3  145.79   18.90
   3   9   3  143.69   13.40
 -12   3   3  128.59   17.10
   9 -12   3  131.19   15.80
  -9  15  -3  376.26   25.20
  15  -6  -3  410.56   27.40
  15  -6  -3  365.76   22.00
 -15   6   3  439.16   26.10
 -15   6   3  456.55   31.80
   6   9   3  462.35   17.80
   9 -15   3  452.35   25.30
   6   9   3  441.76   22.30
  -9  18  -3  508.05   31.60
  18  -9  -3  543.95   34.00
  18  -9  -3  507.15   29.50
   9   9   3  501.55   18.60
 -18   9   3  484.65   34.70
   9   9   3  486.45   24.90
 -18   9   3  511.85   30.40
   9 -18   3  450.25   29.20
  -7  17  -3   31.30   14.70
  17 -10  -3   42.40   15.70
  17 -10  -3   38.60   11.80
   7 -17   3   19.60   11.70
 -17  10   3   30.90   14.50
  10   7   3   30.30    9.70
 -17  10   3   49.90   18.60
  -4  14  -3  647.24   30.70
  -4  14  -3  551.54   30.00
  14 -10  -3  618.24   29.20
  14 -10  -3  602.54   31.30
   4 -14   3  624.34   29.00
 -14  10   3  592.74   32.80
 -14  10   3  613.14   29.80
  10   4   3  565.44   20.90
  11 -10  -3  365.46   21.00
  -1  11  -3  360.46   22.60
  -1  11  -3  383.46   24.10
 -11  10   3  431.66   28.70
   1 -11   3  429.06   23.40
 -11  10   3  452.95   25.90
  10   1   3  388.36   13.70
   2   8  -3  777.62   31.40
   2   8  -3  740.33   29.70
 -10   2  -3  732.23   17.30
   8 -10  -3  687.43   26.90
  10  -2   3  856.91   20.70
  -8  10   3  874.61   32.70
  -8  10   3  879.81   34.10
  -2  -8   3  895.51   34.20
 -10   5  -3 1528.85   30.80
 -10   5  -3 1466.05   33.50
   5   5  -3 1534.75   45.50
   5 -10  -3 1483.25   39.10
   5   5  -3 1501.45   42.80
 -10   5  -3 1448.96   30.70
  -5  10   3 1554.64   42.80
  10  -5   3 1499.05   36.90
  -5  -5   3 1568.34   47.50
   8   2  -3  620.54   25.30
   2 -10  -3  599.74   19.70
 -10   8  -3  601.44   21.30
   8   2  -3  557.14   27.40
  -8  -2   3  537.45   28.50
  10  -8   3  549.54   21.70
  -2  10   3  556.04   23.20
  11  -1  -3  684.53   31.30
  11  -1  -3  670.03   28.10
 -10  11  -3  674.53   26.80
   1  10   3  679.53   23.70
 -11   1   3  645.54   32.80
  10 -11   3  685.43   26.70
  14  -4  -3  535.55   26.90
 -10  14  -3  505.35   26.90
  14  -4  -3  521.25   30.10
 -14   4   3  613.04   33.20
   4  10   3  632.74   22.40
  10 -14   3  581.74   27.40
 -14   4   3  650.03   29.60
  17  -7  -3  334.97   27.50
  17  -7  -3  363.46   24.70
 -10  17  -3  375.86   27.70
  10 -17   3  387.46   25.80
 -17   7   3  396.96   32.50
 -17   7   3  410.06   27.10
   7  10   3  365.36   22.70
   7  10   3  380.76   18.60
 -10  20  -3   31.00   16.90
  20 -10  -3   53.39   18.60
  20 -10  -3   42.60   18.50
 -20  10   3   35.80   20.60
  10  10   3   39.60   10.30
 -20  10   3   67.99   18.40
  10 -20   3   60.89   16.50
  10  10   3   47.00   13.90
  19 -11  -3  319.47   27.40
  -8  19  -3  289.67   29.30
  19 -11  -3  262.27   35.20
 -19  11   3  283.17   32.00
 -19  11   3  319.77   28.90
  11   8   3  307.47   22.00
  16 -11  -3  234.98   25.00
  16 -11  -3  201.18   21.60
  -5  16  -3  217.18   24.20
 -16  11   3  178.48   23.00
  11   5   3  157.68   14.70
   5 -16   3  184.08   20.10
 -16  11   3  178.48   22.10
  13 -11  -3   73.49   12.60
  -2  13  -3   97.79   15.00
  -2  13  -3   77.59   14.70
 -13  11   3   90.29   17.50
 -13  11   3  118.09   16.50
   2 -13   3  127.29   16.90
  10 -11  -3  182.58   17.50
 -11   1  -3  216.38   10.50
   1  10  -3  215.28   20.50
   1  10  -3  243.58   21.30
 -10  11   3  250.67   23.60
  -1 -10   3  218.98   18.20
 -10  11   3  229.78   22.30
  11  -1   3  225.08    9.80
   4   7  -3  504.85   25.20
 -11   4  -3  538.75   16.40
   7 -11  -3  497.65   22.20
   4   7  -3  551.44   27.80
  -7  11   3  591.94   28.90
  -7  11   3  583.94   26.80
  -4  -7   3  609.44   30.30
  11  -4   3  644.74   25.20
   4 -11  -3  285.67   16.00
 -11   7  -3  285.07   14.00
   7   4  -3  311.87   22.30
  -7  -4   3  282.17   23.60
  -4  11   3  285.77   20.50
  11  -7   3  278.67   15.80
  10   1  -3  487.55   27.20
   1 -11  -3  493.85   16.90
  10   1  -3  454.15   23.20
 -11  10  -3  508.75   21.90
  -1  11   3  482.05   21.90
  11 -10   3  481.55   22.00
 -10  -1   3  474.75   28.80
 -11  13  -3  673.23   28.60
  13  -2  -3  656.73   32.50
  13  -2  -3  632.74   28.80
 -13   2   3  799.52   36.70
   2  11   3  790.72   27.00
  11 -13   3  700.53   29.30
  16  -5  -3  171.98   18.70
 -11  16  -3  231.28   23.20
  16  -5  -3  267.37   26.00
   5  11   3  202.28   17.30
 -16   5   3  242.98   27.80
  11 -16   3  221.38   20.60
 -16   5   3  218.38   23.20
 -11  19  -3  324.47   29.60
  19  -8  -3  327.87   26.00
  19  -8  -3  356.46   30.10
 -19   8   3  389.26   30.30
   8  11   3  395.76   20.70
  11 -19   3  312.97   31.70
 -19   8   3  398.96   35.30
   8  11   3  414.36   26.10
  22 -11  -3  788.02   39.50
 -11  22  -3  690.83   42.30
  22 -11  -3  684.93   43.10
 -22  11   3  768.22   42.50
  11  11   3  740.73   27.90
  11  11   3  758.82   36.50
  11 -22   3  763.02   39.30
 -22  11   3  732.93   47.70
  21 -12  -3  375.36   34.40
  21 -12  -3  383.86   29.90
  -9  21  -3  344.97   33.60
  12   9   3  320.57   18.10
 -21  12   3  272.37   34.80
   9 -21   3  400.76   30.10
 -21  12   3  320.17   32.80
  12   9   3  379.66   27.10
  18 -12  -3  903.41   38.70
  18 -12  -3  946.51   43.30
  -6  18  -3  942.41   42.00
 -18  12   3  936.61   44.90
   6 -18   3  874.91   37.40
 -18  12   3  857.11   39.30
  12   6   3  844.72   30.90
  -3  15  -3  329.07   26.80
  -3  15  -3  351.56   25.80
  15 -12  -3  344.47   23.70
  12   3   3  318.97   16.50
 -15  12   3  317.17   29.80
 -15  12   3  413.36   26.00
   3 -15   3  346.27   23.80
 -12   0  -3  196.08   12.80
  12 -12  -3  174.58   18.20
   0  12  -3  199.28   21.80
   0  12  -3  170.88   20.40
 -12  12   3  182.28   21.80
   0 -12   3  165.48   18.20
  12   0   3  168.48   10.50
 -12  12   3  209.18   26.00
   9 -12  -3  479.15   23.00
 -12   3  -3  423.76   15.00
   3   9  -3  395.26   25.60
   3   9  -3  445.26   24.40
  -9  12   3  426.56   26.90
  -3  -9   3  418.16   27.80
  12  -3   3  431.76   14.50
  -9  12   3  408.96   25.60
   6   6  -3   16.60   10.40
   6   6  -3   38.80   10.80
 -12   6  -3   33.50    4.30
   6 -12  -3   25.80    8.10
 -12   6  -3   26.20    7.20
  -6  12   3   29.50   10.80
  12  -6   3   26.60    6.70
  -6  -6   3   28.40   12.90
 -12   9  -3   42.20    9.00
   9   3  -3   41.60   10.10
   9   3  -3   25.20   10.60
   3 -12  -3   44.60    7.60
  -3  12   3   63.89   11.90
  12  -9   3   65.99    9.90
  -9  -3   3   49.40   14.80
  12   0  -3  133.49   16.70
  12   0  -3  148.49   19.50
 -12  12  -3  131.99   16.80
  12 -12   3  139.49   15.50
 -12   0   3  150.38   19.80
   0  12   3  139.49   16.60
  15  -3  -3  203.18   21.00
 -12  15  -3  193.98   21.50
  15  -3  -3  238.48   24.40
  12 -15   3  226.28   20.00
 -15   3   3  209.38   23.90
   3  12   3  239.78   19.00
  18  -6  -3  360.76   29.00
  18  -6  -3  316.77   22.90
 -12  18  -3  385.56   27.90
 -18   6   3  438.46   29.50
   6  12   3  365.56   22.20
  12 -18   3  389.46   27.10
 -18   6   3  422.06   33.30
   6  12   3  428.56   26.40
  21  -9  -3  568.04   33.20
  21  -9  -3  563.44   38.70
   9  12   3  573.64   32.10
  12 -21   3  562.34   33.70
   9  12   3  576.64   25.90
 -21   9   3  598.44   37.70
 -12  24  -3  212.28   27.70
  24 -12  -3  229.08   29.80
  24 -12  -3  262.67   35.60
  12  12   3  287.27   30.90
  12  12   3  207.78   25.20
 -24  12   3  247.68   35.30
 -24  12   3  210.68   28.80
  23 -13  -3  117.09   21.10
 -10  23  -3   84.89   23.20
  23 -13  -3   95.89   24.20
 -23  13   3  108.89   24.10
 -23  13   3   72.29   24.10
  13  10   3   49.99   16.70
  13  10   3   99.99   14.40
  10 -23   3   82.09   19.30
  20 -13  -3   34.60   14.80
  13   7   3   29.40   11.90
   7 -20   3   58.09   16.10
 -20  13   3   42.40   19.60
 -20  13   3   42.90   17.90
  -4  17  -3  252.07   26.40
  -4  17  -3  238.58   27.10
  17 -13  -3  289.07   23.30
   4 -17   3  294.97   24.20
 -17  13   3  310.67   27.90
 -17  13   3  296.77   31.10
  13   4   3  331.27   19.20
  14 -13  -3  755.72   32.30
  -1  14  -3  704.83   35.30
  -1  14  -3  690.63   34.10
 -14  13   3  728.13   36.70
 -14  13   3  739.73   34.60
   1 -14   3  754.92   32.20
  13   1   3  682.93   22.60
   2  11  -3  134.79   18.20
  11 -13  -3  131.49   16.70
   2  11  -3  132.39   15.90
 -13   2  -3  133.19   12.30
 -11  13   3  122.09   20.00
  13  -2   3  114.79    7.70
 -11  13   3  106.19   16.60
  13  -2   3  101.09    9.00
   5   8  -3 1560.74   47.00
 -13   5  -3 1570.14   37.60
   8 -13  -3 1617.94   44.70
   5   8  -3 1611.64   50.59
  -8  13   3 1669.73   49.50
  13  -5   3 1695.83   40.70
  -8  13   3 1700.33   52.39
  -5  -8   3 1747.13   53.09
 -13   8  -3  477.05   20.40
 -13   8  -3  486.05   18.20
   8   5  -3  510.65   28.30
   5 -13  -3  497.85   21.30
  -5  13   3  563.24   27.50
  -8  -5   3  572.54   31.00
  13  -8   3  547.05   21.90
  11   2  -3  166.88   18.30
   2 -13  -3  189.88   12.70
  11   2  -3  161.98   20.70
 -13  11  -3  173.78   17.10
  -2  13   3  228.88   19.60
  13 -11   3  230.18   17.20
 -11  -2   3  230.28   24.40
 -13  14  -3  229.38   21.10
  14  -1  -3  250.87   20.90
  14  -1  -3  208.18   23.70
 -14   1   3  295.67   28.40
  13 -14   3  262.37   20.30
   1  13   3  269.47   21.50
 -13  17  -3   73.49   15.40
  17  -4  -3   63.19   16.30
  17  -4  -3   94.39   16.10
   4  13   3   91.89   14.50
  13 -17   3   83.69   15.40
 -17   4   3   78.69   18.20
 -13  20  -3  312.77   30.80
  20  -7  -3  248.68   26.40
  20  -7  -3  212.08   27.70
   7  13   3  277.37   26.80
   7  13   3  261.47   22.10
 -20   7   3  319.27   34.60
  13 -20   3  296.47   26.30
 -20   7   3  341.77   30.80
  23 -10  -3  171.38   27.40
  23 -10  -3  156.48   21.80
 -13  23  -3  195.78   28.50
 -23  10   3  184.88   26.50
  10  13   3  173.28   17.80
  10  13   3  167.88   23.40
 -23  10   3  157.38   28.60
  26 -13  -3   55.89   26.90
  26 -13  -3   28.90   19.70
 -13  26  -3   22.30   24.50
 -26  13   3   76.89   29.20
 -26  13   3   57.79   27.20
  13  13   3   48.40   21.90
  13  13   3   41.40   18.90
 -11  25  -3  480.85   45.40
  25 -14  -3  521.55   36.40
 -25  14   3  565.64   51.39
  14  11   3  532.75   36.30
  14  11   3  545.85   30.70
  -8  22  -3  652.03   42.40
  22 -14  -3  627.54   35.50
 -22  14   3  542.95   44.20
  14   8   3  561.64   31.20
 -22  14   3  620.94   40.00
   8 -22   3  579.14   34.90
  19 -14  -3  967.60   41.30
  -5  19  -3  901.51   42.70
  -5  19  -3  915.81   44.50
   5 -19   3  760.92   43.70
 -19  14   3  831.12   41.10
 -19  14   3  849.12   45.10
  14   5   3  910.71   32.10
  16 -14  -3  271.37   23.70
  -2  16  -3  246.88   27.30
  -2  16  -3  246.68   27.40
 -16  14   3  273.67   32.00
  14   2   3  246.38   16.40
   2 -16   3  258.77   23.60
 -16  14   3  307.97   27.30
 -14   1  -3  510.75   20.50
  13 -14  -3  519.05   27.10
   1  13  -3  498.35   28.50
   1  13  -3  496.85   30.20
  14  -1   3  491.55   18.20
 -13  14   3  508.85   34.20
 -13  14   3  502.95   30.40
  -1 -13   3  475.55   26.00
  14  -1   3  460.05   13.90
   4  10  -3  533.35   30.40
  10 -14  -3  535.35   25.10
 -14   4  -3  536.35   20.00
   4  10  -3  553.14   27.80
 -10  14   3  560.74   32.30
  14  -4   3  582.54   19.10
 -10  14   3  561.04   29.90
   7   7  -3 1265.27   41.60
   7 -14  -3 1274.47   38.30
 -14   7  -3 1225.08   34.00
   7   7  -3 1285.27   44.90
  -7  -7   3 1308.77   46.60
  14  -7   3 1314.47   35.90
  -7  14   3 1356.26   43.10
 -14  10  -3  557.64   24.30
  10   4  -3  609.94   31.10
  10   4  -3  562.04   27.30
 -14  10  -3  584.44   22.70
   4 -14  -3  587.14   22.50
 -10  -4   3  714.23   35.50
  14 -10   3  701.03   26.70
  -4  14   3  666.53   29.90
   1 -14  -3   95.89   10.50
  13   1  -3   58.19   12.40
  13   1  -3   65.59   15.10
 -14  13  -3   63.39   12.80
  -1  14   3  115.89   15.20
  14 -13   3  119.99   14.90
 -13  -1   3  118.79   20.20
 -14  16  -3  760.02   33.70
  16  -2  -3  726.73   37.40
  16  -2  -3  742.13   33.30
  14 -16   3  808.52   34.70
 -16   2   3  828.62   41.30
   2  14   3  780.82   31.60
  19  -5  -3  206.08   22.60
 -14  19  -3  303.67   29.00
   5  14   3  306.77   23.90
  14 -19   3  301.47   25.50
 -19   5   3  337.37   34.80
  22  -8  -3 1011.30   48.90
 -14  22  -3 1029.20   48.70
  22  -8  -3 1114.69   45.60
   8  14   3 1148.49   38.40
 -22   8   3 1103.99   54.19
 -22   8   3 1175.18   48.80
   8  14   3 1069.29   45.10
 -14  25  -3  275.27   33.80
  25 -11  -3  341.57   33.50
  25 -11  -3  214.78   30.50
  11  14   3  312.07   33.80
 -25  11   3  338.47   43.40
 -25  11   3  357.86   42.10
  11  14   3  302.77   30.00
 -14  28  -3  231.48   36.90
  28 -14  -3  142.99   34.60
  28 -14  -3  173.48   26.70
 -28  14   3  210.58   39.90
  14  14   3  269.77   35.70
  14 -28   3  191.48   29.80
  14  14   3  266.97   31.10
 -28  14   3  259.97   35.50
 -12  27  -3  357.86   46.10
  27 -15  -3  261.77   29.50
 -27  15   3  249.08   34.30
  15  12   3  316.37   35.80
  12 -27   3  285.17   37.20
  15  12   3  246.18   30.30
 -27  15   3  213.08   36.20
  -9  24  -3  877.01   49.40
  24 -15  -3  829.62   43.20
  15   9   3  826.42   39.50
 -24  15   3  723.33   49.99
   9 -24   3  770.52   41.90
 -24  15   3  773.62   50.99
  15   9   3  793.52   31.00
  21 -15  -3  351.06   30.40
  -6  21  -3  293.17   34.80
 -21  15   3  273.17   32.30
 -21  15   3  253.67   31.80
  15   6   3  304.37   23.30
   6 -21   3  319.37   28.30
  -3  18  -3  280.67   37.20
  18 -15  -3  358.76   27.40
  -3  18  -3  387.56   33.70
 -18  15   3  454.45   31.80
  15   3   3  367.56   21.20
 -18  15   3  310.97   35.80
   3 -18   3  370.06   27.40
   0  15  -3    7.10   13.20
  15 -15  -3   19.30   11.80
   0  15  -3   10.20   14.50
 -15   0  -3    9.30   10.00
  15   0   3   -0.30    7.40
 -15  15   3   34.40   18.10
 -15  15   3    4.00   14.20
   0 -15   3   -1.60   10.40
 -15   3  -3  194.88   16.30
  12 -15  -3  178.18   18.50
   3  12  -3  196.58   23.40
   3  12  -3  182.48   21.90
  15  -3   3  155.78   12.10
 -12  15   3  202.98   24.90
 -12  15   3  185.48   22.60
  15  -3   3  196.38   16.10
   6   9  -3   99.29   15.50
   6   9  -3  102.69   17.40
 -15   6  -3   95.89   11.80
   9 -15  -3   85.69   12.30
  15  -6   3   69.89    9.40
  -9  15   3   80.79   14.70
  -6  -9   3   96.09   18.40
 -15   9  -3  446.66   18.40
   6 -15  -3  434.46   21.30
   9   6  -3  365.46   27.20
 -15   9  -3  406.96   21.30
  15  -9   3  422.46   20.10
  -6  15   3  436.06   27.60
  -9  -6   3  423.56   29.40
   3 -15  -3  312.77   17.20
  12   3  -3  309.07   22.20
  12   3  -3  331.77   26.10
 -15  12  -3  294.47   19.80
 -12  -3   3  330.27   29.70
  -3  15   3  338.07   24.10
  15 -12   3  336.47   21.30
 -15  15  -3    8.40   12.20
  15   0  -3   -7.20    9.40
  15   0  -3   27.80   13.10
   0 -15  -3   12.10    5.70
   0  15   3    9.20   13.10
  15 -15   3    8.40    9.60
 -15   0   3   19.60   15.30
  18  -3  -3  136.79   18.20
 -15  18  -3  110.79   18.50
  18  -3  -3  134.59   21.80
 -18   3   3  113.09   21.30
   3  15   3  146.79   18.30
  15 -18   3  118.79   20.30
 -15  21  -3  359.56   32.80
  21  -6  -3  250.07   24.50
  21  -6  -3  366.56   33.80
   6  15   3  387.46   27.20
  15 -21   3  379.96   29.60
 -21   6   3  343.17   38.40
   6  15   3  392.66   30.80
  24  -9  -3  292.87   37.90
 -15  24  -3  413.56   38.80
  24  -9  -3  373.86   32.60
   9  15   3  305.87   32.30
 -24   9   3  370.86   39.30
 -24   9   3  365.56   42.10
   9  15   3  399.46   29.70
  27 -12  -3  351.96   44.00
  27 -12  -3  372.06   38.50
 -15  27  -3  347.27   46.00
 -27  12   3  484.65   45.90
  12  15   3  326.87   39.60
 -27  12   3  336.67   41.20
  12  15   3  315.17   35.00
 -15  30  -3  262.37   40.60
  30 -15  -3  267.67   35.80
 -30  15   3  327.67   50.39
  15  15   3  333.47   33.00
  15 -30   3  264.67   36.70
 -30  15   3  329.47   40.20
  15  15   3  285.07   35.80
 -13  29  -3   28.70   32.20
  29 -16  -3   23.90   23.90
 -29  16   3   48.10   37.70
  13 -29   3    6.80   25.00
  16  13   3   53.19   23.40
 -29  16   3    7.30   28.80
  16  13   3   65.49   25.20
  26 -16  -3  387.96   39.20
 -10  26  -3  286.97   37.40
  16  10   3  309.37   28.00
  16  10   3  273.27   33.40
 -26  16   3  320.27   40.50
 -26  16   3  305.87   35.80
  23 -16  -3  112.69   20.80
  -7  23  -3   89.19   21.80
 -23  16   3   87.09   24.40
  16   7   3  131.59   18.70
 -23  16   3  155.18   31.00
   7 -23   3  122.59   21.30
  -4  20  -3  432.56   36.60
  20 -16  -3  381.96   30.60
  -4  20  -3  377.06   34.30
  16   4   3  342.47   23.20
   4 -20   3  290.17   28.40
 -20  16   3  306.17   33.00
 -20  16   3  378.46   38.90
  -1  17  -3  702.63   58.59
  -1  17  -3  743.93   37.10
  17 -16  -3  661.23   40.70
  16   1   3  717.73   27.10
   1 -17   3  745.23   35.30
 -17  16   3  769.72   39.70
  16   1   3  721.83   19.20
 -17  16   3  748.63   43.90
  14 -16  -3  281.87   23.10
 -16   2  -3  319.27   19.70
   2  14  -3  255.87   25.80
   2  14  -3  258.47   25.50
 -14  16   3  314.07   29.00
  16  -2   3  317.47   13.30
  16  -2   3  304.67   16.40
 -14  16   3  293.07   33.00
   5  11  -3   53.09   15.40
 -16   5  -3   52.49   11.20
  11 -16  -3   59.89   11.90
   5  11  -3   55.19   14.40
 -11  16   3   64.79   16.50
 -11  16   3   73.49   18.60
  16  -5   3   62.99    9.20
 -16   8  -3    4.00    9.80
   8 -16  -3    8.50    9.10
   8   8  -3   -3.60   11.20
   8   8  -3   10.00   13.20
  16  -8   3   -3.00    6.00
  -8  -8   3   -8.90   13.20
  -8  16   3   -6.90   11.90
  11   5  -3  180.58   23.80
 -16  11  -3  153.28   19.40
   5 -16  -3  189.48   16.00
  11   5  -3  171.58   20.20
 -16  11  -3  173.18   18.00
  -5  16   3  213.18   23.20
  16 -11   3  212.58   17.90
 -11  -5   3  194.78   24.10
 -16  14  -3  792.72   32.00
   2 -16  -3  750.22   25.30
  14   2  -3  723.43   32.30
  14   2  -3  751.12   38.00
  -2  16   3  772.52   34.80
  16 -14   3  792.02   32.80
 -14  -2   3  824.62   40.50
  17  -1  -3  761.42   34.70
  17  -1  -3  728.23   39.40
 -16  17  -3  713.13   35.50
  16 -17   3  783.52   35.40
   1  16   3  747.13   34.80
 -17   1   3  825.42   43.30
  20  -4  -3   47.90   19.10
  20  -4  -3   81.19   19.60
 -16  20  -3   77.89   20.50
  16 -20   3   85.89   17.50
   4  16   3   73.19   16.90
  23  -7  -3   16.80   17.60
  23  -7  -3   56.49   16.90
 -16  23  -3   44.30   21.60
 -23   7   3   48.90   25.40
   7  16   3   52.19   16.90
   7  16   3   63.29   19.70
  16 -23   3   16.70   13.50
  26 -10  -3  140.59   29.30
  26 -10  -3  103.89   21.70
 -16  26  -3   85.59   27.20
  10  16   3   62.89   21.10
  10  16   3   77.79   23.00
 -26  10   3   63.59   29.10
 -16  29  -3  -15.70   29.60
  29 -13  -3  -24.10   24.20
  29 -13  -3  -23.70   29.30
 -29  13   3   16.90   35.40
  13  16   3   -3.20   25.10
  16 -29   3  -25.30   22.40
  13  16   3  -22.00   24.20
 -16  32  -3   24.00   26.30
  16  16   3   -6.10   30.70
  31 -17  -3   91.09   30.40
 -14  31  -3   75.79   40.10
 -31  17   3    4.60   46.70
  14 -31   3   31.00   27.20
  17  14   3    6.20   27.60
  17  14   3   74.89   28.80
 -31  17   3   65.69   35.00
  28 -17  -3  386.16   43.80
 -11  28  -3  302.07   38.10
 -28  17   3  450.25   53.89
  17  11   3  463.05   41.90
  11 -28   3  361.46   42.10
  17  11   3  428.26   36.10
 -28  17   3  369.86   44.00
  -8  25  -3  602.44   47.70
  25 -17  -3  572.94   40.80
 -25  17   3  654.53   50.99
 -25  17   3  583.24   51.59
  17   8   3  662.03   36.90
  -5  22  -3  246.28   29.40
  22 -17  -3  262.07   28.80
  -5  22  -3  243.18   30.00
   5 -22   3  213.58   28.10
  17   5   3  240.58   24.10
 -22  17   3  309.57   39.40
 -22  17   3  269.57   35.60
  -2  19  -3  626.04   38.10
  19 -17  -3  603.74   34.90
  -2  19  -3  632.24   40.30
 -19  17   3  578.14   44.20
   2 -19   3  486.15   33.20
  17   2   3  492.75   16.20
 -19  17   3  512.75   40.80
  17   2   3  509.65   25.20
   1  16  -3  615.74   34.60
   1  16  -3  516.85   42.10
 -17   1  -3  588.34   26.80
  16 -17  -3  590.04   46.90
 -16  17   3  622.84   36.90
 -16  17   3  627.14   39.20
  17  -1   3  572.94   19.00
  17  -1   3  586.94   23.70
  13 -17  -3  143.09   18.60
 -17   4  -3  174.28   18.50
   4  13  -3  137.79   20.40
   4  13  -3  173.68   20.80
 -13  17   3  207.88   24.50
  17  -4   3  202.28   13.40
 -13  17   3  252.47   31.70
   7  10  -3  256.77   26.50
 -17   7  -3  218.38   19.80
  10 -17  -3  248.18   21.00
   7  10  -3  230.08   26.20
 -10  17   3  249.38   24.90
  -7 -10   3  234.28   27.90
  17  -7   3  224.28   15.90
 -17  10  -3  244.98   16.60
   7 -17  -3  230.38   18.60
  10   7  -3  244.08   26.30
 -17  10  -3  201.28   21.10
  -7  17   3  222.68   25.90
  17 -10   3  207.28   16.70
 -10  -7   3  233.58   28.30
 -17  13  -3  306.07   25.40
   4 -17  -3  331.07   19.30
  13   4  -3  266.77   26.80
  13   4  -3  308.67   23.70
 -17  13  -3  301.57   22.70
  -4  17   3  294.67   26.20
 -13  -4   3  293.27   30.20
  17 -13   3  335.57   22.80
  16   1  -3  590.84   30.50
 -17  16  -3  560.74   32.30
  16   1  -3  558.24   35.30
   1 -17  -3  564.74   21.10
  17 -16   3  658.53   32.40
  -1  17   3  678.33   35.00
 -16  -1   3  695.33   40.50
  19  -2  -3  389.66   29.70
  19  -2  -3  427.96   35.50
 -17  19  -3  362.16   32.40
  17 -19   3  410.96   29.00
 -19   2   3  374.26   37.50
   2  17   3  371.66   30.20
  22  -5  -3  327.07   28.10
  22  -5  -3  548.85   41.00
 -17  22  -3  461.85   38.60
   5  17   3  449.95   35.10
 -22   5   3  455.85   44.10
   5  17   3  440.26   31.50
  17 -22   3  386.66   31.00
  25  -8  -3  256.47   31.80
  25  -8  -3  341.27   32.70
 -17  25  -3  396.86   40.80
   8  17   3  279.27   34.20
 -25   8   3  351.46   40.10
   8  17   3  285.77   35.20
  28 -11  -3  385.36   41.60
  28 -11  -3  335.57   43.10
 -17  28  -3  385.76   50.69
 -28  11   3  271.57   42.80
  11  17   3  348.67   42.80
  11  17   3  358.66   39.30
  31 -14  -3  279.77   37.20
 -17  31  -3  267.47   44.10
  14  17   3  424.46   49.20
 -31  14   3  340.87   60.19
  14  17   3  447.26   53.99
  17 -31   3  381.96   38.50
  30 -18  -3  385.46   49.20
 -12  30  -3  391.86   49.60
 -30  18   3  384.16   44.20
  12 -30   3  414.16   48.50
  18  12   3  357.66   41.00
  18  12   3  389.86   46.80
 -30  18   3  416.86   53.59
  27 -18  -3  350.06   40.40
  -9  27  -3  326.67   39.80
 -27  18   3  408.66   52.99
  18   9   3  414.96   36.00
 -27  18   3  408.46   54.49
   9 -27   3  381.26   41.50
  24 -18  -3  200.38   27.40
  -6  24  -3  227.18   32.00
  18   6   3  248.08   27.00
 -24  18   3  228.28   34.90
 -24  18   3  246.88   32.30
   6 -24   3  241.68   31.50
  -3  21  -3   95.79   22.20
  -3  21  -3   48.60   20.00
 -21  18   3   52.79   29.70
   3 -21   3   59.49   17.10
 -21  18   3  142.69   23.90
  18   3   3   89.29   14.50
  18   3   3   75.39    8.70
   0  18  -3   11.00   17.10
  18 -18  -3    4.90   13.20
 -18   0  -3   28.60   13.40
 -18  18   3   41.60   23.20
  18   0   3   30.20   11.20
   0 -18   3   16.20   13.20
 -18   3  -3  270.97   22.10
   3  15  -3  233.38   28.60
   3  15  -3  268.07   30.20
 -15  18   3  201.98   27.00
 -15  18   3  232.28   26.20
  18  -3   3  200.98   16.70
  18  -3   3  232.58   14.20
 -18   6  -3  759.42   29.50
  12 -18  -3  777.52   34.40
   6  12  -3  699.63   38.40
   6  12  -3  762.82   37.40
 -12  18   3  783.22   39.30
  18  -6   3  770.92   27.00
 -12  18   3  797.22   41.90
 -18   9  -3  535.45   27.10
   9   9  -3  499.15   32.10
   9   9  -3  526.15   33.60
   9 -18  -3  531.25   27.20
  18  -9   3  500.85   23.50
  -9  18   3  533.65   33.40
  -9  -9   3  617.04   36.50
   6 -18  -3  704.83   28.70
 -18  12  -3  701.73   28.40
  12   6  -3  719.83   38.30
 -18  12  -3  701.43   32.20
  -6  18   3  784.02   36.50
  18 -12   3  743.03   31.00
 -12  -6   3  794.02   40.70
  15   3  -3  264.57   34.70
 -18  15  -3  249.97   27.60
 -18  15  -3  263.97   25.80
   3 -18  -3  248.38   18.30
  15   3  -3  295.27   24.50
 -15  -3   3  272.17   32.20
  -3  18   3  291.87   29.40
  18 -15   3  241.08   22.80
  18   0  -3    5.20   15.30
   0 -18  -3    3.50    6.40
  18   0  -3   13.70   12.60
 -18  18  -3   -7.50   16.30
 -18   0   3   -9.90   18.90
   0  18   3   13.30   17.30
  18 -18   3  -10.40   12.40
  21  -3  -3   67.99   18.40
  21  -3  -3   79.29   22.50
 -18  21  -3   59.39   21.30
   3  18   3   30.80   17.10
 -21   3   3   46.30   24.70
  18 -21   3   61.19   17.20
 -18  24  -3  273.87   31.10
  24  -6  -3  260.37   34.90
  24  -6  -3  190.68   22.00
   6  18   3  244.08   25.20
 -24   6   3  279.97   37.00
  18 -24   3  255.67   30.80
   6  18   3  236.78   30.00
  27  -9  -3  272.87   31.60
  27  -9  -3  306.97   39.60
 -18  27  -3  295.27   38.20
   9  18   3  318.67   40.10
 -27   9   3  277.77   40.60
   9  18   3  299.97   39.70
  30 -12  -3  231.18   32.50
  30 -12  -3  230.88   41.70
 -18  30  -3  243.08   40.00
  12  18   3  185.88   35.10
 -30  12   3  124.79   47.00
  12  18   3  245.78   33.90
  18 -30   3  206.98   34.40
  29 -19  -3   11.90   26.30
 -10  29  -3   29.40   33.90
 -29  19   3   57.09   34.90
 -29  19   3    5.30   37.10
  10 -29   3    3.40   22.90
  19  10   3   36.20   23.20
  -7  26  -3  168.58   32.30
  -7  26  -3  187.78   36.20
 -26  19   3  161.78   35.00
 -26  19   3  178.28   34.10
  19   7   3  185.88   24.70
  -4  23  -3  257.67   31.90
  19   4   3  175.28   15.10
 -23  19   3  214.28   30.10
  19   4   3  229.48   25.40
 -23  19   3  222.78   33.90
   4 -23   3  305.37   32.10
  -1  20  -3  108.09   22.10
 -19  -1  -3  104.49   18.30
   1 -20   3  184.48   23.10
  19   1   3  161.58   19.90
 -20  19   3  191.48   28.40
 -20  19   3  189.48   30.40
  19   1   3  153.18   13.00
  17 -19  -3  415.66   28.50
   2  17  -3  384.86   33.20
 -19   2  -3  463.45   26.60
 -17  19   3  413.86   35.10
  19  -2   3  413.96   17.70
 -17  19   3  363.56   37.70
  19  -2   3  344.67   20.70
 -19   5  -3  805.62   32.30
   5  14  -3  800.42   39.60
   5  14  -3  817.62   43.20
 -14  19   3  782.32   43.00
 -14  19   3  761.12   46.80
  19  -5   3  776.02   26.30
  11 -19  -3  276.37   23.50
   8  11  -3  290.87   29.00
 -19   8  -3  240.98   23.40
 -11  19   3  266.27   29.30
  19  -8   3  218.28   17.50
   8 -19  -3  421.76   24.30
  11   8  -3  266.67   38.50
 -19  11  -3  383.66   26.80
  11   8  -3  395.46   29.70
 -19  11  -3  390.46   19.70
  19 -11   3  467.95   24.30
  -8  19   3  449.46   33.50
 -11  -8   3  474.15   35.60
 -19  14  -3  328.67   28.70
 -19  14  -3  324.47   25.40
  14   5  -3  281.07   35.00
   5 -19  -3  323.87   21.30
  14   5  -3  330.77   25.60
  19 -14   3  392.06   26.70
  -5  19   3  392.66   31.20
 -14  -5   3  365.86   34.30
  17   2  -3  384.06   33.80
   2 -19  -3  349.07   19.90
  17   2  -3  421.16   28.00
 -19  17  -3  385.16   30.80
  19 -17   3  424.36   34.40
  -2  19   3  429.56   34.70
 -17  -2   3  386.06   39.90
  20  -1  -3  138.39   21.40
 -19  20  -3  159.08   25.10
  20  -1  -3  135.09   23.20
 -20   1   3  119.99   25.80
  19 -20   3  143.29   20.10
   1  19   3  141.39   23.20
 -19  23  -3  336.47   40.50
  23  -4  -3  290.17   30.90
  23  -4  -3  212.68   30.60
  19 -23   3  276.07   29.30
   4  19   3  266.07   33.60
   4  19   3  227.38   25.20
 -23   4   3  233.38   32.70
 -19  26  -3  101.79   29.40
  26  -7  -3  107.39   27.60
  26  -7  -3  137.79   23.50
 -26   7   3  111.49   35.10
  19 -26   3  152.18   29.10
   7  19   3  161.78   27.90
   7  19   3  185.18   30.10
  29 -10  -3  214.78   33.60
  29 -10  -3  254.87   39.60
 -19  29  -3  224.48   38.50
 -29  10   3  223.08   48.40
  10  19   3  258.57   36.10
  10  19   3  251.37   32.50
  19 -29   3  257.37   33.60
 -11  31  -3  193.48   44.10
  20  11   3  171.88   31.50
  20  11   3  232.68   30.20
 -31  20   3  216.58   42.80
 -31  20   3  162.58   48.80
  28 -20  -3  594.24   49.30
  -8  28  -3  400.86   52.29
  -8  28  -3  486.45   64.79
 -28  20   3  612.44   61.99
  20   8   3  503.55   43.20
 -28  20   3  535.65   61.69
   8 -28   3  538.25   45.20
  25 -20  -3  445.96   39.40
  -5  25  -3  540.25   49.30
 -25  20   3  576.84   53.99
 -25  20   3  528.85   49.10
  20   5   3  510.05   22.80
  20   5   3  560.04   35.50
  -2  22  -3  374.06   39.90
  20   2   3  397.36   28.20
 -22  20   3  464.65   40.80
  20   2   3  429.16   19.50
 -22  20   3  374.36   44.30
   2 -22   3  449.16   34.50
   1  19  -3  146.59   23.80
  19 -20  -3  156.68   21.50
 -20   1  -3  137.49   19.40
  20  -1   3  172.78   18.30
  20  -1   3  101.49   12.50
 -19  20   3  134.59   24.20
  16 -20  -3  148.19   18.80
   4  16  -3  139.29   22.90
 -20   4  -3  177.18   18.50
   4  16  -3  182.88   41.80
  20  -4   3  142.29   16.80
  20  -4   3  144.19   14.80
 -16  20   3  156.58   28.90
 -16  20   3  116.59   23.30
   7  13  -3  169.88   24.70
 -20   7  -3  158.58   18.60
   7  13  -3  167.68   23.50
  20  -7   3  157.08   16.90
 -20  10  -3   47.60   15.70
  10  10  -3   42.00   17.80
  10 -20  -3   37.50   12.70
  10  10  -3   49.70   18.90
 -10 -10   3   22.10   18.10
  20 -10   3   27.80   10.50
 -10  20   3   47.60   18.50
  13   7  -3   67.79   20.10
 -20  13  -3   75.39   13.90
   7 -20  -3   57.69   12.50
 -20  13  -3   57.39   17.10
  -7  20   3   73.79   19.50
 -13  -7   3   74.09   21.70
  20 -13   3   77.29   14.00
   4 -20  -3  152.58   16.20
 -20  16  -3  147.69   20.00
  16   4  -3  122.39   23.20
  16   4  -3  150.08   20.00
 -20  16  -3  172.08   23.40
  20 -16   3  173.68   23.30
  -4  20   3  223.48   26.50
  19   1  -3  169.18   25.20
 -20  19  -3  156.18   22.90
   1 -20  -3  183.18   15.50
 -19  -1   3  110.39   25.40
  -1  20   3  179.58   25.40
  20 -19   3  161.78   21.00
  22  -2  -3  376.26   39.10
  22  -2  -3  378.16   33.70
  20 -22   3  360.16   31.70
 -22   2   3  238.78   32.70
   2  20   3  284.47   35.30
 -20  25  -3  388.76   47.80
  25  -5  -3  387.36   42.10
  25  -5  -3  228.68   27.80
  20 -25   3  300.27   34.20
   5  20   3  378.66   37.90
 -25   5   3  294.97   41.20
   5  20   3  300.27   40.00
 -20  28  -3  253.07   42.00
  28  -8  -3  280.27   39.70
  28  -8  -3  327.57   41.00
 -28   8   3  318.77   49.20
  20 -28   3  226.18   31.50
   8  20   3  247.08   34.20
   8  20   3  298.87   34.00
 -20  31  -3   81.79   41.10
  31 -11  -3   56.69   40.60
 -31  11   3  113.79   53.49
  11  20   3  136.09   36.80
  11  20   3  173.28   36.50
  30 -21  -3  226.48   33.30
  -9  30  -3  168.08   48.70
  -9  30  -3  135.39   29.00
  21   9   3  242.28   30.10
 -30  21   3  232.08   43.50
  21   9   3  275.77   35.20
   9 -30   3  249.97   35.50
 -30  21   3  236.28   48.40
  -6  27  -3  152.38   33.90
  -6  27  -3  128.99   34.60
 -27  21   3  128.69   36.60
  21   6   3  178.58   25.60
 -27  21   3  133.89   38.70
  21   6   3  140.49   15.60
  -3  24  -3   18.40   25.20
 -24  21   3   18.40   29.90
   3 -24   3   92.29   21.50
  21   3   3   39.70   10.80
 -24  21   3  109.49   25.20
  21   3   3   38.00   16.90
   0  21  -3    1.90   20.80
 -21   0  -3    3.50   16.20
 -21  21   3  -10.20   22.40
 -21  21   3   -7.00   24.30
  21   0   3   47.50   14.10
  21   0   3   12.80    9.50
 -21   3  -3   63.39   16.80
   3  18  -3  -25.70   17.70
  18 -21  -3   37.10   13.50
   3  18  -3   32.00   19.10
 -18  21   3   83.59   23.50
  21  -3   3   78.99   11.50
  21  -3   3   64.49   13.00
 -18  21   3   45.20   26.20
   6  15  -3  509.15   39.90
  15 -21  -3  623.84   34.40
 -21   6  -3  554.84   31.10
 -15  21   3  566.44   41.40
  21  -6   3  549.45   24.10
 -15  21   3  570.24   48.20
   9  12  -3  358.66   34.70
   9  12  -3  440.56   34.00
  12 -21  -3  390.66   32.40
 -21   9  -3  366.56   29.10
  21  -9   3  346.87   23.00
 -12  21   3  323.47   33.50
 -21  12  -3  493.55   32.30
  12   9  -3  552.34   38.80
  12   9  -3  525.95   36.60
 -21  12  -3  505.25   21.90
   9 -21  -3  566.84   29.90
  -9  21   3  559.04   45.70
  21 -12   3  527.75   27.90
 -12  -9   3  537.55   40.50
 -21  15  -3  302.97   27.80
  15   6  -3  307.37   27.50
   6 -21  -3  313.17   23.70
 -21  15  -3  327.27   31.90
  15   6  -3  289.17   31.80
  21 -15   3  384.76   28.60
  -6  21   3  416.66   35.80
 -15  -6   3  372.16   37.70
  18   3  -3   51.29   19.30
 -21  18  -3   67.79   19.90
   3 -21  -3   48.30   11.70
 -21  18  -3   82.29   21.60
  -3  21   3   55.49   22.10
  21 -18   3   33.90   15.00
 -18  -3   3   20.00   24.30
 -21  21  -3    9.40   21.30
  21   0  -3  -12.10   18.60
  21   0  -3   -7.00   14.90
   0  21   3   -5.70   20.90
 -21   0   3   -7.10   22.40
  21 -21   3   24.60   15.80
  24  -3  -3   95.79   20.80
  24  -3  -3  127.59   29.90
 -21  24  -3   78.39   30.90
   3  21   3  127.69   24.80
   3  21   3   96.99   25.90
  21 -24   3  104.29   22.00
 -24   3   3   79.19   32.80
  27  -6  -3   31.80   27.70
 -21  27  -3  142.69   38.10
  27  -6  -3  119.19   24.30
   6  21   3  130.89   29.90
 -27   6   3   70.49   40.00
  21 -27   3   84.39   24.40
   6  21   3  110.59   43.20
  30  -9  -3  287.87   36.40
 -21  30  -3  479.25   55.09
  30  -9  -3  521.45   61.79
 -30   9   3  373.36   55.79
   9  21   3  372.06   44.20
   9  21   3  480.75   56.59
  -7  29  -3  247.78   40.50
  -7  29  -3  266.97   41.20
  29 -22  -3  235.98   35.40
  22   7   3  248.68   33.40
 -29  22   3  277.87   46.40
  22   7   3  292.27   24.70
   7 -29   3  398.76   47.80
 -29  22   3  269.27   44.70
  26 -22  -3  215.58   28.70
  -4  26  -3  222.48   36.50
  22   4   3  230.28   20.60
  22   4   3  201.78   26.10
 -26  22   3  155.38   35.60
 -26  22   3  228.58   40.30
  -1  23  -3  321.37   36.80
  22   1   3  378.86   31.10
 -23  22   3  478.85   48.10
 -23  22   3  244.08   37.10
  22   1   3  353.46   22.10
   2  20  -3  304.37   40.20
 -22   2  -3  241.38   29.90
  22  -2   3  313.47   24.20
  22  -2   3  388.56   20.30
 -20  22   3  336.07   43.50
 -20  22   3  326.17   35.50
  17 -22  -3  310.77   29.80
   5  17  -3  297.87   34.90
 -22   5  -3  266.97   28.70
  22  -5   3  271.67   19.00
 -17  22   3  291.17   38.80
 -17  22   3  334.67   43.70
  14 -22  -3  636.74   35.00
 -22   8  -3  572.94   33.60
   8  14  -3  659.33   43.10
   8  14  -3  519.05   52.49
  22  -8   3  483.45   26.00
 -14  22   3  605.14   41.10
  11  11  -3  853.61   44.90
  11 -22  -3  679.93   39.70
  11  11  -3  813.42   44.80
 -22  11  -3  798.82   38.00
 -11  22   3  825.32   46.30
 -11 -11   3  846.02   48.00
  22 -11   3  799.42   33.80
  14   8  -3  797.62   45.60
   8 -22  -3  783.62   34.00
 -22  14  -3  689.43   30.70
 -22  14  -3  668.43   39.60
 -14  -8   3  718.23   47.20
  22 -14   3  855.71   36.60
  -8  22   3  833.92   44.30
 -22  17  -3  318.57   36.50
  17   5  -3  275.47   33.90
  17   5  -3  271.77   32.80
 -22  17  -3  303.47   29.90
   5 -22  -3  302.27   23.70
 -17  -5   3  358.56   39.50
  -5  22   3  262.27   36.50
  22 -17   3  324.57   29.70
  20   2  -3  274.77   37.20
 -22  20  -3  273.27   32.80
  20   2  -3  294.17   30.30
   2 -22  -3  282.97   21.20
 -22  20  -3  286.97   29.50
  22 -20   3  232.38   29.20
 -20  -2   3  254.87   34.90
  -2  22   3  250.67   49.70
  23  -1  -3  406.06   38.10
 -22  23  -3  422.86   46.20
  23  -1  -3  490.25   45.10
   1  22   3  403.66   43.40
  22 -23   3  435.26   36.00
 -23   1   3  340.07   39.60
 -22  26  -3  151.98   36.80
  26  -4  -3   91.69   22.00
  26  -4  -3  182.38   33.40
  22 -26   3  215.88   30.20
   4  22   3  179.88   31.30
   4  22   3  188.88   30.80
 -26   4   3  183.68   40.00
  29  -7  -3  186.88   39.80
  29  -7  -3  249.78   35.20
 -22  29  -3  273.37   45.90
   7  22   3  230.78   34.60
 -29   7   3  263.07   53.39
   7  22   3  222.08   37.20
  22 -29   3  194.98   29.70
  -5  28  -3  361.06   44.60
  28 -23  -3  324.37   36.30
  -5  28  -3  235.48   42.70
   5 -28   3  454.05   44.60
  23   5   3  359.56   40.60
  23   5   3  380.76   25.70
 -28  23   3  430.96   53.29
 -28  23   3  279.67   45.20
  -2  25  -3  186.88   35.70
 -25  23   3  209.78   39.70
 -25  23   3  258.57   35.90
  23   2   3  248.58   27.50
  23   2   3  243.58   22.40
   1  22  -3  359.46   39.00
 -23   1  -3  380.96   35.40
 -22  23   3  365.06   47.80
  23  -1   3  321.27   20.20
  23  -1   3  296.17   25.80
 -22  23   3  392.46   50.79
 -23   4  -3  166.08   22.40
   4  19  -3  153.18   27.80
  23  -4   3  152.68   18.40
  23  -4   3  193.68   18.60
 -19  23   3  155.28   33.00
 -19  23   3  164.38   30.50
 -23   7  -3  113.59   20.50
  16 -23  -3   98.49   18.20
   7  16  -3  103.99   23.20
   7  16  -3   87.79   21.90
  23  -7   3  157.38   20.30
 -16  23   3  107.19   30.20
 -16  23   3  119.89   27.50
  13 -23  -3   66.89   16.60
  10  13  -3   59.09   23.40
  10  13  -3   61.99   21.10
 -23  10  -3   48.60   18.60
  23 -10   3   48.20   14.10
 -13  23   3   45.70   23.60
 -23  13  -3   87.09   12.00
  10 -23  -3   59.09   17.00
  13  10  -3  128.09   24.60
 -23  13  -3   77.69   20.50
  23 -13   3   98.69   16.80
 -10  23   3   96.29   23.40
 -13 -10   3  124.19   28.50
  16   7  -3   51.89   17.00
   7 -23  -3  101.29   17.50
  16   7  -3   50.09   21.00
 -23  16  -3  147.79   18.90
 -23  16  -3   92.09   22.70
 -16  -7   3   54.89   24.70
  23 -16   3   77.09   17.90
  19   4  -3  188.28   27.80
 -23  19  -3  171.28   25.10
 -23  19  -3  183.18   29.40
   4 -23  -3  192.68   22.80
  19   4  -3  196.28   24.40
  23 -19   3  170.28   22.70
 -19  -4   3  175.58   31.10
  -4  23   3  115.79   27.10
 -23  22  -3  255.57   35.80
  22   1  -3  346.27   35.30
 -23  22  -3  332.77   43.20
  22   1  -3  375.06   42.50
 -22  -1   3  271.47   37.60
  23 -22   3  283.97   32.10
  -1  23   3  332.77   44.00
 -23  25  -3  317.77   38.70
  25  -2  -3  335.17   39.70
  25  -2  -3  295.27   37.70
 -25   2   3  282.17   41.60
  23 -25   3  239.58   31.40
   2  23   3  250.47   32.30
  28  -5  -3  444.36   52.89
 -23  28  -3  462.55   49.99
  28  -5  -3  306.57   38.60
 -28   5   3  392.46   55.49
   5  23   3  455.25   55.39
  23 -28   3  388.96   43.00
   5  23   3  394.36   41.00
  -6  30  -3   13.70   27.80
 -30  24   3   56.49   45.20
  24   6   3   66.59   14.80
 -30  24   3   53.59   45.00
  24   6   3   67.39   29.10
   6 -30   3   43.90   28.50
  27 -24  -3   21.60   25.00
  -3  27  -3   74.99   32.90
  -3  27  -3   60.49   37.10
 -27  24   3   17.40   36.70
  24   3   3   73.89   24.40
 -27  24   3   42.50   37.70
  24   3   3   90.69   16.70
   0  24  -3   12.40   31.00
 -24   0  -3   -6.70   19.50
  24   0   3  -16.20   15.70
 -24  24   3   -7.10   28.70
 -24  24   3   31.40   31.40
   3  21  -3   30.70   25.10
 -24   3  -3   36.50   20.00
  24  -3   3   50.59   15.60
 -21  24   3   73.69   33.10
 -21  24   3   10.10   23.10
  24  -3   3   45.30   12.10
   6  18  -3  258.67   32.50
 -24   6  -3  215.48   25.00
   6  18  -3  251.77   34.00
 -18  24   3  180.18   31.60
 -18  24   3  179.28   29.40
  24  -6   3  164.48   19.50
 -24   9  -3  692.03   39.20
  15 -24  -3  719.53   38.40
   9  15  -3  728.23   50.29
   9  15  -3  817.72   49.50
  24  -9   3  709.53   33.40
 -15  24   3  726.53   49.30
  12 -24  -3  373.96   29.20
 -24  12  -3  348.67   35.00
  12  12  -3  318.17   33.80
  12  12  -3  382.16   39.90
 -12  24   3  446.86   43.80
  24 -12   3  433.86   29.00
  15   9  -3  269.47   32.50
   9 -24  -3  213.08   29.50
  15   9  -3  376.06   39.20
 -24  15  -3  309.77   36.10
 -24  15  -3  263.47   24.90
  -9  24   3  242.28   31.40
  24 -15   3  217.48   30.70
 -15  -9   3  221.38   30.40
  18   6  -3  305.57   36.00
 -24  18  -3  344.27   35.40
  18   6  -3  306.27   33.10
 -24  18  -3  335.47   41.00
   6 -24  -3  279.47   26.40
 -18  -6   3  260.47   34.60
  24 -18   3  314.07   31.60
  -6  24   3  288.77   34.70
  21   3  -3  149.39   28.50
 -24  21  -3  180.08   28.50
   3 -24  -3  155.98   17.90
  21   3  -3  184.18   25.20
  24 -21   3  157.68   23.90
 -21  -3   3  183.78   35.00
  -3  24   3  157.28   32.30
  24   0  -3   25.00   21.50
 -24  24  -3    9.70   27.70
 -24  24  -3   17.80   33.10
  24   0  -3    5.80   27.70
 -24   0   3   22.90   30.50
  24 -24   3   25.20   18.50
   0  24   3  -10.30   25.10
  27  -3  -3  184.28   44.40
 -24  27  -3   37.90   35.30
   3  24   3   45.60   31.00
   3  24   3  -12.50   32.50
 -27   3   3  -13.30   41.90
  24 -27   3   -4.10   22.50
  30  -6  -3  164.18   34.30
 -24  30  -3  168.68   50.19
   6  24   3   71.39   35.30
   6  24   3   56.89   37.10
 -30   6   3   74.59   53.49
  29 -25  -3   98.59   40.20
  -4  29  -3  160.58   45.50
  25   4   3  153.18   30.70
  25   4   3  161.28   20.70
   4 -29   3  150.98   30.00
 -29  25   3  214.28   47.30
 -29  25   3  130.79   43.60
  -1  26  -3  211.38   41.50
  -1  26  -3  308.97   45.20
  26 -25  -3  290.57   33.80
 -26  25   3  256.97   45.10
  25   1   3  253.07   20.40
  25   1   3  252.47   28.20
 -26  25   3  440.76   58.39
 -25   2  -3  344.07   37.40
   2  23  -3  241.18   37.10
   2  23  -3  365.96   47.50
  23 -25  -3  283.97   38.80
  25  -2   3  375.06   25.30
  25  -2   3  362.16   32.10
 -23  25   3  353.76   38.90
 -23  25   3  444.46   59.29
 -25   5  -3  384.86   36.50
   5  20  -3  391.76   46.40
   5  20  -3  400.76   46.20
  25  -5   3  389.46   26.30
 -20  25   3  414.86   46.70
 -20  25   3  472.65   47.00
 -25   8  -3  517.35   38.30
   8  17  -3  560.54   47.10
   8  17  -3  570.34   50.89
 -17  25   3  603.14   50.19
  25  -8   3  544.45   30.40
 -17  25   3  546.25   58.49
  11  14  -3  368.26   45.30
 -25  11  -3  341.67   35.30
  14 -25  -3  395.16   31.10
  11  14  -3  348.67   41.80
  25 -11   3  378.46   29.30
 -14  25   3  411.76   44.90
 -25  14  -3  327.47   17.20
 -25  14  -3  351.66   37.80
  14  11  -3  390.46   41.40
  11 -25  -3  354.46   28.40
  14  11  -3  345.17   36.30
 -11  25   3  527.65   45.70
 -14 -11   3  386.86   43.70
  17   8  -3  247.18   32.00
 -25  17  -3  328.37   33.50
 -25  17  -3  326.07   30.50
  17   8  -3  279.27   37.80
 -17  -8   3  300.77   37.60
  25 -17   3  381.96   32.90
  -8  25   3  370.56   44.40
   5 -25  -3  623.64   33.50
 -25  20  -3  645.64   50.09
  20   5  -3  593.04   48.50
 -25  20  -3  603.44   44.60
  20   5  -3  609.64   39.80
  25 -20   3  662.03   41.40
  -5  25   3  596.94   54.39
 -20  -5   3  662.13   55.99
 -25  23  -3  361.96   37.90
  23   2  -3  393.26   39.80
 -25  23  -3  370.36   44.70
  23   2  -3  459.85   50.19
  25 -23   3  334.17   37.90
 -23  -2   3  359.66   47.40
  -2  25   3  380.36   40.60
  26  -1  -3  343.97   44.80
 -25  26  -3  329.47   48.10
 -25  26  -3  252.57   39.70
  26  -1  -3  217.68   39.10
   1  25   3  297.07   37.40
  25 -26   3  337.17   41.10
 -26   1   3  280.47   50.09
  29  -4  -3   98.09   35.70
 -25  29  -3  193.18   45.00
  29  -4  -3   85.99   28.00
   4  25   3  187.08   42.80
 -29   4   3  140.79   49.80
   4  25   3  170.98   40.90
  25 -29   3  128.29   30.80
  -2  28  -3  300.77   47.20
  -2  28  -3  156.08   39.60
  28 -26  -3  136.69   27.30
  26   2   3  227.88   29.10
 -28  26   3  331.07   50.49
 -28  26   3  223.08   50.39
  26   2   3  322.17   40.50
  25 -26  -3  343.87   39.80
   1  25  -3  251.27   39.00
 -26   1  -3  363.06   40.30
   1  25  -3  466.75   58.79
 -25  26   3  478.55   62.69
  26  -1   3  402.46   27.90
 -25  26   3  439.76   53.69
  26  -1   3  372.46   36.00
   4  22  -3  233.18   38.60
   4  22  -3  186.08   36.10
  22 -26  -3  217.68   30.90
 -26   4  -3  177.58   25.50
 -22  26   3  206.48   42.90
 -22  26   3  158.08   33.90
  26  -4   3  163.48   19.20
  26  -4   3  183.88   22.60
   7  19  -3   94.79   32.80
 -26   7  -3   98.29   23.50
   7  19  -3  124.89   28.70
 -19  26   3   68.59   29.50
  26  -7   3  122.69   19.50
 -19  26   3  137.29   33.80
  10  16  -3  105.09   31.00
  10  16  -3  120.39   31.80
 -26  10  -3   83.99   23.80
 -16  26   3  142.29   32.20
 -16  26   3  140.89   32.10
  26 -10   3  136.39   20.10
  13  13  -3  126.19   30.50
  13  13  -3   47.90   27.70
  13 -26  -3   63.49   17.50
 -26  13  -3  103.99   24.60
 -13  26   3   61.89   30.10
 -26  16  -3   46.90   14.50
  10 -26  -3   56.69   18.20
 -26  16  -3   33.10   23.90
  16  10  -3   82.99   25.60
  16  10  -3   67.79   29.50
 -10  26   3   27.60   28.50
 -16 -10   3   39.90   28.30
  26 -16   3   46.00   15.80
   7 -26  -3  246.18   27.90
  19   7  -3  264.87   35.30
 -26  19  -3  352.16   35.10
 -26  19  -3  308.77   34.80
  19   7  -3  220.18   32.40
  -7  26   3  288.17   38.90
  26 -19   3  277.67   34.50
 -19  -7   3  254.77   38.90
  22   4  -3  178.08   33.80
 -26  22  -3  191.88   30.30
 -26  22  -3  212.88   37.00
   4 -26  -3  208.88   26.20
  22   4  -3  276.87   36.20
  26 -22   3  212.58   27.80
  -4  26   3  192.98   35.70
 -22  -4   3  218.68   39.60
 -26  25  -3  264.07   38.00
  25   1  -3  410.86   45.60
  25   1  -3  228.38   40.50
 -26  25  -3  263.47   45.90
 -25  -1   3  264.87   50.59
  26 -25   3  282.87   35.00
  -1  26   3  282.47   40.10
 -26  28  -3  104.49   40.50
  28  -2  -3  185.78   34.70
 -26  28  -3  147.29   49.50
   2  26   3  153.48   39.50
   2  26   3  168.48   41.30
 -28   2   3  179.38   53.09
   0  27  -3  -58.39   30.00
  27 -27  -3   22.80   24.50
   0  27  -3   -1.50   40.50
  27   0   3  -31.40   21.80
  27   0   3   34.50   16.80
 -27  27   3  -38.90   39.80
 -27  27   3   14.70   39.10
 -27   3  -3  -12.10   23.00
  24 -27  -3   81.09   26.90
   3  24  -3   56.19   30.60
   3  24  -3   39.30   35.20
  27  -3   3    4.90   18.80
 -24  27   3   23.70   32.50
 -24  27   3   34.60   35.60
  27  -3   3   35.20   16.60
   6  21  -3  100.79   36.10
 -27   6  -3  166.58   26.80
  21 -27  -3  144.09   26.60
   6  21  -3  127.99   33.60
  27  -6   3  138.89   19.40
 -21  27   3   91.39   41.50
 -21  27   3  132.69   32.00
  18 -27  -3  401.96   44.20
 -27   9  -3  393.26   40.20
   9  18  -3  409.06   53.89
   9  18  -3  496.95   53.69
  27  -9   3  403.86   31.80
 -18  27   3  469.55   51.69
 -18  27   3  362.66   47.90
  12  15  -3  309.47   39.20
  12  15  -3  357.36   41.80
 -27  12  -3  338.77   40.20
 -15  27   3  319.27   37.30
  15  12  -3  426.16   46.60
 -27  15  -3  426.16   44.20
  12 -27  -3  412.96   33.40
  15  12  -3  388.46   41.00
 -12  27   3  436.06   51.79
  27 -15   3  426.26   33.60
   9 -27  -3  205.08   24.40
  18   9  -3  191.28   34.90
  18   9  -3  155.28   33.00
 -27  18  -3  222.48   32.80
  18   9  -3  166.68   25.90
 -27  18  -3  191.98   22.30
  -9  27   3  223.68   38.10
 -18  -9   3  207.38   36.30
  27 -18   3  309.17   34.30
  21   6  -3   51.09   21.80
   6 -27  -3   69.29   19.60
 -27  21  -3   90.09   31.10
  21   6  -3   36.60   28.50
 -27  21  -3  114.59   24.90
  -6  27   3   84.39   35.50
 -21  -6   3  -14.00   34.80
  27 -21   3   22.20   20.10
 -27  24  -3  -11.90   28.20
  24   3  -3   15.90   32.40
  24   3  -3  -16.40   22.40
 -27  24  -3    5.30   33.70
  -3  27   3   12.00   33.50
  27 -24   3    1.30   24.60
 -24  -3   3   21.60   43.10
 -27  27  -3   35.30   44.60
  27   0  -3  -12.80   34.20
 -27  27  -3  -22.40   37.40
  27   0  -3   39.70   29.50
 -27   0   3  -16.70   47.90
  27 -27   3   67.49   24.90
   0  27   3   20.60   36.70
  26 -28  -3  420.66   42.70
   2  26  -3  262.77   51.89
 -28   2  -3  321.17   34.30
   2  26  -3  266.67   41.00
 -26  28   3  240.18   48.60
 -26  28   3  239.08   50.59
  28  -2   3  280.37   31.70
  28  -2   3  297.37   31.10
  23 -28  -3  209.68   30.90
   5  23  -3  165.98   44.40
 -28   5  -3  217.38   28.80
   5  23  -3  141.89   34.90
 -23  28   3  239.68   38.50
  28  -5   3  234.88   30.00
 -23  28   3  193.48   45.40
   8  20  -3  588.84   61.79
   8  20  -3  638.74   59.49
  20 -28  -3  700.53   47.50
 -28   8  -3  518.95   44.10
  28  -8   3  676.23   39.00
 -20  28   3  702.93   65.19
 -20  28   3  605.44   58.79
  17 -28  -3  412.76   37.80
 -28  11  -3  432.66   42.90
  11  17  -3  397.06   46.30
  11  17  -3  441.16   58.09
 -17  28   3  495.25   59.89
 -17  28   3  519.05   59.89
 -28  14  -3  183.28   31.40
  14  14  -3  250.17   37.70
  14  14  -3  185.38   36.80
  28 -14   3  249.78   31.20
 -14  28   3  199.98   38.30
  17  11  -3  295.17   39.20
  11 -28  -3  302.17   34.60
  17  11  -3  255.97   33.20
  17  11  -3  300.57   40.80
 -28  17  -3  285.77   23.40
 -28  17  -3  266.57   35.00
  28 -17   3  259.17   33.00
 -17 -11   3  315.37   45.10
 -11  28   3  272.77   38.20
  20   8  -3  440.56   44.60
  20   8  -3  419.86   51.79
 -28  20  -3  377.96   37.00
   8 -28  -3  391.06   33.70
 -28  20  -3  406.16   51.59
 -20  -8   3  363.16   48.10
  -8  28   3  462.45   49.80
  28 -20   3  416.26   42.30
  23   5  -3  215.28   37.50
 -28  23  -3  392.56   44.80
  23   5  -3  323.07   41.80
 -28  23  -3  519.25   52.59
   5 -28  -3  356.56   32.00
  -5  28   3  313.17   45.50
  28 -23   3  360.26   44.80
 -23  -5   3  295.67   51.49
  26   2  -3  448.46   52.29
  26   2  -3  140.69   40.70
 -28  26  -3  256.77   38.50
 -28  26  -3  269.47   47.80
  -2  28   3  277.67   44.60
 -26  -2   3  310.47   56.19
  28 -26   3  285.57   37.10
   4  25  -3   85.99   41.50
 -29   4  -3   75.79   28.10
  25 -29  -3  161.68   30.20
   4  25  -3  139.79   47.50
 -25  29   3  148.59   43.70
  29  -4   3   88.79   24.80
  29  -4   3   81.89   20.40
 -25  29   3  134.79   43.90
  22 -29  -3  150.08   31.80
 -29   7  -3  209.68   31.70
   7  22  -3  167.48   38.50
   7  22  -3  210.28   47.60
 -22  29   3  178.78   51.09
  29  -7   3  279.07   36.00
 -22  29   3  203.98   38.60
 -29  10  -3   80.49   26.30
  10  19  -3   56.29   38.30
  19 -29  -3   70.89   24.70
  10  19  -3   71.89   36.60
 -19  29   3   45.00   33.80
  29 -10   3   94.69   27.90
 -19  29   3   63.09   48.60
 -29  13  -3   14.00   25.60
  13  16  -3  -15.30   34.60
  16 -29  -3   62.89   20.60
  13  16  -3   53.19   33.20
 -16  29   3  104.79   34.90
 -29  16  -3   22.90   27.70
  16  13  -3   76.29   34.40
  16  13  -3   40.70   29.40
 -13  29   3   10.20   34.80
  29 -16   3    8.70   18.70
  19  10  -3  176.18   37.60
  10 -29  -3  229.18   27.70
  19  10  -3  201.78   30.50
 -29  19  -3  171.38   35.30
 -29  19  -3  165.18   21.70
  19  10  -3  133.69   33.60
 -10  29   3  128.09   40.50
  29 -19   3  185.68   29.10
 -19 -10   3  200.58   45.20
 -29  22  -3  100.39   38.20
 -29  22  -3  153.48   27.80
  22   7  -3  178.08   38.90
   7 -29  -3  187.58   25.70
  22   7  -3  117.79   28.20
  29 -22   3  179.08   31.00
 -22  -7   3  194.78   48.50
  -7  29   3  210.98   45.50
   4 -29  -3  182.08   21.90
  25   4  -3  188.78   43.20
 -29  25  -3  238.38   37.40
  25   4  -3  157.68   34.10
 -29  25  -3  239.58   44.60
  -4  29   3  239.58   46.30
 -25  -4   3  260.47   56.89
  24 -30  -3   -3.90   33.30
 -30   6  -3   53.99   25.70
   6  24  -3   46.10   47.20
 -24  30   3   69.09   33.00
 -24  30   3   44.90   30.30
  30  -6   3  -11.70   19.60
   9  21  -3  288.57   48.80
  21 -30  -3  215.28   31.90
   9  21  -3  237.78   41.80
 -30   9  -3  252.87   33.40
 -21  30   3  244.98   48.10
  30  -9   3  271.37   31.00
 -21  30   3  211.88   43.80
 -30  12  -3  578.14   49.30
  12  18  -3  484.55   60.69
  12  18  -3  486.15   64.59
  18 -30  -3  571.84   46.70
 -18  30   3  421.26   54.39
  30 -12   3  398.56   40.20
 -18  30   3  390.86   52.79
  15 -30  -3  336.77   39.50
  15  15  -3  258.77   44.00
 -30  15  -3  350.56   37.20
  15  15  -3  330.07   43.90
 -15  30   3  284.77   45.80
  30 -15   3  288.27   31.30
  18  12  -3  191.18   33.60
  18  12  -3  122.49   34.30
  18  12  -3  185.88   39.90
 -30  18  -3  183.98   35.50
 -12  30   3  227.28   43.00
  30 -18   3  170.38   27.80
   9 -30  -3  315.27   36.90
  21   9  -3  289.87   44.20
 -30  21  -3  283.67   41.10
  21   9  -3  319.97   38.90
  21   9  -3  425.06   45.90
 -30  21  -3  345.37   34.50
  30 -21   3  428.46   49.60
  -9  30   3  257.17   49.40
 -21  -9   3  294.57   52.09
 -30  24  -3  146.19   42.70
 -30  24  -3  190.68   36.30
  24   6  -3  153.38   33.60
  24   6  -3  156.88   43.20
  30 -24   3  118.29   32.40
  -6  30   3  152.38   47.90
 -24  -6   3  148.69   54.49
  20 -31  -3  198.18   31.00
 -31  11  -3  265.97   36.00
  11  20  -3  238.38   45.80
 -20  31   3  169.28   57.59
  31 -11   3  207.48   29.10
 -20  31   3  140.49   38.40
  14  17  -3  119.69   39.60
  14  17  -3  117.89   40.60
 -31  14  -3   95.89   32.30
  17 -31  -3  128.59   28.70
  31 -14   3   90.59   24.90
 -17  31   3   80.69   39.30
  14 -31  -3  361.16   42.20
  17  14  -3  284.37   44.60
  17  14  -3  250.67   42.70
 -31  17  -3  222.98   37.10
 -14  31   3  233.18   47.70
  20  11  -3   87.69   38.10
 -31  20  -3   46.90   34.70
  20  11  -3   50.89   31.40
 -31  20  -3  100.69   13.90
  20  11  -3    6.10   38.80
  31 -20   3  170.48   33.50
 -11  31   3   92.29   49.99
  16  16  -3   62.79   38.30
  16 -32  -3   17.70   26.70
  32 -16   3   -7.80   25.00
  -1   0  -4   50.79    7.60
   1  -1  -4   71.79    9.10
   0   1  -4   69.79    9.10
  -1   0  -4   56.19    9.90
  -1   0  -4   66.09    8.20
   1  -1  -4   61.19    9.20
   0   1  -4   61.89    9.10
   0   1  -4   53.29    8.60
   1  -1  -4   62.69    8.90
  -1   1   4   53.89    9.60
   0  -1   4   42.40    8.90
   1   0   4   51.89    9.10
   1   0   4   56.39    8.50
   0  -1   4   67.89    9.60
  -1   1   4   55.19    9.20
  -2  -1  -4  127.59    9.60
  -1   3  -4  145.79   13.60
   3  -2  -4  128.49   13.60
   3  -2  -4  127.79   12.50
  -2  -1  -4  127.49    9.70
  -1   3  -4  154.58   13.30
  -1   3  -4  132.79   12.60
  -3   2   4  142.99   15.30
   2   1   4  128.29   12.50
   1  -3   4  141.29   14.10
   2   1   4  141.19   10.90
   1  -3   4  123.39   12.80
  -3   2   4  113.19   15.30
  -2   2  -4  580.94   20.60
   0  -2  -4  598.34   20.30
   2   0  -4  587.14   22.70
  -2   2  -4  586.44   20.50
   2   0  -4  607.94   22.90
   2   0  -4  574.94   22.70
   0  -2  -4  599.34   19.80
  -2   2  -4  613.44   20.70
   0  -2  -4  605.54   19.60
  -2   0   4  644.64   25.00
  -2   0   4  669.63   25.50
   2  -2   4  648.84   21.60
   0   2   4  663.63   23.30
   2  -2   4  624.34   22.40
   0   2   4  653.73   22.50
   5  -3  -4   84.39   12.10
  -2   5  -4   94.79   11.30
  -2   5  -4   83.59   11.60
   5  -3  -4   81.29   11.20
   3   2   4   88.49   10.90
   3   2   4   80.09    9.50
  -5   3   4   61.29   11.00
   2  -5   4  103.09   14.00
  -5   3   4   82.79   12.80
   2  -5   4   84.59   10.80
   1   2  -4   45.50    9.10
  -3   1  -4   38.80    6.70
   2  -3  -4   54.89    8.20
  -3   1  -4   37.20    6.60
   2  -3  -4   44.20    8.80
   1   2  -4   50.29   10.20
  -3   1  -4   46.90    6.40
   1   2  -4   40.50    8.90
   3  -1   4   47.00    8.50
  -2   3   4   25.60    8.90
   3  -1   4   33.90    7.30
  -1  -2   4   32.50    9.60
   3  -1   4   38.30    6.50
  -2   3   4   51.49    9.90
  -3   4  -4   86.99   11.00
  -1  -3  -4   84.59    9.30
  -3   4  -4   88.69   10.30
   4  -1  -4   84.89   12.10
  -1  -3  -4   75.39    8.60
  -3   4  -4   64.79    9.10
   4  -1  -4   74.09   10.20
  -4   1   4   57.29   11.20
   1   3   4   56.59    9.30
  -4   1   4   52.09   11.30
   1   3   4   70.09    9.00
   3  -4   4   48.90    8.50
   3  -4   4   51.89    8.80
   7  -4  -4 1439.06   43.10
  -3   7  -4 1419.66   40.00
   7  -4  -4 1409.66   40.70
  -3   7  -4 1409.46   39.80
  -7   4   4 1427.66   43.60
   3  -7   4 1395.16   40.00
   4   3   4 1342.47   31.70
  -7   4   4 1372.26   42.10
   4   3   4 1390.16   32.50
   0   4  -4  155.58   15.00
   4  -4  -4  154.88   14.40
  -4   0  -4  149.99    8.10
   4  -4  -4  174.38   13.40
   0   4  -4  142.69   14.40
  -4   0  -4  167.78    7.30
  -4   0  -4  156.58    7.60
   0   4  -4  150.18   14.30
  -4   4   4  161.88   16.50
   4   0   4  153.68   10.80
   4   0   4  171.68    9.40
  -4   4   4  165.58   17.60
   4   0   4  179.68   12.60
   0  -4   4  204.18   16.80
  -4   3  -4   65.99    8.10
   1  -4  -4   56.39    7.60
   1  -4  -4   67.49    9.60
  -4   3  -4   66.99    9.00
   3   1  -4   60.09    9.90
  -4   3  -4   58.79    8.00
   3   1  -4   48.00   10.00
  -1   4   4   30.90    8.90
   4  -3   4   27.10    7.50
   4  -3   4   46.00    7.00
  -1   4   4   45.90    9.70
  -3  -1   4   35.00   10.40
   6  -2  -4  576.04   24.70
   6  -2  -4  549.45   25.40
  -4   6  -4  556.84   21.60
  -4   6  -4  534.05   22.00
  -6   2   4  563.04   25.60
   4  -6   4  559.34   22.90
   2   4   4  536.95   19.50
   2   4   4  557.14   19.40
  -6   2   4  558.44   26.40
   9  -5  -4   25.40    9.30
  -4   9  -4   22.80    9.80
   9  -5  -4   11.70    9.40
  -4   9  -4   36.80   10.70
  -9   5   4   53.29   13.40
  -9   5   4   31.20   12.00
   5   4   4   51.89    6.90
   5   4   4   33.70    7.80
   4  -9   4   40.70   10.20
  -1   6  -4   86.49   11.50
   6  -5  -4   69.79   11.00
  -1   6  -4   89.29   12.00
   6  -5  -4   74.49   10.60
   5   1   4   99.69    6.80
   1  -6   4   85.79   11.70
  -6   5   4   87.79   12.80
   5   1   4  102.49    8.40
   5   1   4   91.79   10.10
  -6   5   4  122.19   15.40
   1  -6   4  103.69   13.00
   2   3  -4  179.48   16.20
  -5   2  -4  171.78    9.70
   3  -5  -4  166.78   12.90
  -5   2  -4  159.18    9.60
   2   3  -4  175.88   15.00
  -5   2  -4  158.08    8.60
   3  -5  -4  157.18   14.70
   2   3  -4  173.98   16.50
  -2  -3   4  171.68   17.70
  -3   5   4  170.88   16.70
   5  -2   4  168.58   12.00
  -3   5   4  152.38   16.20
  -5   5  -4 1033.30   29.60
   5   0  -4 1047.00   35.20
   0  -5  -4 1024.70   26.90
   5   0  -4 1071.39   34.00
  -5   5  -4 1057.39   28.70
   0  -5  -4 1043.80   26.50
  -5   5  -4 1052.19   30.10
  -5   0   4 1034.70   34.00
   0   5   4  985.10   29.30
  -5   0   4  999.30   34.80
   5  -5   4  988.30   29.90
   0   5   4  967.10   29.40
   8  -3  -4 1451.95   42.90
  -5   8  -4 1418.96   39.50
  -5   8  -4 1407.66   40.10
   8  -3  -4 1443.26   44.60
  -8   3   4 1468.55   45.90
   5  -8   4 1424.16   41.10
  -8   3   4 1433.86   43.60
   3   5   4 1435.26   34.50
   3   5   4 1452.45   36.10
  11  -6  -4  864.01   35.90
  -5  11  -4  884.21   33.60
  11  -6  -4  905.11   33.50
  -5  11  -4  914.61   33.60
 -11   6   4 1091.99   42.40
 -11   6   4 1098.39   38.80
   5 -11   4 1051.79   36.80
   6   5   4 1052.99   24.30
  -2   8  -4  485.95   23.80
  -2   8  -4  483.85   23.70
   8  -6  -4  488.75   25.30
   8  -6  -4  518.45   23.80
  -8   6   4  464.45   26.10
   6   2   4  490.25   15.30
   6   2   4  499.35   14.00
   2  -8   4  512.15   24.40
  -8   6   4  480.45   27.20
   6   2   4  485.25   13.10
   1   5  -4  121.49   15.90
   5  -6  -4  106.69   13.40
   5  -6  -4  114.59   13.50
   1   5  -4  138.19   16.00
  -5   6   4  121.49   16.20
  -1  -5   4  141.59   17.30
   6  -1   4  166.88   15.30
  -5   6   4  131.29   17.80
   6  -1   4  129.59   11.50
   2  -6  -4  377.96   16.10
   4   2  -4  368.16   20.10
  -6   4  -4  374.16   15.30
  -6   4  -4  379.26   13.80
  -6   4  -4  375.16   15.30
   4   2  -4  396.36   21.50
  -2   6   4  400.36   20.30
   6  -4   4  402.16   17.70
  -2   6   4  402.26   21.30
  -4  -2   4  403.36   23.70
   7  -1  -4  238.68   19.70
  -1  -6  -4  220.78    8.10
   7  -1  -4  174.28   16.90
  -6   7  -4  218.98   15.90
  -1  -6  -4  235.98    8.90
  -6   7  -4  270.77   15.20
  -7   1   4  270.67   22.30
  -7   1   4  233.98   20.70
   1   6   4  251.07   16.60
   6  -7   4  262.17   16.90
   1   6   4  226.08   14.90
  -6  10  -4  982.50   33.10
  10  -4  -4  923.71   37.00
  10  -4  -4  975.40   34.90
  -6  10  -4  898.61   32.00
 -10   4   4  970.30   36.00
   6 -10   4 1010.70   34.60
   4   6   4  956.30   25.80
 -10   4   4 1030.70   40.30
  -6  13  -4 1132.69   39.70
  13  -7  -4 1197.18   43.60
  -6  13  -4 1158.48   40.50
  13  -7  -4 1151.38   40.20
   7   6   4 1191.68   25.70
   6 -13   4 1179.98   40.70
   7   6   4 1174.78   31.60
 -13   7   4 1182.28   47.20
 -13   7   4 1201.48   42.30
  10  -7  -4 2816.12   71.89
  -3  10  -4 2797.62   68.79
  10  -7  -4 2698.83   68.39
  -3  10  -4 2705.73   67.49
 -10   7   4 2957.00   75.59
 -10   7   4 2923.11   72.79
   3 -10   4 2915.61   71.59
   7   3   4 2897.71   57.69
   7  -7  -4  352.66   19.70
   7  -7  -4  342.77   21.50
   0   7  -4  347.37   21.50
   0   7  -4  331.67   21.70
   0  -7   4  492.75   23.70
   0  -7   4  504.55   25.70
   7   0   4  494.05   14.90
  -7   7   4  497.85   25.70
  -7   7   4  506.75   26.60
   7   0   4  502.25   16.60
   3   4  -4 1042.10   34.70
   3   4  -4 1034.90   35.90
  -7   3  -4 1072.69   23.60
   4  -7  -4 1091.59   31.30
  -7   3  -4 1040.70   23.50
   3   4  -4 1074.79   34.80
  -4   7   4 1049.20   33.70
   7  -3   4 1044.30   28.10
  -4   7   4 1056.69   35.20
  -3  -4   4 1030.80   36.30
   6   1  -4  165.28   18.10
   6   1  -4  156.18   15.80
   1  -7  -4  158.38   10.40
  -7   6  -4  138.39   15.40
  -7   6  -4  141.69   12.80
  -1   7   4  158.18   16.10
  -6  -1   4  174.68   20.20
   7  -6   4  179.58   14.30
  -1   7   4  179.88   16.10
   9  -2  -4   16.90    9.00
  -7   9  -4   17.30    9.10
  -7   9  -4   20.70    8.50
   9  -2  -4    9.30   10.10
  -9   2   4   22.00   11.10
   2   7   4   28.90    8.30
  -9   2   4   37.20   14.80
   7  -9   4   25.10    8.70
  -7  12  -4  438.26   25.10
  12  -5  -4  391.86   23.00
  12  -5  -4  475.75   29.20
  -7  12  -4  460.55   24.90
   7 -12   4  432.06   24.30
 -12   5   4  420.06   31.30
 -12   5   4  491.75   26.70
   5   7   4  462.35   16.80
  15  -8  -4 1046.20   39.40
  -7  15  -4  981.90   39.70
  15  -8  -4 1056.09   43.00
  -7  15  -4 1017.20   39.70
   8   7   4  954.50   29.90
   7 -15   4  974.10   38.30
 -15   8   4 1029.70   39.80
 -15   8   4  951.00   43.60
  12  -8  -4  970.90   38.80
  -4  12  -4  931.51   35.80
  -4  12  -4  854.51   34.30
  12  -8  -4  884.11   34.70
   8   4   4  804.92   22.30
   4 -12   4  834.32   33.20
 -12   8   4  883.41   39.80
 -12   8   4  867.11   35.40
   9  -8  -4  366.76   21.70
  -1   9  -4  407.76   23.70
   9  -8  -4  367.16   24.00
  -1   9  -4  374.26   23.20
  -9   8   4  421.66   26.40
  -9   8   4  406.36   26.00
   1  -9   4  423.56   23.60
   8   1   4  386.96   12.60
   2   6  -4  267.47   20.20
   6  -8  -4  283.47   17.60
   2   6  -4  300.07   20.60
  -2  -6   4  266.17   21.50
   8  -2   4  308.67   14.20
  -6   8   4  266.17   22.40
  -6   8   4  262.67   20.10
  -8   5  -4 2412.16   50.69
  -8   5  -4 2256.37   49.70
   3  -8  -4 2328.27   53.59
  -8   5  -4 2357.76   48.90
   5   3  -4 2343.27   59.49
   5   3  -4 2377.46   61.79
  -3   8   4 2447.06   59.39
  -5  -3   4 2535.05   64.59
  -3   8   4 2458.75   60.89
   8  -5   4 2406.46   55.69
   8   0  -4  859.41   32.20
   0  -8  -4  858.41   21.30
  -8   8  -4  829.02   27.90
   8   0  -4  894.41   34.90
  -8   8  -4  882.91   27.10
   8  -8   4  968.50   31.50
  -8   0   4  998.70   38.40
   0   8   4  959.40   29.60
  -8  11  -4  332.57   21.00
  11  -3  -4  341.27   23.00
  11  -3  -4  338.87   25.30
   3   8   4  330.47   17.50
 -11   3   4  341.27   24.40
   8 -11   4  343.17   21.40
 -11   3   4  373.26   28.10
  14  -6  -4  297.17   21.40
  14  -6  -4  343.47   26.40
  -8  14  -4  312.17   23.80
   6   8   4  290.57   14.80
 -14   6   4  302.57   29.00
 -14   6   4  326.87   25.80
   8 -14   4  352.66   24.60
  17  -9  -4  259.47   27.60
  17  -9  -4  255.47   24.00
  -8  17  -4  314.47   27.10
 -17   9   4  304.97   27.50
   8 -17   4  292.07   25.50
   9   8   4  279.87   12.80
   9   8   4  268.27   18.40
 -17   9   4  280.37   33.00
  -5  14  -4  292.57   24.90
  14  -9  -4  348.07   27.30
  14  -9  -4  329.77   23.20
  -5  14  -4  314.27   25.00
 -14   9   4  297.77   25.30
   5 -14   4  317.97   23.70
   9   5   4  260.37   14.20
 -14   9   4  297.97   30.30
  -2  11  -4 1123.29   38.50
  -2  11  -4 1113.49   39.80
  11  -9  -4 1090.59   38.20
  11  -9  -4 1113.79   41.30
   2 -11   4 1242.38   41.00
 -11   9   4 1228.38   42.30
 -11   9   4 1172.78   44.40
   8  -9  -4  280.97   18.50
   1   8  -4  292.57   21.70
   1   8  -4  299.67   21.90
  -8   9   4  314.37   24.60
  -1  -8   4  335.07   24.00
  -8   9   4  365.26   23.40
   9  -1   4  367.06   12.30
  -9   4  -4  123.79    8.60
   4   5  -4   82.19   12.70
   5  -9  -4  135.99   13.70
   4   5  -4  146.69   18.10
  -4  -5   4   88.39   14.40
  -5   9   4  118.39   16.20
  -5   9   4   97.29   13.00
   9  -4   4  103.69   10.10
   7   2  -4   42.30   10.00
   2  -9  -4   63.59    8.20
  -9   7  -4   62.09    8.90
   7   2  -4   50.39   12.30
  -2   9   4   71.69   12.90
  -7  -2   4   66.49   14.40
   9  -7   4   66.89    9.40
  -2   9   4   65.69   11.30
  10  -1  -4  192.78   20.90
  -9  10  -4  170.48   17.20
  10  -1  -4  173.88   18.40
   1   9   4  213.58   16.70
 -10   1   4  204.48   25.40
   9 -10   4  207.28   17.10
  -9  13  -4  640.74   29.10
  13  -4  -4  674.33   30.90
  13  -4  -4  659.03   33.90
   9 -13   4  723.83   31.10
 -13   4   4  659.43   32.30
 -13   4   4  718.23   35.80
   4   9   4  707.83   23.70
  16  -7  -4 1202.28   43.90
  16  -7  -4 1222.48   47.70
  -9  16  -4 1238.68   44.40
   7   9   4 1177.28   36.90
   9 -16   4 1224.28   44.60
 -16   7   4 1180.28   51.19
   7   9   4 1198.88   30.70
 -16   7   4 1274.57   45.50
  19 -10  -4  563.34   37.90
  19 -10  -4  635.04   34.10
  -9  19  -4  532.75   35.80
  10   9   4  571.14   26.90
 -19  10   4  561.74   35.70
   9 -19   4  586.74   34.30
  10   9   4  562.14   19.20
  -6  16  -4 2075.69   63.09
  -6  16  -4 2005.00   60.19
  16 -10  -4 2070.89   61.69
  16 -10  -4 2033.70   64.99
   6 -16   4 2032.40   60.19
 -16  10   4 2023.50   65.99
  10   6   4 2032.60   49.20
 -16  10   4 2052.89   61.59
  -3  13  -4 2860.11   75.59
  13 -10  -4 2859.81   73.89
  -3  13  -4 2883.81   73.69
  13 -10  -4 2912.31   77.69
 -13  10   4 2771.72   77.29
   3 -13   4 2785.92   72.19
  10   3   4 2788.62   56.89
 -13  10   4 2790.52   73.39
   0  10  -4 3988.90   94.09
  10 -10  -4 3903.21   90.19
   0  10  -4 3896.21   91.09
   0 -10   4 3927.81   90.89
  10   0   4 3873.51   74.39
 -10  10   4 4012.50   92.49
 -10  10   4 3774.02   93.59
   7 -10  -4 2124.09   53.49
   3   7  -4 2113.09   56.09
   3   7  -4 1986.70   57.69
  -7  10   4 2246.38   60.29
  -7  10   4 2228.48   57.89
  -3  -7   4 2218.28   60.59
  10  -3   4 2013.80   50.99
   4 -10  -4 1129.99   32.40
   6   4  -4 1174.88   38.40
   6   4  -4 1151.18   40.70
 -10   6  -4 1093.49   27.50
  -6  -4   4 1320.67   44.30
  -4  10   4 1211.28   39.00
  -4  10   4 1325.77   41.80
  10  -6   4 1275.17   34.80
   1 -10  -4  588.54   18.30
   9   1  -4  583.34   29.90
 -10   9  -4  613.34   23.70
   9   1  -4  562.84   26.80
  -9  -1   4  595.24   32.60
  10  -9   4  636.64   25.10
  -1  10   4  613.64   25.50
 -10  12  -4  363.46   23.10
  12  -2  -4  406.46   25.20
  12  -2  -4  404.46   27.60
 -12   2   4  401.36   30.10
  10 -12   4  401.06   23.40
   2  10   4  393.66   20.90
  15  -5  -4  560.84   28.70
 -10  15  -4  639.44   30.90
  15  -5  -4  692.23   36.40
  10 -15   4  651.43   31.40
   5  10   4  635.44   23.60
 -15   5   4  687.73   33.80
 -15   5   4  671.23   38.30
 -10  18  -4  755.62   37.80
  18  -8  -4  776.72   40.50
  10 -18   4  823.52   38.40
   8  10   4  778.82   31.70
 -18   8   4  741.03   38.10
   8  10   4  834.92   25.10
 -18   8   4  752.52   43.80
 -10  21  -4  380.96   36.20
  21 -11  -4  359.56   34.80
  21 -11  -4  337.37   30.60
  11  10   4  343.47   25.20
 -21  11   4  391.36   40.90
 -21  11   4  384.46   36.40
  11  10   4  328.17   19.00
  -7  18  -4  845.32   41.30
  -7  18  -4  847.72   40.50
  18 -11  -4  807.32   38.00
  18 -11  -4  727.53   41.10
  11   7   4  812.42   28.80
 -18  11   4  737.63   39.70
 -18  11   4  758.92   45.30
   7 -18   4  775.82   37.30
  -4  15  -4 1097.39   43.80
  15 -11  -4 1042.50   40.50
  -4  15  -4 1041.20   40.60
  15 -11  -4 1043.30   43.80
   4 -15   4 1007.70   39.30
 -15  11   4  996.50   41.40
  11   4   4  903.01   36.80
 -15  11   4 1050.09   46.50
  -1  12  -4 1474.75   49.00
  12 -11  -4 1453.75   45.90
  -1  12  -4 1432.36   46.80
   1 -12   4 1446.86   46.00
 -12  11   4 1364.36   46.40
 -12  11   4 1445.96   50.99
   2   9  -4  684.63   30.40
   2   9  -4  609.94   31.10
   9 -11  -4  652.63   27.70
  -9  11   4  782.12   35.20
  -2  -9   4  750.72   34.40
  11  -2   4  737.43   19.90
  -9  11   4  729.33   32.90
 -11   5  -4  795.32   19.90
   5   6  -4  829.02   34.30
   5   6  -4  859.41   35.30
   6 -11  -4  845.02   28.90
  -6  11   4 1031.40   36.90
  -6  11   4 1035.30   39.30
  11  -5   4 1030.20   28.90
  -5  -6   4 1007.40   39.30
   8   3  -4   93.79   14.60
   8   3  -4  120.09   15.80
   3 -11  -4  113.29   11.90
 -11   8  -4   96.69   12.40
  -8  -3   4   97.59   17.00
  -3  11   4  124.19   14.30
  11  -8   4   87.19   11.00
  11   0  -4 1098.29   39.70
  11   0  -4 1178.18   43.80
 -11  11  -4 1200.38   36.40
   0 -11  -4 1145.39   25.80
   0  11   4 1175.88   36.10
  11 -11   4 1177.88   37.70
 -11   0   4 1120.09   45.30
  14  -3  -4  183.78   22.20
 -11  14  -4  137.19   16.30
  14  -3  -4  141.99   18.30
  11 -14   4  161.28   19.70
   3  11   4  148.69   17.80
 -14   3   4   89.39   18.80
  17  -6  -4  474.65   37.20
  17  -6  -4  379.86   25.60
 -11  17  -4  441.96   30.60
   6  11   4  441.86   21.10
  11 -17   4  462.35   29.30
 -17   6   4  441.36   35.20
 -17   6   4  406.16   30.80
  20  -9  -4   92.19   20.90
  20  -9  -4   96.49   18.00
   9  11   4   77.59   14.20
 -20   9   4   71.39   21.40
 -20   9   4   59.99   23.00
  11 -20   4   89.49   19.60
   9  11   4   93.79   12.00
  23 -12  -4  135.59   22.30
 -11  23  -4  130.49   26.70
  23 -12  -4  171.68   27.70
  12  11   4  161.48   16.40
 -23  12   4  124.99   31.30
 -23  12   4  206.58   29.20
  12  11   4  177.38   20.60
  20 -12  -4  517.35   34.20
  -8  20  -4  489.25   35.70
  20 -12  -4  509.95   38.10
  -8  20  -4  482.55   36.70
  12   8   4  424.96   24.20
 -20  12   4  444.36   35.80
 -20  12   4  475.75   41.40
   8 -20   4  445.76   32.50
  -5  17  -4  221.78   27.70
  -5  17  -4  206.38   26.60
 -17  12   4  237.68   31.40
  12   5   4  246.08   16.10
 -17  12   4  233.68   28.00
  -2  14  -4  233.58   25.00
  14 -12  -4  265.37   22.10
  -2  14  -4  221.98   25.10
  12   2   4  326.37   12.60
   2 -14   4  378.36   25.50
 -14  12   4  346.77   32.80
 -14  12   4  344.57   28.20
  11 -12  -4 1780.92   51.69
   1  11  -4 1814.92   53.19
   1  11  -4 1718.13   55.09
  12  -1   4 1774.92   36.90
 -11  12   4 1800.72   55.09
 -11  12   4 1718.63   56.09
   4   8  -4  805.02   34.80
   4   8  -4  789.82   35.40
   8 -12  -4  813.22   30.10
  12  -4   4  756.22   22.70
  -8  12   4  785.72   33.10
  -8  12   4  746.93   35.00
  -4  -8   4  737.53   34.90
   7   5  -4  531.05   28.90
 -12   7  -4  522.85   17.20
   7   5  -4  570.24   30.30
 -12   7  -4  572.74   17.50
 -12   7  -4  533.15   18.80
   7   5  -4  538.25   27.00
   5 -12  -4  544.45   22.30
  -5  12   4  601.74   31.30
  -5  12   4  600.74   28.40
  12  -7   4  580.24   22.20
  -7  -5   4  561.94   32.80
  10   2  -4    5.20    8.90
   2 -12  -4   17.80    6.20
 -12  10  -4   10.10    8.50
  10   2  -4    2.20   11.60
  12 -10   4   -1.00    7.20
  -2  12   4    3.60   10.50
 -10  -2   4  -14.30   14.00
 -12  13  -4  160.28   19.60
  13  -1  -4  105.29   15.50
  13  -1  -4  142.39   20.00
   1  12   4  125.69   15.10
 -13   1   4  133.59   20.90
  12 -13   4  132.39   17.70
 -12  16  -4  146.99   19.50
  16  -4  -4  116.09   18.10
  16  -4  -4  137.39   20.40
 -16   4   4  167.28   24.10
   4  12   4  145.79   15.30
  12 -16   4  179.98   22.10
  19  -7  -4  129.19   20.50
 -12  19  -4  146.59   22.00
  19  -7  -4  132.39   17.80
   7  12   4  212.28   22.60
  12 -19   4  285.87   26.80
   7  12   4  188.88   19.00
 -19   7   4  223.28   25.60
  22 -10  -4  108.89   20.10
 -12  22  -4  168.78   26.20
  22 -10  -4  215.28   29.40
  10  12   4  201.88   24.50
 -22  10   4  193.18   27.40
  10  12   4  165.08   21.70
 -22  10   4  216.88   32.40
 -12  25  -4  141.89   30.10
  25 -13  -4   87.29   23.00
  25 -13  -4  149.09   29.50
  13  12   4  112.49   16.90
 -25  13   4  129.79   29.30
  13  12   4  103.89   21.20
 -25  13   4  104.29   32.90
  22 -13  -4  526.75   34.90
  22 -13  -4  448.16   39.10
  -9  22  -4  415.36   38.30
  13   9   4  435.06   26.80
 -22  13   4  412.36   39.10
 -22  13   4  458.15   44.10
   9 -22   4  469.35   49.40
  13   9   4  391.36   19.70
  19 -13  -4 1074.59   50.49
  -6  19  -4 1172.38   50.39
  19 -13  -4 1149.19   46.00
  -6  19  -4 1161.18   49.70
  13   6   4 1089.89   34.60
 -19  13   4 1114.49   54.09
 -19  13   4 1111.09   48.30
   6 -19   4 1062.69   44.40
  -3  16  -4 2275.27   68.59
  16 -13  -4 2133.59   65.59
  -3  16  -4 2229.48   65.39
  13   3   4 2053.59   57.89
 -16  13   4 2156.28   65.69
   3 -16   4 2249.77   64.59
 -16  13   4 2255.07   71.09
  13 -13  -4 2905.81   76.39
   0  13  -4 3062.59   81.19
   0  13  -4 2985.50   77.29
 -13  13   4 3178.08   80.69
 -13  13   4 3027.80   83.39
   0 -13   4 3008.50   77.89
   3  10  -4 2583.64   69.39
   3  10  -4 2700.53   73.49
  10 -13  -4 2611.14   66.99
  13  -3   4 2832.42   60.69
 -10  13   4 2690.63   74.09
 -10  13   4 2686.13   71.59
  -3 -10   4 2637.94   73.79
   6   7  -4 2247.08   60.99
   6   7  -4 2187.18   63.89
 -13   6  -4 2130.19   46.60
   7 -13  -4 2232.18   56.09
  -6  -7   4 2279.57   66.29
  -7  13   4 2301.37   61.99
  13  -6   4 2280.07   53.19
  -7  13   4 2244.68   64.59
   4 -13  -4  502.85   20.80
 -13   9  -4  490.95   20.00
   9   4  -4  493.65   26.90
   9   4  -4  491.85   29.60
  -9  -4   4  564.14   35.40
  13  -9   4  560.74   23.60
  -4  13   4  601.44   28.20
  12   1  -4  153.88   19.60
 -13  12  -4  154.78   18.10
   1 -13  -4  145.79   10.60
  12   1  -4  101.39   16.70
  -1  13   4  143.39   16.50
 -12  -1   4   99.39   18.10
  13 -12   4  117.39   15.70
 -13  15  -4   40.90   13.80
  15  -2  -4   33.20   14.00
  15  -2  -4   51.19   14.30
   2  13   4   17.00   12.40
  13 -15   4   39.30   11.90
 -15   2   4   32.40   17.40
 -13  18  -4  522.05   33.30
  18  -5  -4  593.24   39.30
 -18   5   4  519.75   39.90
  13 -18   4  595.14   33.10
   5  13   4  560.74   26.70
  21  -8  -4  307.27   29.00
 -13  21  -4  304.97   34.00
  21  -8  -4  254.87   31.00
 -21   8   4  285.27   35.80
   8  13   4  322.97   27.80
   8  13   4  302.17   22.60
  13 -21   4  302.57   29.90
 -21   8   4  301.97   38.60
 -13  24  -4  303.67   34.60
  24 -11  -4  269.47   31.80
  24 -11  -4  218.38   30.30
  11  13   4  217.78   26.30
 -24  11   4  181.98   31.00
 -24  11   4  156.88   31.40
  11  13   4  172.98   23.30
  27 -14  -4  126.19   34.50
  27 -14  -4  206.78   30.50
 -13  27  -4  231.38   34.30
 -27  14   4  170.18   40.30
 -27  14   4  213.68   36.70
  14  13   4  201.28   23.40
  14  13   4  209.88   27.50
  13 -27   4  158.38   29.90
  24 -14  -4   33.70   16.60
 -10  24  -4   72.09   24.40
  24 -14  -4    4.70   24.00
  14  10   4  122.39   18.80
  14  10   4  114.39   14.60
 -24  14   4   95.19   30.00
 -24  14   4  106.69   26.90
  -7  21  -4  122.89   25.40
  -7  21  -4  113.79   24.40
  21 -14  -4  123.99   20.60
 -21  14   4  164.48   31.50
   7 -21   4  142.99   20.80
  14   7   4  141.79   18.80
 -21  14   4  133.09   22.90
  18 -14  -4  741.73   37.00
  -4  18  -4  858.91   42.80
 -18  14   4  740.63   40.40
   4 -18   4  676.63   35.80
  14   4   4  701.33   25.00
  -1  15  -4  750.42   36.90
  -1  15  -4  759.82   38.60
  15 -14  -4  761.22   35.10
   1 -15   4  745.73   35.00
 -15  14   4  758.32   37.70
 -15  14   4  670.33   42.70
  14   1   4  768.02   20.90
   2  12  -4  540.75   32.10
   2  12  -4  522.65   33.20
  12 -14  -4  602.94   29.30
  14  -2   4  621.44   18.00
 -12  14   4  683.03   36.90
 -12  14   4  594.94   35.20
   9 -14  -4  202.18   18.10
   5   9  -4  208.78   23.60
 -14   5  -4  184.58   11.40
   5   9  -4  200.58   23.00
  -9  14   4  184.58   20.70
  14  -5   4  181.28   12.60
  -9  14   4  197.08   26.30
  -5  -9   4  199.98   25.40
   8   6  -4  475.65   28.70
   6 -14  -4  491.45   23.00
 -14   8  -4  479.55   20.00
 -14   8  -4  464.35   15.50
 -14   8  -4  457.25   14.40
   8   6  -4  471.85   29.50
  -8  -6   4  529.55   33.80
  14  -8   4  457.45   20.90
  -6  14   4  499.85   28.60
  11   3  -4  186.88   22.40
 -14  11  -4  167.58   17.50
   3 -14  -4  206.08   13.90
  11   3  -4  208.78   21.30
  14 -11   4  197.28   17.10
  -3  14   4  190.68   22.20
 -11  -3   4  203.38   26.90
  14   0  -4   52.89   14.40
 -14  14  -4   50.59   13.00
  14   0  -4   18.20   13.80
 -14   0   4   22.80   17.10
   0  14   4   24.60   13.20
  14 -14   4   22.50   10.30
 -14  17  -4  238.48   26.90
  17  -3  -4  210.28   25.80
  17  -3  -4  233.38   28.60
   3  14   4  221.88   23.70
 -17   3   4  204.58   26.70
  14 -17   4  181.98   23.30
 -14  20  -4  191.18   25.00
  20  -6  -4  119.09   17.60
  20  -6  -4  113.99   21.40
   6  14   4  198.08   21.80
   6  14   4  181.48   24.40
  14 -20   4  193.88   25.20
 -20   6   4  174.68   27.50
  23  -9  -4   78.39   20.30
  23  -9  -4   73.29   24.50
 -14  23  -4   66.79   21.70
 -23   9   4  108.29   25.50
 -23   9   4   57.89   27.00
   9  14   4   53.89   17.30
   9  14   4   84.09   17.30
 -14  26  -4   59.09   26.80
  26 -12  -4   23.30   20.20
  26 -12  -4  -25.30   25.70
 -26  12   4   19.70   29.60
 -26  12   4    0.30   28.20
  12  14   4   13.40   17.60
  12  14   4   12.00   18.10
  29 -15  -4   43.10   25.10
 -14  29  -4   36.30   32.60
 -29  15   4   -1.10   32.70
  15  14   4   23.40   26.00
 -29  15   4   42.70   37.90
  15  14   4   47.40   22.60
  14 -29   4   -8.10   25.30
 -11  26  -4   18.00   28.50
  26 -15  -4   70.49   22.30
  15  11   4   94.39   17.80
  11 -26   4   71.49   23.70
  15  11   4   84.09   20.50
 -26  15   4   90.99   30.80
 -26  15   4   76.29   31.00
  23 -15  -4  182.08   24.50
  -8  23  -4  226.58   30.20
  -8  23  -4  181.68   26.80
 -23  15   4  244.68   34.90
  15   8   4  229.88   24.10
 -23  15   4  227.38   29.40
  -5  20  -4  235.58   28.40
  -5  20  -4  290.37   33.30
   5 -20   4  222.18   27.00
 -20  15   4  250.97   33.00
  15   5   4  222.98   18.40
 -20  15   4  297.87   39.20
  -2  17  -4  110.29   19.20
  17 -15  -4   88.99   15.90
  -2  17  -4  108.29   20.30
   2 -17   4  200.38   24.10
 -17  15   4  132.29   26.60
 -17  15   4  137.29   21.60
  15   2   4  136.99   13.10
   1  14  -4 1284.67   47.70
  14 -15  -4 1258.87   45.00
   1  14  -4 1201.38   49.20
 -14  15   4 1155.08   49.70
 -14  15   4 1209.28   48.10
  15  -1   4 1189.58   27.10
   4  11  -4 1052.49   44.30
 -15   4  -4 1015.20   24.70
  11 -15  -4  988.50   36.90
   4  11  -4  996.60   40.30
 -11  15   4  978.40   40.80
  15  -4   4  935.51   26.70
 -11  15   4  955.90   42.80
   8 -15  -4  843.12   31.50
   7   8  -4  812.92   36.30
 -15   7  -4  819.92   25.40
   7   8  -4  853.51   39.40
  15  -7   4  820.02   27.20
  -8  15   4  828.32   41.00
  -7  -8   4  813.42   41.40
  -8  15   4  793.82   36.50
 -15  10  -4  712.13   25.20
   5 -15  -4  741.53   27.40
  10   5  -4  770.12   34.20
  10   5  -4  755.12   37.30
 -15  10  -4  741.03   27.90
  -5  15   4  753.92   34.20
 -10  -5   4  779.02   39.90
  15 -10   4  776.92   29.10
   2 -15  -4   75.39    9.10
  13   2  -4   65.19   14.10
  13   2  -4   64.09   17.80
 -15  13  -4   68.49   13.50
  15 -13   4   59.59   12.50
  -2  15   4   75.19   16.40
 -13  -2   4   47.40   17.80
  16  -1  -4   59.79   19.40
  16  -1  -4   34.90   15.30
 -15  16  -4   49.60   15.30
   1  15   4   65.49   16.20
 -16   1   4   53.49   22.00
  15 -16   4   71.19   14.50
 -15  19  -4   17.90   17.00
  19  -4  -4   13.50   14.60
  19  -4  -4    6.60   17.20
   4  15   4    3.00   13.80
 -19   4   4    1.40   17.60
  15 -19   4   16.40   13.70
  22  -7  -4   81.59   18.90
  22  -7  -4   78.79   22.50
 -15  22  -4  101.99   22.80
   7  15   4  101.89   19.90
  15 -22   4   87.49   20.50
 -22   7   4   39.90   24.80
   7  15   4   89.79   16.20
  25 -10  -4  209.78   34.80
 -15  25  -4  244.08   34.40
  10  15   4  133.09   20.20
 -25  10   4  130.49   30.90
 -25  10   4  143.09   31.90
  10  15   4  140.39   22.80
 -15  28  -4  212.48   37.00
  28 -13  -4  252.37   33.90
  28 -13  -4  247.48   39.30
  13  15   4  245.78   32.80
 -28  13   4  310.07   38.60
  15 -28   4  223.08   33.30
 -28  13   4  295.17   44.80
  13  15   4  229.58   26.90
  31 -16  -4  101.89   22.80
 -15  31  -4  228.18   43.70
  16  15   4  198.38   35.20
 -31  16   4  167.48   47.40
  16  15   4  176.48   28.30
 -31  16   4  261.17   43.30
 -12  28  -4   91.89   34.00
  28 -16  -4   44.60   23.90
  16  12   4   83.19   23.40
 -28  16   4  115.69   35.50
 -28  16   4   66.39   37.40
  12 -28   4   28.50   24.80
  16  12   4   69.59   20.40
  -9  25  -4   40.20   25.90
  25 -16  -4   -7.90   18.30
  16   9   4   30.50   14.10
 -25  16   4   52.09   29.20
 -25  16   4    0.10   27.60
  16   9   4   28.10   16.60
  -6  22  -4  194.38   28.90
  -6  22  -4  171.18   29.30
 -22  16   4  142.49   28.40
 -22  16   4  151.18   29.60
   6 -22   4  123.79   21.30
  16   6   4  148.49   16.00
  -3  19  -4 1247.38   53.39
  19 -16  -4 1078.09   46.30
  -3  19  -4 1202.48   51.19
  16   3   4 1177.68   34.70
 -19  16   4 1274.57   57.89
 -19  16   4 1144.39   51.79
   3 -19   4 1210.88   47.60
   0  16  -4 1399.66   52.19
   0  16  -4 1329.47   53.49
  16 -16  -4 1396.56   49.60
  16   0   4 1246.88   31.80
  16   0   4 1255.07   27.90
 -16  16   4 1387.96   53.09
 -16  16   4 1309.27   57.39
   0 -16   4 1250.17   66.59
   3  13  -4 2615.14   73.09
   3  13  -4 2672.23   77.99
  13 -16  -4 2716.13   71.89
 -16   3  -4 2676.13   55.19
  16  -3   4 2607.34   58.99
 -13  16   4 2803.72   79.99
 -13  16   4 2796.02   77.69
   6  10  -4 1257.67   46.00
 -16   6  -4 1215.18   32.10
   6  10  -4 1288.17   49.70
  10 -16  -4 1299.87   42.10
  -6 -10   4 1291.27   51.99
 -10  16   4 1217.38   46.40
 -10  16   4 1296.37   50.49
  16  -6   4 1239.18   34.60
 -16   9  -4 1274.27   36.70
   7 -16  -4 1353.36   40.60
   9   7  -4 1310.67   46.70
   9   7  -4 1285.47   50.19
  16  -9   4 1371.26   40.50
  -7  16   4 1373.36   47.70
  -9  -7   4 1396.26   53.09
   4 -16  -4  115.89   13.90
  12   4  -4  115.89   19.80
 -16  12  -4  111.59   14.20
  12   4  -4  100.89   16.80
  -4  16   4  118.59   18.60
  16 -12   4   87.39   13.00
 -12  -4   4   98.59   21.40
  15   1  -4   79.89   19.80
  15   1  -4   47.30   14.30
 -16  15  -4   70.69   15.30
   1 -16  -4   47.20    7.50
 -15  -1   4   45.60   20.90
  -1  16   4   77.39   17.60
  16 -15   4   78.09   14.80
  18  -2  -4  311.47   28.90
  18  -2  -4  209.68   27.10
 -16  18  -4  264.97   30.30
  16 -18   4  301.97   26.40
 -18   2   4  266.77   31.70
   2  16   4  251.37   28.30
  21  -5  -4   83.79   17.20
 -21   5   4  129.89   30.30
  16 -21   4  136.79   20.10
   5  16   4  143.19   19.40
 -16  24  -4  562.64   46.40
  24  -8  -4  631.94   39.10
  24  -8  -4  532.95   44.30
   8  16   4  545.85   35.40
   8  16   4  620.54   41.10
 -24   8   4  539.75   51.69
  27 -11  -4  110.59   32.20
  27 -11  -4  129.69   26.00
 -16  27  -4  110.89   32.60
  11  16   4   70.49   22.90
 -27  11   4   93.19   38.00
  11  16   4  123.49   25.00
  30 -14  -4  126.19   34.20
  30 -14  -4  138.79   40.50
 -16  30  -4  183.88   39.40
 -30  14   4  250.47   39.90
 -30  14   4  167.88   45.70
  16 -30   4  148.19   21.10
  14  16   4  193.78   34.40
  14  16   4  223.08   30.80
 -13  30  -4  165.58   41.70
  30 -17  -4  154.08   31.80
 -30  17   4   62.99   45.40
 -30  17   4  127.59   40.70
  17  13   4  109.69   25.70
  17  13   4  143.89   30.40
  13 -30   4   97.19   25.00
 -10  27  -4   96.89   31.80
 -10  27  -4   85.99   29.80
  17  10   4  160.48   19.90
 -27  17   4  117.49   36.30
 -27  17   4  100.99   33.30
  17  10   4  248.18   33.50
  10 -27   4  109.79   26.70
  24 -17  -4   68.69   22.80
  -7  24  -4   54.99   25.40
  17   7   4   51.89   14.30
 -24  17   4   99.99   27.10
 -24  17   4  103.19   32.10
  -4  21  -4  193.68   27.80
  -4  21  -4  250.37   30.90
 -21  17   4  244.98   30.80
  17   4   4  244.78   19.70
 -21  17   4  292.97   35.90
   4 -21   4  258.87   30.80
  18 -17  -4  535.05   33.30
  -1  18  -4  421.36   35.10
  -1  18  -4  429.46   38.00
 -18  17   4  390.66   40.00
   1 -18   4  422.06   31.20
 -18  17   4  544.65   38.40
  17   1   4  429.56   19.30
  15 -17  -4   28.60   12.30
   2  15  -4   40.00   16.90
   2  15  -4   53.99   17.70
 -15  17   4   32.60   16.90
  17  -2   4   38.30    6.60
 -15  17   4   84.89   22.70
  12 -17  -4  153.78   19.80
 -17   5  -4  168.08   15.30
   5  12  -4  205.08   26.90
 -12  17   4  154.68   21.40
  17  -5   4  170.08   13.40
 -12  17   4  176.08   24.10
   8   9  -4   54.29   16.00
   8   9  -4   87.39   19.10
 -17   8  -4   69.39   12.00
   9 -17  -4  107.19   15.60
  -8  -9   4   70.09   20.10
  17  -8   4   67.79   10.80
  -9  17   4   73.09   19.70
  -9  17   4   84.59   18.60
  11   6  -4  231.38   24.10
 -17  11  -4  219.28   17.50
   6 -17  -4  246.98   18.60
 -17  11  -4  256.57   21.60
  11   6  -4  268.77   35.10
  17 -11   4  208.38   18.90
  -6  17   4  215.58   26.40
 -11  -6   4  273.57   32.60
   3 -17  -4  425.46   20.00
  14   3  -4  365.46   27.90
  14   3  -4  485.45   35.20
 -17  14  -4  463.05   26.90
  -3  17   4  426.76   32.30
 -14  -3   4  509.45   37.80
  17 -14   4  468.25   27.30
  17   0  -4   -3.80   12.40
  17   0  -4    1.70   16.90
 -17  17  -4   40.30   16.70
   0  17   4   11.90   16.70
 -17   0   4   48.80   21.00
 -17  20  -4  373.16   35.70
  20  -3  -4  281.77   30.30
  20  -3  -4  314.17   35.60
 -20   3   4  306.37   41.10
   3  17   4  339.57   30.10
  17 -20   4  337.27   29.20
 -17  23  -4   71.49   23.80
  23  -6  -4   49.20   16.10
  23  -6  -4  100.19   25.60
  17 -23   4  117.59   21.10
   6  17   4  100.79   20.00
 -23   6   4  131.39   31.50
   6  17   4  130.49   23.30
  26  -9  -4   45.80   28.70
  26  -9  -4   80.29   23.60
 -17  26  -4  100.29   29.70
   9  17   4   73.29   22.10
 -26   9   4   81.89   33.80
   9  17   4  115.09   22.70
 -17  29  -4  192.28   41.00
  29 -12  -4  258.57   36.50
  29 -12  -4   92.69   36.40
 -29  12   4  123.89   45.40
  12  17   4  119.19   29.80
  12  17   4  144.09   27.80
  29 -18  -4   71.39   30.90
 -11  29  -4   29.60   32.30
 -11  29  -4   56.59   33.20
  18  11   4   27.90   23.50
 -29  18   4   11.70   37.70
 -29  18   4   20.20   40.90
  11 -29   4   27.70   26.20
  18  11   4   34.10   21.30
  26 -18  -4   64.29   23.10
  -8  26  -4   70.69   30.00
  -8  26  -4   66.09   28.70
  18   8   4   38.60   17.90
   8 -26   4   36.20   22.40
 -26  18   4   46.20   33.00
 -26  18   4   44.10   32.10
  -5  23  -4  157.68   29.00
 -23  18   4  145.79   33.40
  18   5   4  177.98   21.60
 -23  18   4  163.08   28.50
  -2  20  -4   56.39   21.50
  -2  20  -4   57.89   24.40
 -20  18   4   63.39   21.50
 -20  18   4   21.00   23.30
   2 -20   4   24.20   17.70
  18   2   4   33.20   10.80
   1  17  -4  202.08   26.30
  17 -18  -4  189.78   24.10
   1  17  -4  175.38   25.00
  18  -1   4  155.28   11.00
  18  -1   4  140.19   13.60
 -17  18   4  194.18   31.00
 -17  18   4  167.88   25.70
   4  14  -4 1137.39   47.10
  14 -18  -4 1138.79   44.50
 -18   4  -4 1166.98   31.50
   4  14  -4 1111.49   50.09
 -14  18   4 1001.50   54.99
  18  -4   4 1057.29   30.20
 -18   7  -4  791.92   27.90
   7  11  -4  827.22   40.10
   7  11  -4  825.62   43.10
  11 -18  -4  871.61   36.20
  -7 -11   4  848.32   44.90
  18  -7   4  819.52   28.40
 -11  18   4  821.92   45.40
 -11  18   4  828.72   41.30
  10   8  -4  744.63   39.20
   8 -18  -4  658.83   29.70
 -18  10  -4  680.53   28.80
  10   8  -4  685.63   39.60
 -10  -8   4  646.94   42.20
  -8  18   4  734.43   39.10
  18 -10   4  697.23   29.00
 -18  13  -4  286.17   22.90
 -18  13  -4  294.37   26.20
  13   5  -4  235.38   28.80
   5 -18  -4  322.67   19.80
  13   5  -4  303.97   27.20
  -5  18   4  361.86   31.80
  18 -13   4  315.57   23.50
 -13  -5   4  321.77   34.20
   2 -18  -4   40.50    9.00
 -18  16  -4   42.90   15.90
  16   2  -4   44.20   17.50
  16   2  -4   22.90   16.70
  -2  18   4   55.29   19.70
  18 -16   4   52.69   14.30
 -16  -2   4   61.89   21.60
  19  -1  -4  -23.50   13.70
  19  -1  -4    0.50   17.90
 -18  19  -4    5.30   17.70
   1  18   4    0.90   17.90
  18 -19   4   -6.30   12.40
 -19   1   4    8.30   20.40
 -18  22  -4   18.20   22.70
  22  -4  -4   22.30   21.40
  22  -4  -4   32.10   17.50
  18 -22   4   21.60   16.40
 -22   4   4   50.89   25.50
   4  18   4   26.60   17.30
  25  -7  -4  129.49   22.80
  25  -7  -4  105.49   28.50
 -18  25  -4  124.79   30.60
   7  18   4  140.29   25.60
  18 -25   4  141.59   24.20
 -25   7   4  159.38   36.20
   7  18   4  104.49   23.10
 -18  28  -4  203.08   38.50
  28 -10  -4  225.28   40.10
  28 -10  -4  185.58   30.50
  10  18   4  236.78   30.60
  18 -28   4  207.48   32.80
  10  18   4  187.98   30.70
 -28  10   4  179.88   43.30
  31 -13  -4  253.97   31.40
  31 -13  -4  394.36   46.90
 -18  31  -4  286.07   47.10
  13  18   4  271.67   41.00
  13  18   4  332.67   36.60
 -31  13   4  234.38   52.39
  -9  28  -4    7.00   29.90
  28 -19  -4  -22.40   23.50
  -9  28  -4   18.30   32.60
  19   9   4    1.30   18.70
  19   9   4    9.30   20.70
 -28  19   4   40.00   37.10
 -28  19   4    5.20   37.00
   9 -28   4   19.70   25.60
  -6  25  -4  149.39   30.60
  25 -19  -4  164.58   30.90
  -6  25  -4  215.58   35.20
  19   6   4  206.58   26.10
 -25  19   4  255.57   38.00
 -25  19   4  128.59   32.90
  19   3   4  299.07   22.00
  19   3   4  264.37   13.20
 -22  19   4  262.67   35.80
 -22  19   4  304.77   34.80
   3 -22   4  372.66   35.50
  19 -19  -4   93.99   19.10
   0  19  -4   75.49   22.60
   0  19  -4   73.49   21.00
  19   0   4  114.09   10.20
 -19  19   4   87.29   25.80
 -19  19   4  124.89   25.30
  19   0   4  103.99   12.30
  16 -19  -4  915.51   40.30
 -19   3  -4  942.11   30.00
   3  16  -4  947.61   48.30
   3  16  -4  977.60   45.40
 -16  19   4  969.40   52.19
 -16  19   4 1036.30   49.10
  19  -3   4  944.81   28.10
 -19   6  -4 1018.60   31.80
  13 -19  -4  894.51   46.30
   6  13  -4 1084.59   49.90
   6  13  -4 1053.39   64.69
 -13  19   4  890.91   52.09
  19  -6   4 1029.30   31.70
 -19   9  -4  502.55   25.60
  10 -19  -4  521.05   28.80
   9  10  -4  465.25   36.70
   9  10  -4  454.05   35.70
 -10  19   4  551.44   38.10
  19  -9   4  493.65   24.20
 -10  19   4  556.34   41.80
   7 -19  -4  142.69   18.10
  12   7  -4  168.78   24.90
 -19  12  -4  153.88   18.70
 -19  12  -4  176.58   17.10
  12   7  -4  103.59   31.70
 -12  -7   4  173.68   32.80
  19 -12   4  156.58   20.50
  -7  19   4  170.28   23.90
  15   4  -4  202.98   26.90
  15   4  -4  133.49   19.30
   4 -19  -4  175.18   18.00
 -19  15  -4  152.68   21.30
 -19  15  -4  163.88   19.20
  -4  19   4  131.09   22.60
 -15  -4   4  153.78   27.70
  19 -15   4  145.39   18.00
  18   1  -4   86.89   19.50
 -19  18  -4   91.29   20.20
  18   1  -4   76.19   20.50
   1 -19  -4   81.09   12.00
  19 -18   4   69.99   15.60
 -18  -1   4   63.49   24.40
  -1  19   4   71.29   21.10
  21  -2  -4   27.50   17.00
  21  -2  -4   33.80   22.70
 -19  21  -4   49.30   22.70
 -21   2   4   66.69   26.40
   2  19   4   53.89   19.50
  19 -21   4   80.49   18.30
  24  -5  -4   30.90   17.40
  24  -5  -4  112.39   28.10
 -19  24  -4   75.19   29.40
  19 -24   4   89.79   22.90
   5  19   4   68.99   22.70
   5  19   4   86.09   23.50
 -24   5   4   83.39   31.70
  27  -8  -4  231.58   36.10
 -19  27  -4  278.97   39.90
  27  -8  -4  319.07   39.30
   8  19   4  208.68   31.00
   8  19   4  228.68   27.80
 -27   8   4  246.28   42.20
  19 -27   4  248.08   35.30
  30 -11  -4   47.10   37.60
 -19  30  -4  115.99   45.50
  30 -11  -4  153.28   32.10
  19 -30   4   53.49   31.50
 -30  11   4  162.18   47.60
  11  19   4  152.38   32.40
  11  19   4   98.09   32.80
  30 -20  -4  -21.90   23.50
 -10  30  -4  -46.20   38.10
 -10  30  -4  -52.39   24.80
 -30  20   4   12.30   39.50
 -30  20   4   62.09   45.00
  20  10   4   22.90   21.10
  10 -30   4  -11.80   27.00
  20  10   4   24.60   26.30
  27 -20  -4  101.79   28.00
  -7  27  -4   23.70   31.80
  -7  27  -4   70.09   33.20
 -27  20   4   69.69   35.60
   7 -27   4   47.00   25.00
  20   7   4    3.70   19.60
 -27  20   4   80.79   37.10
  -4  24  -4  175.98   34.10
  -4  24  -4  152.88   32.70
 -24  20   4  189.28   38.20
  20   4   4  159.28   19.00
  20   4   4  185.28   13.80
 -24  20   4  173.98   31.00
  -1  21  -4  124.59   26.20
 -21  20   4  124.59   27.30
  20   1   4   70.49    9.10
 -21  20   4   50.19   31.60
  20   1   4   89.49   12.70
   2  18  -4    4.50   17.70
  18 -20  -4   28.30   13.80
 -18  20   4  -12.50   20.40
 -18  20   4   -2.50   26.10
  20  -2   4   20.90    7.80
 -20   5  -4  144.59   15.00
  15 -20  -4  134.69   19.50
   5  15  -4  135.59   25.60
 -15  20   4  118.19   27.90
  20  -5   4  157.18   15.50
 -15  20   4  135.59   26.50
   8  12  -4  186.98   28.80
   8  12  -4  200.68   25.80
 -20   8  -4  189.08   21.40
 -12  20   4  193.68   29.70
  20  -8   4  168.58   16.90
 -12  20   4  192.18   25.40
   9 -20  -4  189.78   20.70
  11   9  -4  181.38   25.30
  11   9  -4  216.98   36.30
 -20  11  -4  225.78   23.80
 -11  -9   4  211.18   28.30
  -9  20   4  213.48   31.70
  20 -11   4  224.38   21.70
 -20  14  -4  201.78   22.20
  14   6  -4  190.78   23.50
   6 -20  -4  184.48   19.40
 -20  14  -4  197.88   18.80
  14   6  -4  140.29   23.20
  -6  20   4  249.58   27.80
  20 -14   4  193.98   23.30
 -14  -6   4  175.38   27.30
  17   3  -4  302.87   28.60
 -20  17  -4  315.27   30.10
 -20  17  -4  310.27   35.30
   3 -20  -4  311.77   19.40
  17   3  -4  279.87   31.00
 -17  -3   4  362.86   41.20
  -3  20   4  335.47   36.90
  20 -17   4  262.87   26.60
 -20  20  -4  179.08   26.90
  20   0  -4  133.29   25.80
  20   0  -4  155.18   21.90
   0  20   4  287.87   35.80
 -20   0   4  256.37   34.90
  20 -20   4  283.77   29.10
 -20  23  -4   79.69   27.50
  23  -3  -4   70.49   26.70
  23  -3  -4  126.09   24.40
  20 -23   4   55.59   19.00
 -23   3   4   79.59   29.00
   3  20   4   94.59   22.30
  26  -6  -4  493.95   48.70
  26  -6  -4  493.95   39.30
 -20  26  -4  512.75   57.29
 -26   6   4  581.94   59.69
   6  20   4  542.05   46.60
  20 -26   4  603.64   45.90
   6  20   4  605.94   47.80
  29  -9  -4  124.59   39.90
  29  -9  -4  153.18   32.50
 -20  29  -4   99.19   41.00
   9  20   4  184.38   33.40
  20 -29   4   92.09   24.00
 -29   9   4  211.58   49.90
   9  20   4  117.29   31.40
  -8  29  -4   19.20   30.80
  -8  29  -4   58.79   38.80
   8 -29   4  116.49   32.40
  21   8   4   79.49   24.70
 -29  21   4   86.09   42.40
 -29  21   4   76.99   43.60
  26 -21  -4   53.49   22.60
  -5  26  -4   66.79   35.80
  -5  26  -4   70.59   30.40
 -26  21   4   47.40   29.70
  21   5   4   68.69   11.40
 -26  21   4   73.19   37.60
  21   5   4   39.20   18.30
   5 -26   4  108.19   28.10
  -2  23  -4  164.88   31.30
 -23  21   4  107.69   34.50
  21   2   4  160.58   21.70
  21   2   4  157.38   17.40
 -23  21   4  144.99   30.80
   1  20  -4  112.39   24.70
  20 -21  -4   16.20   14.90
  21  -1   4  105.89   11.40
 -20  21   4  138.49   29.80
 -20  21   4  146.69   28.10
  21  -1   4   84.29   13.00
  17 -21  -4  291.17   27.10
   4  17  -4  283.77   36.60
 -21   4  -4  307.17   22.60
 -17  21   4  356.06   44.50
  21  -4   4  377.66   20.00
 -17  21   4  340.57   38.40
 -21   7  -4   59.49   14.40
  14 -21  -4   87.89   17.10
   7  14  -4   47.80   21.20
   7  14  -4   17.10   24.50
 -14  21   4   74.59   25.00
  21  -7   4   87.49   12.80
 -14  21   4   76.49   21.00
 -21  10  -4  386.26   28.00
  10  11  -4  402.46   39.10
  10  11  -4  461.65   37.00
 -11  21   4  394.16   39.30
  21 -10   4  418.26   24.50
 -10 -11   4  331.57   38.20
 -21  13  -4  323.87   19.20
 -21  13  -4  294.17   30.00
  13   8  -4  344.47   31.00
   8 -21  -4  336.17   24.30
  13   8  -4  446.76   37.00
  13   8  -4  373.36   34.20
  21 -13   4  410.96   28.00
  -8  21   4  371.26   37.40
 -13  -8   4  361.16   39.90
 -21  16  -4  137.39   22.40
   5 -21  -4  144.79   16.70
  16   5  -4  171.88   26.20
  16   5  -4  132.09   20.10
 -21  16  -4  165.48   20.40
  21 -16   4  117.59   25.80
  -5  21   4  144.19   35.30
 -16  -5   4  114.89   25.90
  19   2  -4   11.50   19.60
  19   2  -4   24.70   17.60
   2 -21  -4   24.70    9.20
 -21  19  -4   40.80   22.60
 -21  19  -4   31.30   19.60
 -19  -2   4    9.20   22.90
  21 -19   4   21.90   15.60
  -2  21   4   63.89   23.10
  22  -1  -4   32.20   25.80
  22  -1  -4   24.30   18.30
 -21  22  -4   12.20   43.70
 -22   1   4   59.29   30.90
   1  21   4   48.80   22.90
  21 -22   4   62.19   17.70
  25  -4  -4  292.17   44.20
 -21  25  -4  213.08   36.10
   4  21   4  155.88   28.20
  21 -25   4  213.38   29.00
   4  21   4  202.58   34.00
 -25   4   4  165.48   35.00
 -21  28  -4  190.38   42.40
  28  -7  -4  111.49   34.70
  28  -7  -4  218.88   32.20
   7  21   4  276.47   37.20
 -28   7   4  274.37   48.00
   7  21   4  168.38   39.60
  -6  28  -4   47.40   41.30
  28 -22  -4  -12.70   22.70
  -6  28  -4   65.59   35.90
 -28  22   4  -39.70   38.90
 -28  22   4   48.60   39.70
  22   6   4   48.60   12.40
  22   6   4   51.89   20.70
   6 -28   4   44.90   26.80
  -3  25  -4   82.19   30.20
  -3  25  -4  146.79   33.40
 -25  22   4  128.59   33.90
  22   3   4  213.18   28.50
 -25  22   4  149.88   37.50
  22   3   4  187.88   18.50
   0  22  -4  134.39   29.10
  22   0   4  150.18   16.70
 -22  22   4  247.78   35.00
 -22  22   4  184.98   40.70
  22   0   4  181.98   16.00
 -22   3  -4  205.38   23.60
   3  19  -4  173.48   29.30
 -19  22   4  248.88   31.30
 -19  22   4  342.67   43.90
  22  -3   4  241.48   17.20
  16 -22  -4  223.98   26.10
 -22   6  -4  217.68   23.60
   6  16  -4  239.28   30.10
 -16  22   4  165.58   30.10
 -16  22   4  198.78   34.40
  22  -6   4  162.28   17.80
 -22   9  -4  371.46   27.40
  13 -22  -4  364.56   29.40
   9  13  -4  428.96   38.70
  22  -9   4  336.17   22.70
 -13  22   4  373.16   38.00
 -13  22   4  329.07   43.80
  12  10  -4  149.59   24.90
 -22  12  -4  175.98   21.70
  10 -22  -4  180.38   22.90
  12  10  -4  132.59   24.70
 -12 -10   4  180.38   29.10
  22 -12   4  150.58   19.00
 -10  22   4  178.58   28.60
  15   7  -4   23.10   16.10
 -22  15  -4   31.80   13.20
   7 -22  -4   26.00   12.70
 -22  15  -4   42.90   18.30
 -15  -7   4   13.70   21.50
  -7  22   4   28.60   23.60
  22 -15   4   26.80   14.20
  18   4  -4   14.70   20.00
 -22  18  -4    3.20   22.30
  18   4  -4  -26.90   14.60
   4 -22  -4   14.80   11.20
 -22  18  -4   -5.20   17.70
  22 -18   4   24.30   14.30
 -18  -4   4   43.50   25.90
  -4  22   4   40.40   24.30
  21   1  -4   79.69   28.00
  21   1  -4   81.79   22.10
 -22  21  -4  115.69   26.10
  -1  22   4  101.89   26.30
  22 -21   4   73.59   19.90
 -21  -1   4   67.29   28.60
  24  -2  -4   79.99   24.80
  24  -2  -4   72.79   28.40
 -22  24  -4   76.79   30.70
  22 -24   4  136.29   25.80
 -24   2   4   55.09   33.80
   2  22   4  117.49   26.60
 -22  27  -4  207.18   41.00
  27  -5  -4  183.98   29.00
  27  -5  -4  145.79   33.00
   5  22   4  161.78   32.70
   5  22   4  214.78   33.50
 -27   5   4  213.28   45.10
  22 -27   4  123.99   29.30
 -22  30  -4  102.09   46.10
  30  -8  -4   79.59   31.80
  30  -8  -4   43.90   31.50
   8  22   4  111.19   35.80
 -30   8   4   94.29   55.09
   8  22   4  131.79   38.10
  -4  27  -4    5.80   32.90
  27 -23  -4  -50.69   22.50
  -4  27  -4  -71.19   28.50
 -27  23   4  -21.90   37.60
 -27  23   4   -6.20   38.40
  23   4   4   31.50   11.50
  23   4   4   10.70   18.60
   4 -27   4  -33.60   23.70
  -1  24  -4   62.29   31.00
  -1  24  -4   85.29   37.30
  23   1   4  102.79   12.70
  23   1   4   92.09   15.70
 -24  23   4  164.58   30.60
 -24  23   4    0.60   36.80
  21 -23  -4   49.70   30.00
   2  21  -4   72.19   28.20
 -21  23   4   74.29   33.70
 -21  23   4   13.40   27.50
  23  -2   4   66.19   11.50
 -23   5  -4   45.00   15.10
  18 -23  -4   17.40   15.00
   5  18  -4   44.70   25.30
 -18  23   4   50.79   25.90
 -18  23   4   48.20   30.70
 -23   8  -4  246.68   26.80
  15 -23  -4  243.98   29.40
   8  15  -4  244.38   29.90
 -15  23   4  319.97   34.80
 -15  23   4  239.68   32.60
  23  -8   4  198.88   20.50
  11  12  -4   87.19   23.70
  12 -23  -4   88.99   17.60
 -23  11  -4   76.89   18.70
  11  12  -4   95.69   24.80
  23 -11   4  107.99   16.10
 -11 -12   4  112.39   29.60
 -12  23   4  102.39   27.10
   9 -23  -4   79.39   15.90
  14   9  -4   71.89   20.40
  14   9  -4   93.69   23.30
 -23  14  -4   86.49   19.90
  14   9  -4  110.59   27.20
 -23  14  -4   81.29   11.10
  -9  23   4  109.79   27.40
  23 -14   4  102.09   18.10
 -14  -9   4   74.89   27.80
   6 -23  -4  146.89   18.00
  17   6  -4  153.88   26.30
 -23  17  -4  173.08   21.90
  17   6  -4  152.08   23.00
 -23  17  -4  144.99   24.80
  23 -17   4  143.59   20.70
  -6  23   4  127.99   30.00
 -17  -6   4  200.78   33.20
 -23  20  -4   70.79   23.60
 -23  20  -4  106.79   27.30
  20   3  -4   82.19   24.30
  20   3  -4   85.29   22.40
   3 -23  -4   69.99   12.70
 -20  -3   4   69.29   29.30
  23 -20   4   75.19   20.00
  -3  23   4  103.49   27.30
  23   0  -4  499.65   42.80
  23   0  -4  447.96   48.60
 -23  23  -4  421.66   45.50
   0  23   4  433.36   44.80
 -23   0   4  420.76   55.59
  23 -23   4  407.46   40.20
  26  -3  -4  473.95   57.59
  26  -3  -4  371.66   46.40
 -23  26  -4  514.85   61.29
  23 -26   4  485.35   44.10
   3  23   4  456.55   52.49
   3  23   4  364.06   40.70
 -26   3   4  434.96   53.69
  29  -6  -4  364.36   48.10
  29  -6  -4  187.18   37.60
 -23  29  -4  219.98   48.80
   6  23   4  342.37   44.50
  23 -29   4  188.08   36.90
   6  23   4  232.38   39.10
 -29   6   4  262.57   52.99
  -5  29  -4   61.29   24.10
 -29  24   4   32.20   46.40
   5 -29   4   59.99   29.20
  24   5   4   25.70   23.50
  24   5   4   35.50   10.00
 -29  24   4   49.99   35.70
  26 -24  -4  106.39   27.60
  -2  26  -4  191.58   39.60
  -2  26  -4  131.39   36.40
 -26  24   4  154.38   43.70
  24   2   4  177.58   20.40
  24   2   4  134.49   14.30
 -26  24   4  124.09   39.60
   1  23  -4   22.80   31.50
  23 -24  -4  -23.80   18.50
 -23  24   4   95.49   39.30
  24  -1   4   75.79   13.20
  24  -1   4   53.59   15.40
 -23  24   4   76.49   30.80
   4  20  -4   38.50   29.20
 -20  24   4  124.59   30.60
  24  -4   4  167.88   20.10
 -20  24   4  110.69   38.60
 -24   7  -4   57.69   17.10
  17 -24  -4   -3.10   16.30
   7  17  -4   41.90   24.50
 -17  24   4   77.59   32.10
  24  -7   4   63.39   14.50
 -17  24   4   96.09   34.30
 -24  10  -4   36.60   17.90
  14 -24  -4   35.90   15.90
  10  14  -4   59.89   24.90
  10  14  -4   23.40   20.60
  24 -10   4   79.29   15.30
 -14  24   4   72.49   29.90
 -14  24   4   60.69   24.00
  11 -24  -4  161.28   20.80
  13  11  -4  131.49   25.20
 -24  13  -4  153.78   23.10
  13  11  -4  173.18   30.30
 -13 -11   4   90.09   27.90
  24 -13   4  127.19   19.30
 -11  24   4  159.98   29.60
   8 -24  -4  331.77   28.40
  16   8  -4  387.36   35.40
 -24  16  -4  272.07   28.80
  16   8  -4  306.37   37.20
  16   8  -4  242.28   32.00
 -24  16  -4  321.87   25.30
 -16  -8   4  278.27   36.50
  24 -16   4  306.07   30.60
  -8  24   4  311.87   36.20
  19   5  -4  178.28   31.10
 -24  19  -4  169.48   28.20
 -24  19  -4  175.88   25.00
   5 -24  -4  175.18   22.70
  19   5  -4  121.79   24.40
  -5  24   4  160.28   32.10
 -19  -5   4  200.28   33.30
  24 -19   4  155.48   21.70
  22   2  -4   17.00   27.40
  22   2  -4  -11.50   20.10
 -24  22  -4    0.00   24.90
 -24  22  -4    6.50   31.00
  -2  24   4   26.60   26.30
  24 -22   4  -25.30   16.80
 -22  -2   4    2.30   31.60
 -24  25  -4  157.28   33.20
  25  -1  -4  109.99   35.70
  25  -1  -4  240.98   35.40
  24 -25   4  161.68   28.60
   1  24   4  192.98   35.10
 -25   1   4  204.98   42.30
 -24  28  -4  185.58   42.40
  28  -4  -4  127.29   35.90
   4  24   4   95.79   34.10
  24 -28   4   86.19   21.20
 -28   4   4   94.99   48.70
   4  24   4   95.09   34.60
  -3  28  -4  148.39   36.70
 -28  25   4  107.89   45.70
 -28  25   4   62.29   39.20
  25   3   4  109.59   22.50
   0  25  -4  130.49   40.40
  25 -25  -4   92.89   24.80
   0  25  -4   32.00   32.90
 -25  25   4   86.29   41.80
 -25  25   4  129.09   37.10
  25   0   4  110.19   15.30
  25   0   4  114.29   18.90
   3  22  -4  169.18   38.20
 -25   3  -4  105.89   19.10
  22 -25  -4   93.89   24.00
 -22  25   4  139.59   38.80
 -22  25   4  105.29   36.50
  25  -3   4  133.69   16.20
   6  19  -4  172.98   32.00
 -25   6  -4  211.38   26.40
 -19  25   4  212.58   34.30
 -19  25   4  227.28   41.70
  25  -6   4  234.68   24.10
   9  16  -4   26.30   25.30
 -25   9  -4   22.30   17.40
  16 -25  -4  -17.60   15.70
   9  16  -4    5.80   23.80
  25  -9   4   25.70   13.20
 -16  25   4   21.80   31.30
 -16  25   4    9.90   23.80
  13 -25  -4   39.60   15.90
  12  13  -4   59.89   29.10
  12  13  -4   41.60   25.50
 -13  25   4   23.40   27.30
  25 -12   4   21.30   14.30
  10 -25  -4  177.98   21.60
  15  10  -4  157.98   33.60
 -25  15  -4  201.58   26.70
  15  10  -4  211.18   32.50
  15  10  -4  192.08   26.40
 -15 -10   4  138.19   31.20
  25 -15   4  171.68   22.80
 -10  25   4  163.88   32.60
 -25  18  -4  107.99   19.10
  18   7  -4   78.29   27.30
   7 -25  -4   64.49   17.20
 -25  18  -4   44.30   24.50
  18   7  -4   94.89   23.10
  25 -18   4   19.70   17.40
  -7  25   4   55.29   31.30
 -18  -7   4   15.40   29.50
 -25  21  -4  282.97   30.50
  21   4  -4  249.18   37.60
   4 -25  -4  261.77   23.40
  21   4  -4  307.47   33.70
 -25  21  -4  303.07   36.30
  -4  25   4  286.57   37.40
 -21  -4   4  283.67   41.60
  25 -21   4  240.98   28.80
 -25  24  -4  240.48   39.10
  24   1  -4  134.79   35.60
 -25  24  -4  221.98   35.20
  -1  25   4  275.97   35.30
  25 -24   4  199.38   29.20
 -24  -1   4  252.27   45.80
 -25  27  -4  130.99   37.80
  27  -2  -4   87.09   31.40
  27  -2  -4  106.29   39.30
 -25  27  -4  154.68   44.50
  25 -27   4  129.09   27.00
 -27   2   4  116.19   45.20
   2  25   4  122.29   36.20
   2  25   4  123.09   39.50
  -1  27  -4  -15.90   40.80
 -27  26   4  -38.80   39.10
  26   1   4   46.40   19.10
  26   1   4   -1.10   12.50
 -27  26   4  -25.10   41.00
   2  24  -4   24.00   34.50
   2  24  -4   43.40   34.50
  24 -26  -4   14.60   22.60
 -24  26   4   95.49   39.20
 -24  26   4   46.90   43.80
  26  -2   4   49.80   14.40
   5  21  -4  120.29   32.20
   5  21  -4  117.09   35.80
  21 -26  -4   93.59   24.50
 -26   5  -4   62.69   19.40
 -21  26   4   87.89   44.70
 -21  26   4   89.39   33.10
  26  -5   4  111.79   17.40
 -26   8  -4    2.00   16.90
   8  18  -4   27.60   29.70
   8  18  -4   27.60   27.30
  26  -8   4   22.70   15.20
 -18  26   4  -20.30   32.80
 -18  26   4   12.50   34.40
  11  15  -4   11.70   24.90
 -26  11  -4   24.60   19.10
  11  15  -4   17.70   30.50
  15 -26  -4  -18.50   15.50
  26 -11   4   22.40   14.20
 -15  26   4   33.20   26.50
 -15  26   4   18.20   32.40
 -26  14  -4   18.70   20.90
  14  12  -4   -4.60   24.50
  12 -26  -4   11.00   16.70
  14  12  -4   -5.00   32.80
  26 -14   4  -13.90   14.80
 -12  26   4   27.20   29.00
 -14 -12   4   16.60   30.20
 -26  17  -4   29.80   23.60
  17   9  -4    2.60   22.70
  17   9  -4   39.80   22.10
   9 -26  -4    8.10   17.30
 -26  17  -4   31.30   13.60
  17   9  -4   40.50   31.20
  26 -17   4   40.20   19.10
  -9  26   4   17.90   32.60
 -17  -9   4    6.20   30.80
  20   6  -4  562.04   52.29
   6 -26  -4  583.64   33.30
 -26  20  -4  703.53   41.40
 -26  20  -4  628.64   50.59
  20   6  -4  522.95   44.60
  -6  26   4  529.25   59.69
  26 -20   4  567.64   41.80
 -20  -6   4  485.05   59.09
  23   3  -4  326.37   44.70
  23   3  -4  388.86   45.20
 -26  23  -4  297.27   40.80
 -26  23  -4  391.26   47.00
  -3  26   4  438.66   54.89
  26 -23   4  385.16   42.30
 -23  -3   4  492.45   64.79
  26   0  -4  202.98   42.80
 -26  26  -4  192.18   37.80
  26   0  -4  240.78   36.70
 -26  26  -4  256.57   44.70
  26 -26   4  259.97   36.60
 -26   0   4  287.17   53.79
   0  26   4  310.87   44.00
   1  26  -4   63.89   42.50
  26 -27  -4  -25.20   29.50
  27  -1   4  109.19   20.50
  27  -1   4  100.89   17.40
 -26  27   4  183.78   38.80
 -26  27   4   54.69   43.90
   4  23  -4   22.00   34.70
  23 -27  -4   51.59   26.40
   4  23  -4    4.00   33.10
 -27   4  -4   11.80   18.30
 -23  27   4    1.30   38.00
 -23  27   4   22.20   42.40
  27  -4   4   32.10   16.20
   7  20  -4   32.30   29.70
   7  20  -4   13.00   33.80
 -27   7  -4   15.60   18.60
  20 -27  -4    5.60   21.60
 -20  27   4  -29.50   36.40
  27  -7   4    3.60   15.10
 -20  27   4   50.99   33.30
  10  17  -4   99.09   33.60
 -27  10  -4   58.99   20.20
  10  17  -4  134.59   37.90
 -17  27   4  123.99   40.10
  27 -10   4  118.29   20.10
 -17  27   4   54.39   30.20
 -27  13  -4  137.19   23.60
  13  14  -4  118.69   36.20
  13  14  -4   91.99   30.10
 -14  27   4  105.59   36.00
 -14  27   4  102.39   35.50
  27 -13   4  101.59   19.90
  16  11  -4   60.19   24.00
  16  11  -4  145.09   34.50
  16  11  -4  107.99   37.10
 -27  16  -4   82.89   25.40
  11 -27  -4   91.39   20.30
 -11  27   4   46.40   33.10
  27 -16   4  128.79   22.20
 -16 -11   4   78.19   32.10
 -27  19  -4  103.79   29.20
  19   8  -4  116.69   39.60
 -27  19  -4   94.49   19.20
  19   8  -4   96.39   26.50
  19   8  -4   76.39   33.40
  27 -19   4   29.80   21.80
  -8  27   4  125.69   38.70
 -19  -8   4   44.60   35.10
  22   5  -4  139.59   29.50
 -27  22  -4  107.39   27.50
 -27  22  -4  126.09   34.30
   5 -27  -4  102.59   17.90
  22   5  -4   89.39   34.90
  27 -22   4  122.99   28.10
  -5  27   4   55.19   33.80
 -22  -5   4  114.89   41.80
  25   2  -4   90.29   31.30
 -27  25  -4   42.50   29.40
 -27  25  -4   35.70   38.50
  25   2  -4   23.20   34.40
  -2  27   4   36.70   34.10
  27 -25   4   63.99   28.30
 -25  -2   4  107.29   41.20
   3  25  -4  107.59   42.80
  25 -28  -4  198.08   37.80
 -25  28   4  114.99   42.90
  28  -3   4  132.39   19.40
 -25  28   4  175.78   40.10
  22 -28  -4   54.99   26.20
 -28   6  -4    6.60   19.10
   6  22  -4  -12.60   37.80
   6  22  -4   65.99   30.90
 -22  28   4   52.09   49.30
  28  -6   4   40.50   17.50
 -22  28   4    4.30   36.20
 -28   9  -4   52.39   20.90
   9  19  -4   13.90   37.30
   9  19  -4  -21.60   30.00
  19 -28  -4   57.49   23.10
 -19  28   4   70.39   42.00
  28  -9   4   -8.60   16.90
 -19  28   4   31.30   39.80
 -28  12  -4  120.69   24.90
  12  16  -4  129.29   35.10
  12  16  -4   83.99   39.60
 -16  28   4  116.59   43.30
  28 -12   4  118.89   20.50
 -16  28   4  204.58   38.70
  15  13  -4  348.27   45.20
 -28  15  -4  249.78   30.90
  15  13  -4  272.67   43.60
  28 -15   4  273.17   33.60
 -13  28   4  261.87   39.90
  18  10  -4  140.29   31.80
  18  10  -4  101.39   37.90
 -28  18  -4  141.69   29.90
  18  10  -4  148.79   29.90
  10 -28  -4  130.09   22.80
 -28  18  -4  149.19   17.60
 -18 -10   4  123.19   38.60
 -10  28   4  112.89   42.30
  28 -18   4  169.28   26.90
 -28  21  -4  166.38   26.10
  21   7  -4  193.08   34.20
   7 -28  -4  239.98   31.40
  21   7  -4  151.98   36.50
 -28  21  -4   95.89   35.70
  -7  28   4  185.88   44.30
 -21  -7   4  210.28   46.10
  28 -21   4  190.98   31.20
 -28  24  -4  261.77   37.90
  24   4  -4  231.98   38.40
  24   4  -4  216.18   42.40
 -28  24  -4  261.57   40.50
  -4  28   4  316.87   43.90
  28 -24   4  201.38   31.90
 -24  -4   4  271.37   49.00
 -29   5  -4   22.70   17.50
   5  24  -4    4.40   45.70
  24 -29  -4   58.69   29.90
  29  -5   4   10.10   18.10
 -24  29   4  -34.70   28.10
 -24  29   4  -37.30   26.90
   8  21  -4   -1.20   23.90
  21 -29  -4    6.20   26.80
   8  21  -4   32.10   44.30
 -29   8  -4   29.60   19.90
  29  -8   4  -18.40   19.60
 -21  29   4   20.50   40.40
 -21  29   4  -14.70   46.70
 -29  11  -4   49.99   24.00
  18 -29  -4   23.60   23.80
  11  18  -4  -24.10   39.80
  11  18  -4   21.60   34.00
 -18  29   4   68.09   43.70
  29 -11   4   37.60   19.30
 -18  29   4   13.00   35.10
  14  15  -4   57.69   35.30
 -29  14  -4   55.49   24.30
  14  15  -4   66.69   41.20
 -15  29   4   47.50   39.50
 -15  29   4   61.69   39.30
  29 -14   4   20.40   19.70
  12 -29  -4    1.70   19.60
  17  12  -4   29.70   29.90
 -29  17  -4  108.49   28.70
  17  12  -4   88.69   41.10
  17  12  -4   57.19   28.50
 -12  29   4   46.70   39.90
  29 -17   4  124.69   25.40
  20   9  -4  273.77   42.50
  20   9  -4  193.18   43.60
 -29  20  -4  175.78   20.00
  20   9  -4  153.88   33.20
   9 -29  -4  212.08   25.80
  29 -20   4  225.38   32.40
 -20  -9   4  202.78   46.50
  -9  29   4  250.97   48.10
  23   6  -4  171.88   35.30
   6 -29  -4  183.58   22.80
  23   6  -4   97.79   37.60
 -29  23  -4  202.78   39.60
  -6  29   4  205.68   45.90
  29 -23   4  233.88   33.90
 -23  -6   4  145.89   51.79
 -30  10  -4   20.60   21.40
  20 -30  -4  -21.10   24.70
  10  20  -4  -17.90   42.40
  10  20  -4   -9.60   32.40
 -20  30   4  -10.00   38.20
  30 -10   4  -36.10   20.10
 -20  30   4  -68.39   39.70
 -30  13  -4   82.59   25.40
  17 -30  -4   86.39   26.00
  13  17  -4   27.50   31.30
  13  17  -4   37.70   43.70
 -17  30   4   85.39   40.70
  30 -13   4   30.50   20.50
 -17  30   4   17.00   48.10
 -30  16  -4  159.48   31.50
  16  14  -4  179.98   45.20
  16  14  -4  184.88   38.80
 -14  30   4  116.99   40.80
  30 -16   4  199.18   29.60
  19  11  -4  106.39   43.40
 -30  19  -4  153.18   33.30
  19  11  -4   83.89   33.80
  11 -30  -4  131.19   25.20
  19  11  -4  247.58   39.00
  30 -19   4  187.58   31.90
 -11  30   4   82.09   48.70
 -19 -11   4  134.89   44.10
  22   8  -4   69.69   42.40
   8 -30  -4   55.09   22.20
 -30  22  -4   54.69   18.60
  22   8  -4   31.30   29.50
  22   8  -4   43.10   23.90
 -30  22  -4  121.79   34.50
  30 -22   4   35.40   28.10
 -22  -8   4   53.59   43.00
  -8  30   4  124.69   48.80
  15  16  -4  125.69   46.60
  15  16  -4  276.57   53.09
  16 -31  -4  263.87   32.50
 -31  15  -4  212.08   32.20
 -16  31   4  211.48   41.60
  31 -15   4  273.77   31.30
 -16  31   4  234.48   49.30
  18  13  -4  566.74   74.59
 -31  18  -4  397.86   50.69
  31 -18   4  460.55   51.19
 -13  31   4  399.56   54.59
   1   0  -5   22.30    8.40
   1   0  -5    7.60    8.80
   0  -1  -5    8.40    6.20
   0  -1  -5   21.60    8.10
  -1   1  -5   27.20    8.00
   0  -1  -5   10.10    7.50
   1   0  -5   17.50    8.30
  -1   1  -5   17.00    7.90
  -1   1  -5   20.90    7.70
   1  -1   5   12.00    8.70
  -1   0   5    7.10    9.20
   0   1   5   23.20   10.00
   0   1   5   13.00    8.60
   1  -1   5   26.80   10.20
  -1   0   5   14.10    9.60
   2  -2  -5   65.89   10.90
   0   2  -5   50.29   10.20
   2  -2  -5   61.89   11.20
  -2   0  -5   47.60    7.20
  -2   0  -5   46.00    8.70
   2  -2  -5   48.60    8.70
   0   2  -5   53.99   10.40
  -2   0  -5   57.09    8.60
   0   2  -5   50.99    9.40
   2   0   5   56.69    9.60
   0  -2   5   47.70   10.50
  -2   2   5   59.99   11.50
  -2   2   5   63.59   11.80
   2   0   5   63.59   11.40
  -1  -2  -5   32.70    7.90
   3  -1  -5   39.50   11.00
  -1  -2  -5   37.20    7.10
  -2   3  -5   38.50    8.80
  -1  -2  -5   32.90    7.80
  -2   3  -5   39.20    9.40
   3  -1  -5   31.90   10.10
  -2   3  -5   43.90    8.80
   3  -1  -5   39.10   10.10
   1   2   5   45.70   10.40
  -3   1   5   39.30   10.70
   1   2   5   35.40    9.40
   2  -3   5   33.30    9.50
   2  -3   5   54.99   10.50
  -3   1   5   34.70   11.50
   4  -3  -5  182.58   17.50
  -1   4  -5  178.88   16.20
  -1   4  -5  198.38   16.70
   4  -3  -5  170.68   14.70
  -3  -1  -5  181.68   11.20
  -3  -1  -5  181.28   11.70
  -3  -1  -5  194.48   11.80
  -1   4  -5  175.78   16.70
  -4   3   5  198.88   19.80
   1  -4   5  234.38   18.40
   3   1   5  220.48   14.80
   3   1   5  237.18   16.50
  -4   3   5  232.18   21.40
  -3   2  -5   34.40    7.80
   2   1  -5   19.90    9.70
   1  -3  -5   21.80    8.10
   2   1  -5   22.40    9.80
  -3   2  -5   17.90    7.40
   2   1  -5   25.00    9.10
  -3   2  -5   15.70    7.00
   1  -3  -5   26.50    8.60
   1  -3  -5    6.10    6.60
   3  -2   5   46.20    8.90
  -1   3   5   48.50   12.00
  -2  -1   5   44.40   11.80
  -1   3   5   36.20   10.40
   3  -2   5   38.60    8.80
  -3   5  -5  309.17   19.30
  -2  -3  -5  363.06   16.20
  -3   5  -5  324.37   18.20
   5  -2  -5  341.67   20.70
  -3   5  -5  323.27   18.70
  -2  -3  -5  321.37   13.10
   5  -2  -5  316.27   21.60
   3  -5   5  269.77   19.00
  -5   2   5  254.17   23.00
  -5   2   5  265.27   21.50
   3  -5   5  303.37   19.20
   2   3   5  270.27   17.00
   2   3   5  262.17   17.90
   6  -4  -5  897.01   33.60
  -2   6  -5  930.31   32.20
  -2   6  -5  864.01   31.80
   6  -4  -5  873.31   31.40
  -2   6  -5  907.61   31.70
   4   2   5  976.90   29.40
   2  -6   5  957.00   33.20
  -6   4   5  945.21   35.40
   2  -6   5  950.20   33.60
   4   2   5  955.90   25.70
  -6   4   5  934.71   37.30
   3  -4  -5  318.27   17.70
   1   3  -5  311.07   19.50
  -4   1  -5  272.87   12.80
  -4   1  -5  290.27   14.10
   1   3  -5  315.77   20.40
   3  -4  -5  316.87   19.30
  -4   1  -5  319.87   13.90
   1   3  -5  268.17   19.30
   4  -1   5  357.86   16.20
  -1  -3   5  331.17   22.50
   4  -1   5  366.06   17.70
  -3   4   5  360.16   22.30
  -3   4   5  350.96   22.10
   4  -1   5  375.06   19.70
  -4   4  -5   18.80    8.00
  -4   4  -5   30.10    7.90
   4   0  -5   22.20    8.90
  -4   4  -5   22.90    7.70
   4   0  -5   14.40    8.70
   0  -4  -5   28.20    6.70
   0  -4  -5   26.70    7.70
   4  -4   5   27.70    8.90
   4  -4   5   31.60    9.10
   0   4   5   36.30    9.80
   0   4   5   29.60   10.40
  -4   0   5   26.30   12.20
  -4   0   5   41.50   12.50
   7  -3  -5  668.13   28.80
  -4   7  -5  653.93   27.00
   7  -3  -5  653.33   30.50
  -4   7  -5  633.14   26.00
   3   4   5  732.43   25.30
   3   4   5  659.63   23.50
  -7   3   5  764.22   33.00
  -7   3   5  651.43   32.30
   4  -7   5  642.14   27.70
  -3   8  -5  503.85   24.90
   8  -5  -5  443.96   26.30
   8  -5  -5  488.95   24.40
  -3   8  -5  517.95   25.40
  -8   5   5  554.74   30.70
   5   3   5  542.95   21.40
  -8   5   5  555.04   29.80
   5   3   5  541.95   18.10
   3  -8   5  549.15   27.00
   5  -5  -5   33.70    8.80
   0   5  -5   37.40   10.20
   0   5  -5   34.40   11.00
   0   5  -5   37.00   10.70
   5  -5  -5   50.09   11.00
   0  -5   5   33.80   11.60
   5   0   5   38.00    9.30
  -5   5   5   28.20   11.50
   5   0   5   37.50    6.60
  -5   5   5   42.90   13.60
   5   0   5   46.00    7.90
   3   2  -5  368.56   21.10
   3   2  -5  404.46   22.50
   2  -5  -5  382.66   20.20
  -5   3  -5  368.16   15.50
   2  -5  -5  366.66   17.60
  -5   3  -5  373.06   16.50
  -5   3  -5  362.46   16.70
   3   2  -5  390.46   22.60
  -3  -2   5  319.17   23.30
  -2   5   5  318.07   21.10
   5  -3   5  330.97   17.60
  -2   5   5  359.46   21.70
  -5   6  -5  474.85   20.20
  -5   6  -5  477.65   21.70
  -1  -5  -5  430.36   15.40
   6  -1  -5  418.16   24.00
   6  -1  -5  449.36   25.50
  -5   6  -5  441.16   21.00
   1   5   5  573.74   23.40
  -6   1   5  507.45   28.30
  -6   1   5  608.44   30.50
   5  -6   5  535.55   24.20
   1   5   5  552.04   23.60
  -5   9  -5 1099.19   36.50
   9  -4  -5 1139.99   42.00
   9  -4  -5 1120.19   38.50
  -5   9  -5 1137.79   37.10
  -9   4   5 1160.48   43.10
   4   5   5 1132.79   32.00
  -9   4   5 1174.08   41.50
   4   5   5 1111.79   31.30
   5  -9   5 1148.39   38.80
  -4  10  -5  448.36   25.10
  10  -6  -5  399.36   26.10
  10  -6  -5  411.76   24.00
  -4  10  -5  439.86   25.00
 -10   6   5  459.55   27.90
   6   4   5  407.56   16.60
   6   4   5  427.06   18.40
   4 -10   5  412.16   25.20
 -10   6   5  481.95   31.10
  -1   7  -5  381.16   23.00
   7  -6  -5  386.56   24.20
  -1   7  -5  379.36   23.20
   7  -6  -5  445.56   22.90
   1  -7   5  478.55   25.10
  -7   6   5  535.75   27.70
   6   1   5  498.95   20.80
   1  -7   5  507.25   27.00
   6   1   5  501.15   18.50
  -7   6   5  484.55   29.10
  -6   2  -5  610.34   17.00
  -6   2  -5  563.04   17.00
   2   4  -5  660.23   27.80
   2   4  -5  590.14   27.10
   2   4  -5  653.73   28.40
   4  -6  -5  625.34   24.50
  -6   2  -5  603.74   17.00
   4  -6  -5  631.94   26.70
  -4   6   5  665.43   29.50
   6  -2   5  637.24   22.50
  -4   6   5  586.64   28.30
  -2  -4   5  604.74   29.70
   5   1  -5  730.03   30.00
  -6   5  -5  721.63   24.70
  -6   5  -5  743.83   23.40
   5   1  -5  728.13   31.10
  -6   5  -5  713.23   24.40
   1  -6  -5  744.43   24.00
   1  -6  -5  734.33   22.90
  -5  -1   5  859.91   35.60
  -1   6   5  853.71   31.20
   6  -5   5  860.61   29.30
  -1   6   5  853.11   30.10
  -6   8  -5  337.07   20.60
   8  -2  -5  320.87   24.20
  -6   8  -5  346.47   19.50
   8  -2  -5  337.77   22.60
   6  -8   5  315.77   21.10
  -8   2   5  347.97   26.80
  -8   2   5  364.46   25.30
   2   6   5  336.67   19.50
   2   6   5  366.46   20.80
  -6  11  -5  878.71   33.40
  11  -5  -5  822.72   33.40
  11  -5  -5  892.41   38.50
  -6  11  -5  851.51   34.00
 -11   5   5  817.02   36.00
   5   6   5  825.92   27.30
 -11   5   5  811.52   39.40
   5   6   5  824.12   26.00
   6 -11   5  881.41   34.60
  -5  12  -5 2110.29   59.19
  -5  12  -5 2063.49   58.19
  12  -7  -5 2043.70   62.29
  12  -7  -5 2022.50   58.79
   5 -12   5 1974.50   57.89
   7   5   5 1999.10   44.20
   7   5   5 1953.90   44.90
 -12   7   5 2066.69   60.29
 -12   7   5 2063.49   63.39
  -2   9  -5 1217.68   41.00
   9  -7  -5 1235.68   43.00
  -2   9  -5 1163.88   40.00
   9  -7  -5 1205.88   40.30
  -9   7   5 1297.37   46.20
   7   2   5 1270.57   32.80
   2  -9   5 1266.77   42.60
   7   2   5 1278.47   32.10
  -9   7   5 1315.87   45.30
   1   6  -5  140.99   16.80
   1   6  -5  125.79   15.60
   1   6  -5  137.99   16.50
   6  -7  -5  119.79   15.30
   6  -7  -5  131.79   16.00
   7  -1   5  171.28   12.50
  -1  -6   5  153.18   20.70
   7  -1   5  181.28   15.90
  -6   7   5  172.88   20.60
  -6   7   5  187.18   22.50
   4   3  -5  298.87   21.80
   3  -7  -5  318.67   17.30
   4   3  -5  270.27   21.90
  -7   4  -5  286.97   14.10
  -7   4  -5  299.77   13.90
  -7   4  -5  296.97   12.60
   4   3  -5  269.67   20.70
  -3   7   5  328.97   21.60
  -4  -3   5  323.47   25.30
   7  -4   5  290.47   16.60
  -3   7   5  302.47   22.40
  -7   7  -5   20.70    8.20
   0  -7  -5   22.00    5.50
   0  -7  -5   15.50    6.60
   7   0  -5   21.50   11.30
  -7   7  -5   13.60    8.30
   7   0  -5   19.00    9.90
  -7   7  -5   20.80    8.90
  -7   0   5   17.90   14.20
   0   7   5   13.50   11.00
   0   7   5   15.80    9.50
   7  -7   5   18.80    8.90
  -7  10  -5  178.08   16.80
  10  -3  -5  204.18   22.80
  10  -3  -5  155.18   19.70
  -7  10  -5  165.58   19.10
   3   7   5  169.38   18.80
 -10   3   5  214.28   25.50
   7 -10   5  204.58   19.60
 -10   3   5  199.98   22.90
   3   7   5  186.78   17.70
  13  -6  -5  687.03   35.40
  -7  13  -5  713.53   32.50
  -7  13  -5  734.73   32.80
  13  -6  -5  709.53   32.00
 -13   6   5  759.22   35.90
 -13   6   5  657.63   38.30
   6   7   5  673.93   23.20
   7 -13   5  746.83   33.30
  14  -8  -5  608.94   35.00
  14  -8  -5  677.53   33.10
  -6  14  -5  664.23   33.40
  -6  14  -5  693.93   33.90
   8   6   5  597.34   21.30
   6 -14   5  669.73   33.00
   8   6   5  616.14   19.50
 -14   8   5  668.73   39.30
 -14   8   5  663.93   35.80
  11  -8  -5  485.55   29.50
  -3  11  -5  458.35   27.40
  11  -8  -5  413.36   25.30
  -3  11  -5  441.06   26.90
   8   3   5  468.85   14.80
   8   3   5  464.65   17.20
 -11   8   5  456.25   28.80
   3 -11   5  485.65   27.70
 -11   8   5  481.85   31.50
   0   8  -5   30.90   12.10
   0   8  -5   13.50   10.50
   8  -8  -5   16.20    9.20
   8  -8  -5   27.20   12.50
   8   0   5   22.30    8.30
  -8   8   5   28.00   12.60
   8   0   5   24.00    6.40
   0  -8   5   20.50   14.00
  -8   8   5   15.60   14.20
   5  -8  -5  855.31   29.90
   3   5  -5  859.71   33.50
   3   5  -5  911.41   35.00
   3   5  -5  845.62   34.70
   8  -3   5  893.71   27.60
  -3  -5   5  917.81   37.20
  -5   8   5  931.41   34.70
  -5   8   5  876.41   35.50
   6   2  -5  426.46   24.30
  -8   6  -5  446.86   18.20
   2  -8  -5  415.16   17.20
  -8   6  -5  386.16   18.30
   6   2  -5  434.26   26.70
  -8   6  -5  374.26   21.10
  -6  -2   5  434.26   29.00
   8  -6   5  461.45   21.40
  -2   8   5  488.35   26.00
  -2   8   5  472.05   24.40
   9  -1  -5  707.33   34.10
   9  -1  -5  743.23   32.30
  -8   9  -5  744.53   26.80
  -8   9  -5  755.92   28.50
   1   8   5  760.22   29.20
   1   8   5  729.43   29.70
   8  -9   5  749.42   30.20
  -9   1   5  770.02   36.90
  -8  12  -5 2010.20   55.99
  -8  12  -5 2055.29   56.69
  12  -4  -5 2121.89   64.49
  12  -4  -5 2060.79   60.19
   4   8   5 2095.39   50.69
   8 -12   5 2185.78   60.39
 -12   4   5 2172.78   62.59
 -12   4   5 2158.18   66.49
  -8  15  -5 1274.97   45.70
  15  -7  -5 1168.98   49.30
  -8  15  -5 1202.98   45.20
  15  -7  -5 1202.98   51.29
   8 -15   5 1218.08   45.10
   7   8   5 1230.18   32.40
 -15   7   5 1202.48   53.59
 -15   7   5 1241.08   47.40
  -7  16  -5  481.25   32.00
  -7  16  -5  464.95   31.60
  16  -9  -5  437.26   29.20
  16  -9  -5  433.26   33.50
 -16   9   5  448.96   40.50
   7 -16   5  468.75   30.60
   9   7   5  467.75   16.10
 -16   9   5  393.56   32.70
   9   7   5  426.16   19.00
  13  -9  -5  201.18   26.00
  -4  13  -5  175.28   22.50
  -4  13  -5  190.58   21.20
  13  -9  -5  171.68   20.60
   9   4   5  140.09    8.10
   9   4   5  156.28   10.80
 -13   9   5  158.38   20.20
   9   4   5  162.38   11.20
   4 -13   5  168.38   19.60
 -13   9   5  143.59   22.00
   9   4   5  153.98    8.70
  10  -9  -5  523.95   27.20
  -1  10  -5  504.85   29.00
  10  -9  -5  496.15   30.20
  -1  10  -5  504.25   27.40
 -10   9   5  464.65   31.50
   1 -10   5  409.16   25.80
 -10   9   5  462.65   29.90
   9   1   5  430.96   17.40
   9   1   5  416.56   14.80
   2   7  -5 1011.10   37.80
   7  -9  -5  866.31   32.20
   2   7  -5  910.21   35.80
  -7   9   5 1009.90   37.60
  -2  -7   5 1073.79   41.20
   9  -2   5 1000.10   28.40
  -7   9   5 1036.90   40.90
   4  -9  -5  997.30   31.00
   5   4  -5 1061.69   37.60
  -9   5  -5 1019.90   24.40
   5   4  -5  986.80   37.30
  -9   5  -5  967.60   25.30
   5   4  -5  994.50   38.50
  -5  -4   5 1021.50   40.40
   9  -5   5  987.80   30.80
  -4   9   5 1037.80   38.00
  -4   9   5  987.30   36.60
  -9   8  -5  481.85   21.70
   8   1  -5  533.45   29.50
  -9   8  -5  490.75   22.20
   8   1  -5  504.65   27.10
   1  -9  -5  514.55   17.60
  -9   8  -5  550.54   20.70
   9  -8   5  608.94   26.10
  -1   9   5  586.94   29.20
  -1   9   5  596.44   27.30
  -8  -1   5  643.84   33.50
  -9  11  -5 1260.27   39.20
  11  -2  -5 1306.97   45.00
  -9  11  -5 1243.58   40.20
  11  -2  -5 1216.18   46.80
 -11   2   5 1342.97   46.00
   2   9   5 1285.07   40.60
   9 -11   5 1318.47   43.00
 -11   2   5 1205.48   47.80
   2   9   5 1300.47   38.10
  -9  14  -5  767.62   33.90
  -9  14  -5  770.52   34.30
  14  -5  -5  818.82   41.60
  14  -5  -5  634.94   31.90
 -14   5   5  732.03   42.00
 -14   5   5  703.13   36.50
   5   9   5  723.93   26.30
   9 -14   5  706.83   34.00
  -9  17  -5 1480.45   52.19
  17  -8  -5 1460.25   51.59
  17  -8  -5 1463.65   55.99
  -9  17  -5 1452.75   51.59
   9 -17   5 1358.06   50.59
   8   9   5 1409.36   40.40
   8   9   5 1343.97   34.80
 -17   8   5 1440.16   53.09
  18 -10  -5  670.83   36.10
  -8  18  -5  753.12   40.20
  18 -10  -5  665.83   40.80
  -8  18  -5  641.54   44.40
 -18  10   5  700.83   47.30
 -18  10   5  675.53   46.10
   8 -18   5  705.33   37.80
  10   8   5  715.83   26.70
  10   8   5  675.53   20.40
  -5  15  -5  388.16   29.80
  15 -10  -5  376.66   36.50
  -5  15  -5  392.16   29.20
  10   5   5  416.26   15.50
 -15  10   5  378.76   31.90
 -15  10   5  434.36   35.10
  12 -10  -5  366.56   25.30
  -2  12  -5  374.26   27.60
  12 -10  -5  406.06   29.50
  -2  12  -5  414.46   27.50
  10   2   5  361.96   14.70
 -12  10   5  356.86   28.00
  10   2   5  381.86   12.10
 -12  10   5  379.56   31.30
   2 -12   5  366.26   25.90
   1   9  -5  357.26   26.50
   9 -10  -5  331.17   21.70
   1   9  -5  333.37   25.30
  -9  10   5  302.67   28.70
  -1  -9   5  320.97   27.00
  10  -1   5  274.67   15.00
  -9  10   5  267.97   25.60
   6 -10  -5  676.53   27.20
   4   6  -5  676.43   32.50
   4   6  -5  651.73   30.80
   4   6  -5  720.33   33.30
  -6  10   5  686.93   33.30
  -4  -6   5  759.92   35.30
  -6  10   5  733.63   34.30
  10  -4   5  712.63   24.10
   7   3  -5   70.59   14.50
 -10   7  -5   98.39   13.10
   7   3  -5   62.19   12.40
 -10   7  -5   86.99   11.10
   3 -10  -5   89.79   11.30
  10  -7   5   80.19   11.10
  -3  10   5   83.89   15.30
  -3  10   5   89.89   14.20
  -7  -3   5   98.29   18.80
  10   0  -5   28.90   13.30
   0 -10  -5   19.00    5.60
  10   0  -5   40.20   12.40
   0 -10  -5   27.10    4.40
 -10  10  -5   26.40    9.00
 -10  10  -5   38.20   11.10
   0  10   5   34.20   12.80
 -10   0   5    7.20   13.70
   0  10   5   24.10   14.50
  10 -10   5   30.70   10.10
  13  -3  -5  226.68   26.80
 -10  13  -5  200.38   20.90
  13  -3  -5  253.27   24.00
 -10  13  -5  221.38   23.30
 -13   3   5  260.57   26.70
   3  10   5  207.88   20.40
  10 -13   5  233.48   23.00
 -13   3   5  264.57   31.20
  16  -6  -5   61.19   18.90
 -10  16  -5   58.49   16.10
 -10  16  -5   52.49   15.60
  16  -6  -5   24.00   10.90
   6  10   5   52.29   11.20
 -16   6   5   30.00   21.90
 -16   6   5   39.30   18.50
 -10  19  -5  269.47   34.40
 -10  19  -5  278.47   34.00
  19  -9  -5  279.77   27.10
   9  10   5  269.87   17.70
  10 -19   5  300.07   29.40
   9  10   5  249.97   20.00
 -19   9   5  239.08   31.00
  20 -11  -5  278.27   28.70
  -9  20  -5  351.06   34.90
  -9  20  -5  312.87   33.90
  11   9   5  362.26   18.00
 -20  11   5  374.86   43.90
 -20  11   5  396.86   36.80
  11   9   5  333.67   21.70
  -6  17  -5  346.87   31.50
  17 -11  -5  319.17   32.10
  17 -11  -5  382.16   29.10
  -6  17  -5  369.16   30.70
  11   6   5  318.37   16.50
   6 -17   5  348.07   28.40
 -17  11   5  283.77   55.89
 -17  11   5  300.87   31.50
  14 -11  -5  385.76   30.70
  -3  14  -5  353.56   28.40
  14 -11  -5  375.86   26.60
  -3  14  -5  347.77   28.40
 -14  11   5  311.87   31.60
   3 -14   5  373.26   27.10
 -14  11   5  366.46   33.40
   0  11  -5   -8.30   11.30
  11 -11  -5  -21.90    8.20
   0  11  -5   -2.10   14.00
 -11  11   5   -8.60   13.90
  11   0   5    4.20    3.90
 -11  11   5   -7.60   13.70
  11   0   5    6.10    7.30
   3   8  -5  481.65   29.00
   8 -11  -5  479.15   24.80
   3   8  -5  511.45   29.80
  11  -3   5  497.15   18.60
  -8  11   5  477.55   32.00
  -3  -8   5  503.35   32.10
  -8  11   5  559.84   30.80
   6   5  -5 1144.19   41.30
 -11   6  -5 1148.89   26.50
   6   5  -5 1146.39   43.40
   6   5  -5 1129.49   41.80
 -11   6  -5 1188.08   25.70
   5 -11  -5 1174.78   34.90
 -11   6  -5 1107.09   25.60
  -6  -5   5 1080.09   43.40
  -5  11   5 1113.19   40.30
  11  -6   5 1067.69   32.70
  -5  11   5 1081.79   41.20
 -11   9  -5  826.32   26.10
 -11   9  -5  795.42   27.70
   2 -11  -5  759.62   23.50
   9   2  -5  823.22   38.10
   9   2  -5  721.63   32.90
  -2  11   5  833.12   36.20
  -2  11   5  833.22   33.60
  -9  -2   5  878.81   40.80
  11  -9   5  848.42   31.40
 -11  12  -5  796.32   30.80
 -11  12  -5  861.91   32.50
  12  -1  -5  861.61   36.60
  12  -1  -5  788.32   38.90
  11 -12   5  839.12   34.30
   1  11   5  847.92   32.80
 -12   1   5  879.11   43.00
  15  -4  -5 1353.66   76.89
 -11  15  -5 1738.43   52.29
 -11  15  -5 1696.73   52.39
 -15   4   5 1635.74   62.59
   4  11   5 1521.35   43.40
  11 -15   5 1630.14   53.19
 -15   4   5 1655.93   55.19
 -11  18  -5 1019.00   44.40
  18  -7  -5 1008.90   42.60
  18  -7  -5  931.41   45.80
 -11  18  -5 1005.70   44.00
   7  11   5 1071.59   32.80
  11 -18   5 1047.10   44.90
 -18   7   5 1085.39   48.10
 -18   7   5 1044.90   53.39
   7  11   5 1003.80   36.10
 -11  21  -5  160.18   25.70
  21 -10  -5  191.88   24.10
 -11  21  -5  158.18   23.80
 -21  10   5  137.29   30.00
 -21  10   5  128.49   26.60
  10  11   5   98.89   15.60
  10  11   5  113.39   14.20
 -10  22  -5  137.89   25.40
 -10  22  -5  147.49   26.20
  22 -12  -5  184.48   25.10
  12  10   5  100.89   16.80
 -22  12   5  158.78   29.00
 -22  12   5  159.38   34.40
  12  10   5  140.39   18.00
  -7  19  -5  164.68   24.70
  -7  19  -5  129.99   21.70
 -19  12   5  163.08   24.50
 -19  12   5  129.39   27.10
  12   7   5  140.59   15.80
  16 -12  -5  155.38   21.30
  -4  16  -5  128.39   20.10
  -4  16  -5   98.19   20.40
  16 -12  -5  158.18   23.90
 -16  12   5  113.39   21.50
  12   4   5  133.79    9.20
   4 -16   5  176.78   23.20
 -16  12   5  111.79   23.80
  -1  13  -5   23.10   15.00
  -1  13  -5   45.80   16.20
  13 -12  -5   17.30   11.90
  12   1   5   41.20    7.00
  12   1   5   30.90    4.50
   1 -13   5   48.80   13.40
 -13  12   5   44.10   19.60
 -13  12   5   57.49   16.40
  10 -12  -5  314.97   22.70
   2  10  -5  367.46   28.60
   2  10  -5  354.66   27.70
 -10  12   5  285.27   30.90
  12  -2   5  323.37   14.10
  -2 -10   5  316.97   28.90
 -10  12   5  342.07   27.40
   5   7  -5 1833.32   56.19
   7 -12  -5 1809.72   50.49
   5   7  -5 1869.71   56.09
   5   7  -5 1909.41   59.19
  12  -5   5 1892.61   47.20
  -7  12   5 1936.91   58.89
  -5  -7   5 1960.90   60.59
  -7  12   5 1935.81   57.39
 -12   8  -5 1795.22   48.30
   4 -12  -5 1927.81   48.20
   8   4  -5 1996.80   61.09
 -12   8  -5 2002.00   44.70
 -12   8  -5 1868.41   44.40
   8   4  -5 1949.51   57.69
  12  -8   5 2152.08   54.49
  -4  12   5 2066.09   60.99
  -8  -4   5 2150.68   65.69
  -4  12   5 2106.09   58.89
 -12  11  -5  650.33   25.50
   1 -12  -5  609.34   18.50
  11   1  -5  638.84   32.00
  11   1  -5  622.54   34.80
 -12  11  -5  625.84   27.70
  -1  12   5  554.34   32.60
 -11  -1   5  614.44   38.00
  12 -11   5  607.14   28.40
  -1  12   5  582.64   29.90
  14  -2  -5 1272.57   48.10
 -12  14  -5 1238.18   42.40
  14  -2  -5 1148.39   56.49
   2  12   5 1256.87   40.30
 -14   2   5 1251.37   54.49
  12 -14   5 1273.87   45.10
  17  -5  -5 1605.64   60.39
 -12  17  -5 1480.85   52.29
  17  -5  -5 1306.67   49.60
   5  12   5 1547.95   43.10
  12 -17   5 1496.95   53.19
 -17   5   5 1454.15   62.19
 -17   5   5 1531.75   55.39
  20  -8  -5  442.96   32.50
 -12  20  -5  354.76   37.30
 -20   8   5  373.96   42.00
   8  12   5  384.46   27.10
  12 -20   5  415.56   33.10
 -20   8   5  366.16   48.20
   8  12   5  377.66   23.40
 -12  23  -5  446.76   40.70
 -12  23  -5  350.76   42.30
  23 -11  -5  437.06   36.20
  23 -11  -5  487.05   45.50
  11  12   5  330.77   28.10
  11  12   5  383.46   24.50
 -23  11   5  401.36   47.80
 -23  11   5  365.66   48.30
  24 -13  -5  132.59   29.70
 -11  24  -5  133.49   29.90
  24 -13  -5  176.78   26.60
 -24  13   5   54.99   33.40
  13  11   5  100.09   18.20
 -24  13   5  138.79   31.50
  13  11   5  128.29   15.20
  -8  21  -5  161.98   27.40
  -8  21  -5  214.98   29.30
  13   8   5  216.58   19.30
 -21  13   5  179.68   27.40
 -21  13   5  219.68   33.30
  18 -13  -5   20.10   13.30
  -5  18  -5   35.80   19.20
  -5  18  -5   24.70   15.80
  18 -13  -5   -6.40   18.10
 -18  13   5   50.69   25.90
 -18  13   5   42.90   18.90
   5 -18   5   28.80   16.70
  15 -13  -5  100.49   16.70
  -2  15  -5   86.09   18.70
  -2  15  -5  108.49   20.30
 -15  13   5   76.49   21.00
   2 -15   5  129.39   20.20
 -15  13   5  116.19   23.20
   1  12  -5   44.30   15.20
  12 -13  -5   29.30   12.60
   1  12  -5   37.30   16.90
 -12  13   5  108.39   19.50
  13  -1   5   68.19    8.20
 -12  13   5   63.39   19.80
   9 -13  -5   84.39   14.40
   4   9  -5  101.59   18.30
   4   9  -5   87.49   17.40
  -9  13   5   66.99   17.80
  -9  13   5  102.29   19.00
  13  -4   5   74.39    8.90
  -4  -9   5   64.99   15.90
 -13   7  -5  553.54   16.30
   6 -13  -5  544.75   23.70
   7   6  -5  559.44   34.10
   7   6  -5  531.45   29.40
   7   6  -5  502.65   32.60
 -13   7  -5  527.95   17.30
  13  -7   5  503.85   22.00
  -7  -6   5  526.95   33.90
  -6  13   5  506.05   30.60
  -6  13   5  497.35   32.30
 -13  10  -5  139.29   17.10
   3 -13  -5  144.39   12.90
  10   3  -5  140.89   17.30
  10   3  -5  168.88   22.70
 -10  -3   5  144.19   23.00
  13 -10   5  137.99   16.50
  -3  13   5  153.18   19.10
  -3  13   5  146.39   21.50
 -13  13  -5   14.60   12.30
  13   0  -5    1.70   13.50
  13   0  -5  -10.70   11.60
 -13   0   5    6.90   19.20
   0  13   5   15.50   13.90
  13 -13   5   19.60   11.10
  16  -3  -5   24.20   16.20
 -13  16  -5   13.70   13.90
  16  -3  -5   26.40   15.70
   3  13   5    9.80   12.90
 -13  19  -5   72.49   19.80
  19  -6  -5   14.50   12.10
  19  -6  -5   28.00   16.20
   6  13   5   78.19   14.70
 -19   6   5   66.19   24.30
 -19   6   5   76.89   22.10
  13 -19   5   49.50   16.20
  22  -9  -5    0.70   18.90
  22  -9  -5   16.30   15.10
 -13  22  -5  -10.80   21.40
 -22   9   5   43.70   24.40
   9  13   5    4.70   13.80
  13 -22   5   -0.30   16.00
 -22   9   5   34.10   28.00
   9  13   5   10.40   14.30
 -13  25  -5   75.69   29.10
  25 -12  -5  102.89   24.50
  25 -12  -5   34.20   26.30
  12  13   5   75.39   19.20
 -25  12   5   26.10   30.80
 -25  12   5  113.19   34.60
  12  13   5   73.49   17.60
 -12  26  -5  180.68   35.20
  26 -14  -5  228.18   30.80
 -12  26  -5  204.98   41.00
  26 -14  -5  225.78   38.50
  14  12   5  245.58   30.80
  14  12   5  262.27   27.30
 -26  14   5  279.47   45.20
 -26  14   5  259.47   40.00
  12 -26   5  288.77   39.90
  -9  23  -5   50.19   22.30
 -23  14   5  166.98   35.70
  14   9   5  193.18   22.40
 -23  14   5  189.58   32.60
  -6  20  -5  160.18   24.80
  -6  20  -5  218.88   28.80
  14   6   5  177.68   16.10
 -20  14   5  197.28   27.40
 -20  14   5  201.98   31.60
   6 -20   5  196.88   34.80
  -3  17  -5   32.80   18.10
  -3  17  -5   27.60   17.10
  17 -14  -5   15.20   13.90
 -17  14   5   25.40   18.20
 -17  14   5   19.70   21.50
   3 -17   5   15.30   14.40
   0  14  -5   -2.70   13.60
   0  14  -5   10.80   16.70
  14   0   5   23.00    4.80
 -14  14   5   20.30   16.60
 -14  14   5   30.40   19.00
   3  11  -5  244.78   27.50
  11 -14  -5  236.68   22.10
   3  11  -5  202.78   23.10
  14  -3   5  251.57   13.90
 -11  14   5  269.47   32.40
 -11  14   5  342.57   30.00
   8 -14  -5  749.13   30.00
   6   8  -5  772.02   40.00
   6   8  -5  710.33   38.30
  -8  14   5  748.33   38.40
  14  -6   5  668.63   24.60
  -6  -8   5  719.43   39.20
  -8  14   5  736.33   37.30
   9   5  -5 1363.66   49.20
   5 -14  -5 1271.97   37.90
 -14   9  -5 1326.67   32.20
   9   5  -5 1339.77   46.80
 -14   9  -5 1242.28   32.40
 -14   9  -5 1240.88   34.10
   9   5  -5 1287.27   49.60
  -9  -5   5 1351.96   53.29
  14  -9   5 1244.08   39.50
  -5  14   5 1302.07   46.20
  -5  14   5 1349.96   49.90
  12   2  -5 1413.96   62.19
  12   2  -5 1520.45   51.19
   2 -14  -5 1537.75   36.30
 -14  12  -5 1459.95   43.00
  14 -12   5 1479.25   46.40
 -12  -2   5 1448.06   58.39
  -2  14   5 1469.35   48.20
 -14  15  -5 2053.59   59.09
  15  -1  -5 2055.89   67.89
  15  -1  -5 2016.50   63.59
  14 -15   5 2438.06   67.59
   1  14   5 2340.87   62.69
 -15   1   5 2263.57   85.19
  18  -4  -5  412.06   37.00
  18  -4  -5  472.35   32.80
 -14  18  -5  479.85   35.90
 -18   4   5  383.46   41.50
   4  14   5  461.05   27.80
  14 -18   5  444.06   33.20
  21  -7  -5  377.96   30.40
 -14  21  -5  464.35   38.80
  14 -21   5  334.47   33.50
 -21   7   5  313.47   36.80
   7  14   5  352.46   29.70
   7  14   5  382.36   27.90
  24 -10  -5  218.28   28.60
  24 -10  -5  320.47   39.00
 -14  24  -5  327.67   36.40
  10  14   5  268.77   27.30
 -24  10   5  234.58   37.20
 -24  10   5  382.16   48.90
  10  14   5  255.57   25.90
 -14  27  -5   34.60   27.50
  27 -13  -5   55.79   25.70
  27 -13  -5  103.49   33.40
 -14  27  -5    9.30   31.00
 -27  13   5   66.39   36.80
  13  14   5   46.60   23.10
  13  14   5   39.10   19.70
 -27  13   5   35.70   37.10
  14 -27   5   80.69   29.90
  28 -15  -5  -43.70   34.10
 -13  28  -5   25.20   32.10
 -13  28  -5   29.30   33.20
  28 -15  -5   19.80   24.30
  15  13   5   64.29   23.90
  13 -28   5   56.39   25.60
 -28  15   5   48.40   37.70
  15  13   5   31.20   19.60
 -28  15   5   36.90   39.20
  25 -15  -5  149.79   26.80
 -10  25  -5  184.38   31.90
  15  10   5  165.98   15.70
 -25  15   5  185.98   34.80
  10 -25   5  112.79   28.80
 -25  15   5  139.79   35.60
  15  10   5  149.49   20.40
  -7  22  -5  126.69   26.90
  -7  22  -5  181.08   29.20
 -22  15   5  183.18   29.70
 -22  15   5  198.48   37.70
  15   7   5  155.98   18.40
  -4  19  -5  684.73   42.00
  -4  19  -5  655.23   42.70
  15   4   5  659.53   21.00
 -19  15   5  694.23   44.20
 -19  15   5  697.93   52.99
   4 -19   5  700.33   40.20
  -1  16  -5    5.50   16.40
  -1  16  -5    9.30   18.50
  16 -15  -5  -21.90   10.60
 -16  15   5    9.20   18.00
   1 -16   5   30.40   15.00
 -16  15   5   -0.60   19.10
  13 -15  -5   54.19   15.00
   2  13  -5   29.70   15.80
 -13  15   5   90.89   21.50
 -13  15   5   48.20   20.70
  10 -15  -5  347.67   23.60
   5  10  -5  335.97   31.80
   5  10  -5  367.16   30.40
  -5 -10   5  370.76   33.70
 -10  15   5  331.87   29.60
  15  -5   5  364.76   17.90
 -10  15   5  363.56   33.70
   7 -15  -5  763.32   30.70
   8   7  -5  828.72   41.30
   8   7  -5  763.32   39.40
 -15   8  -5  749.73   23.50
   8   7  -5  741.83   36.10
  15  -8   5  738.13   27.90
  -7  15   5  716.13   40.40
  -7  15   5  789.02   37.90
  -8  -7   5  810.02   42.10
  11   4  -5 1599.74   58.29
 -15  11  -5 1674.43   43.20
   4 -15  -5 1670.53   43.20
  -4  15   5 1729.43   58.69
 -11  -4   5 1728.73   63.49
  -4  15   5 1666.53   54.19
  15 -11   5 1694.03   49.70
  14   1  -5 1725.23   60.99
 -15  14  -5 1565.44   48.90
   1 -15  -5 1664.73   35.40
  14   1  -5 1748.23   57.29
 -14  -1   5 1708.33   74.49
  -1  15   5 1909.71   56.29
  15 -14   5 1871.81   56.09
  17  -2  -5  793.92   45.20
  17  -2  -5  842.92   41.90
 -15  17  -5  855.81   41.70
 -17   2   5  994.30   53.79
  15 -17   5  953.00   42.10
   2  15   5  931.61   38.70
  20  -5  -5  472.65   32.60
  20  -5  -5  354.86   41.10
  15 -20   5  581.84   37.50
   5  15   5  620.84   31.70
 -20   5   5  554.64   48.10
  23  -8  -5  409.46   37.40
  23  -8  -5  345.67   40.20
 -15  23  -5  356.56   42.70
   8  15   5  381.66   34.30
  15 -23   5  440.86   40.70
   8  15   5  389.26   32.10
 -23   8   5  375.46   49.60
 -15  26  -5   87.29   31.60
  26 -11  -5   66.29   22.70
  26 -11  -5  118.99   32.40
  11  15   5   98.19   23.80
  15 -26   5   62.59   26.70
 -26  11   5   73.79   33.70
 -26  11   5  109.79   38.70
  11  15   5   83.29   20.90
 -15  29  -5   -0.80   33.00
 -15  29  -5   16.90   36.30
  29 -14  -5   30.30   25.60
  29 -14  -5   41.90   31.60
  14  15   5   21.90   22.80
  14  15   5   35.00   27.40
  15 -29   5   41.00   20.80
 -29  14   5   97.19   43.00
 -29  14   5   64.99   37.80
 -14  30  -5   38.30   34.90
 -14  30  -5   15.30   37.10
  16  14   5   35.60   25.70
  16  14   5   45.50   19.90
 -30  16   5   -4.50   33.00
 -30  16   5   10.00   43.60
  27 -16  -5   24.90   23.70
 -11  27  -5  103.19   35.20
 -11  27  -5   72.49   34.30
 -27  16   5   17.40   39.30
  11 -27   5   55.99   26.30
  16  11   5   86.89   17.60
 -27  16   5   99.89   36.70
  16  11   5  103.59   21.20
  -8  24  -5  241.18   34.00
 -24  16   5  178.08   35.80
 -24  16   5  188.08   32.90
   8 -24   5  144.99   26.30
  16   8   5  168.18   21.90
  -5  21  -5   -1.00   19.70
  -5  21  -5   27.70   22.50
  16   5   5    2.80    9.10
 -21  16   5   16.40   27.30
   5 -21   5    7.20   15.80
 -21  16   5   16.80   22.00
  18 -16  -5  192.18   23.80
  -2  18  -5  158.98   24.80
  -2  18  -5  202.38   27.80
   2 -18   5  183.58   23.40
 -18  16   5  193.88   26.90
 -18  16   5  141.39   27.90
  15 -16  -5   67.59   16.00
   1  15  -5   31.30   17.40
   1  15  -5   19.60   16.70
 -15  16   5  109.59   23.40
 -15  16   5   36.70   22.80
  16  -1   5   53.69    6.70
  12 -16  -5  161.88   18.80
   4  12  -5  147.79   24.70
   4  12  -5  135.79   21.70
 -12  16   5  162.78   26.00
 -12  16   5  110.49   20.20
  16  -4   5  128.99   13.30
   7   9  -5  527.05   35.00
   9 -16  -5  474.95   26.10
   7   9  -5  497.35   36.60
  -7  -9   5  437.36   35.30
  -9  16   5  496.55   35.00
  -9  16   5  460.45   36.30
  16  -7   5  477.05   22.00
  10   6  -5   75.49   27.60
 -16  10  -5   56.39    8.90
 -16  10  -5   66.29   12.10
  10   6  -5   64.09   17.90
  10   6  -5   68.89   18.20
   6 -16  -5   72.29   12.00
  -6  16   5   60.19   17.50
  -6  16   5   75.99   22.20
  16 -10   5   60.89   11.90
 -10  -6   5   47.70   22.80
   3 -16  -5   43.90    8.80
  13   3  -5   30.40   18.20
  13   3  -5   29.90   14.80
 -16  13  -5   44.40   14.50
  16 -13   5   62.29   13.10
  -3  16   5   56.29   18.70
  16   0  -5    0.50   13.90
 -16  16  -5    4.30   15.50
  16   0  -5   15.70   17.60
 -16   0   5   29.10   21.90
   0  16   5   36.40   17.60
  19  -3  -5   -1.00   16.60
 -16  19  -5   42.00   20.80
  19  -3  -5    3.40   15.30
   3  16   5   36.90   15.90
  16 -19   5   23.10   15.40
 -19   3   5   14.80   23.50
  22  -6  -5  -16.40   17.50
 -16  22  -5   27.00   24.30
  16 -22   5   15.70   18.10
   6  16   5  -37.40   15.90
   6  16   5   18.60   18.30
 -22   6   5    1.40   24.60
  25  -9  -5    2.50   26.80
  25  -9  -5   38.10   22.80
 -16  25  -5   38.20   30.70
   9  16   5   19.20   19.60
   9  16   5  -13.00   18.20
 -25   9   5   30.70   31.00
  16 -25   5   78.49   24.40
  28 -12  -5  -73.09   31.90
  28 -12  -5   36.70   25.30
 -16  28  -5    4.40   35.80
  12  16   5   -4.00   21.90
  16 -28   5   55.19   28.00
 -28  12   5  -48.10   37.70
 -12  29  -5   96.79   38.50
 -12  29  -5  166.08   41.90
  29 -17  -5  104.49   21.20
  17  12   5  187.18   27.10
 -29  17   5  195.08   45.10
  12 -29   5  148.99   21.60
 -29  17   5  215.98   51.89
  17  12   5  191.38   22.30
  26 -17  -5  339.57   42.80
  -9  26  -5  315.97   40.20
  -9  26  -5  269.27   39.60
   9 -26   5  231.78   32.70
 -26  17   5  238.68   41.50
 -26  17   5  281.17   42.40
  17   9   5  228.08   26.60
  -6  23  -5   94.89   28.00
 -23  17   5  103.29   26.50
  17   6   5  101.69   14.40
 -23  17   5  109.79   36.20
  -3  20  -5    9.10   19.10
  -3  20  -5   -0.10   20.90
 -20  17   5   11.70   29.70
   3 -20   5   28.60   17.50
  17   3   5   21.10    7.20
 -20  17   5   32.40   22.00
   0  17  -5   -0.70   16.90
  17 -17  -5   29.30   14.80
   0  17  -5  -10.10   16.30
  17   0   5   14.90    5.00
 -17  17   5   52.19   19.90
 -17  17   5   27.30   22.60
   3  14  -5   10.10   19.90
   3  14  -5    0.80   15.10
  14 -17  -5   -1.60   12.00
 -14  17   5   27.70   21.10
 -14  17   5   -1.30   20.20
  17  -3   5   12.20    7.10
  11 -17  -5  329.67   24.40
   6  11  -5  334.47   31.70
 -11  17   5  295.67   36.90
 -11  17   5  305.77   32.00
  17  -6   5  260.67   17.40
   9   8  -5 1836.62   63.99
 -17   9  -5 1724.43   42.80
   8 -17  -5 1816.42   51.89
   9   8  -5 1718.73   65.79
   9   8  -5 1872.31   59.99
  17  -9   5 1709.73   49.10
  -8  17   5 1831.02   63.19
  -8  17   5 1798.52   59.09
   5 -17  -5 1323.67   38.80
  12   5  -5 1330.17   53.79
 -17  12  -5 1244.28   39.60
  12   5  -5 1321.37   50.69
 -17  12  -5 1291.47   37.20
  -5  17   5 1397.16   52.59
 -12  -5   5 1425.36   61.49
  17 -12   5 1419.86   45.80
   2 -17  -5  721.93   21.90
  15   2  -5  736.23   38.60
 -17  15  -5  694.93   34.80
  15   2  -5  748.33   42.70
  -2  17   5  838.62   42.20
 -15  -2   5  861.81   49.80
  17 -15   5  838.92   37.50
 -17  18  -5  669.23   39.40
  18  -1  -5  764.92   41.80
 -18   1   5  794.22   50.99
   1  17   5  745.13   38.30
  17 -18   5  678.43   37.60
  21  -4  -5  604.54   47.30
  21  -4  -5  636.14   40.60
  17 -21   5  690.33   41.10
   4  17   5  648.64   36.30
 -21   4   5  528.35   49.80
  24  -7  -5  270.17   33.90
 -17  24  -5  208.98   34.80
  24  -7  -5  218.18   34.50
  17 -24   5  286.77   33.00
 -24   7   5  239.38   41.70
   7  17   5  286.57   35.60
   7  17   5  259.37   26.50
 -17  27  -5   49.40   36.80
  27 -10  -5   43.30   33.60
  27 -10  -5   38.90   24.70
  10  17   5   -1.40   24.10
 -27  10   5   55.69   34.70
  10  17   5   38.90   23.80
  17 -27   5   90.39   27.70
  13  17   5   58.69   25.80
 -10  28  -5  151.08   40.80
  28 -18  -5  155.88   28.30
 -10  28  -5  207.68   40.70
  10 -28   5   69.99   29.50
 -28  18   5  182.68   44.30
  18  10   5  167.58   19.30
  18  10   5  167.88   23.30
 -28  18   5  143.79   42.30
  25 -18  -5  226.48   42.10
  -7  25  -5  298.37   42.40
  -7  25  -5  235.88   35.90
 -25  18   5  239.78   43.70
   7 -25   5  395.56   45.70
  18   7   5  250.57   24.40
 -25  18   5  223.98   36.30
  -4  22  -5  109.49   29.00
  18   4   5  162.18   17.20
 -22  18   5  118.99   27.60
 -22  18   5  185.48   36.90
  19 -18  -5   49.20   16.80
  -1  19  -5   45.10   21.70
  -1  19  -5   77.69   22.40
 -19  18   5   60.19   24.00
 -19  18   5   54.59   29.90
   2  16  -5  157.28   27.40
   2  16  -5  202.18   29.00
  16 -18  -5  166.78   21.10
 -16  18   5  181.18   29.10
 -16  18   5  199.58   28.40
  18  -2   5  175.28   12.10
  13 -18  -5   63.49   15.40
   5  13  -5   46.00   18.50
   5  13  -5   85.89   21.40
 -13  18   5   69.69   20.40
 -13  18   5   89.29   25.80
  18  -5   5  129.39   14.50
   8  10  -5  759.02   44.30
 -18   8  -5  714.33   23.50
   8  10  -5  799.82   42.30
  10 -18  -5  817.62   35.20
 -10  18   5  814.42   55.49
  18  -8   5  778.12   29.20
  -8 -10   5  775.92   46.90
 -10  18   5  793.82   46.90
  11   7  -5  815.22   42.60
   7 -18  -5  811.12   32.10
  11   7  -5  821.22   44.80
 -18  11  -5  847.02   30.90
  11   7  -5  838.02   41.20
  18 -11   5  820.52   33.90
  -7  18   5  892.41   43.60
 -11  -7   5  860.71   49.80
  -7  18   5  850.91   49.10
  14   4  -5  229.18   30.90
 -18  14  -5  328.97   28.00
  14   4  -5  237.38   28.20
 -18  14  -5  281.87   24.80
   4 -18  -5  305.07   19.00
  -4  18   5  272.57   34.90
 -14  -4   5  314.07   39.90
  18 -14   5  274.67   24.90
  17   1  -5  764.22   40.90
 -18  17  -5  659.53   37.70
  18 -17   5  722.93   36.60
 -17  -1   5  722.63   49.10
  -1  18   5  740.33   42.10
 -18  20  -5  528.25   41.40
  20  -2  -5  533.65   39.10
  20  -2  -5  574.24   44.60
  18 -20   5  655.53   38.60
   2  18   5  610.34   37.90
 -20   2   5  598.34   50.49
  23  -5  -5  612.94   48.70
 -18  23  -5  523.95   49.60
 -23   5   5  543.05   57.39
   5  18   5  555.14   40.60
  18 -23   5  575.34   43.40
 -18  26  -5  153.98   36.90
  26  -8  -5   81.49   30.50
  26  -8  -5  171.78   29.50
   8  18   5  188.98   29.20
  18 -26   5  175.28   32.20
 -26   8   5  135.89   40.60
   8  18   5  178.48   27.60
 -18  29  -5  -12.60   40.70
  29 -11  -5   -7.50   24.90
  29 -11  -5   29.20   24.10
  18 -29   5   21.20   31.30
  11  18   5  -28.50   26.10
  11  18   5   -3.00   28.40
 -29  11   5  -25.10   40.40
  -8  27  -5   68.79   32.60
  -8  27  -5  154.78   38.30
  27 -19  -5   84.19   29.40
  19   8   5  106.19   19.00
   8 -27   5  157.38   32.20
 -27  19   5   61.99   39.40
 -27  19   5   63.59   42.80
  -5  24  -5  128.59   30.70
  -5  24  -5  107.79   28.90
 -24  19   5   83.09   31.90
   5 -24   5  121.19   25.80
  19   5   5  147.99   20.00
 -24  19   5  118.59   37.50
  -2  21  -5  125.79   27.60
 -21  19   5  218.38   37.70
 -21  19   5  206.28   31.40
   1  18  -5    4.10   19.60
   1  18  -5   21.30   23.60
  18 -19  -5   47.20   16.80
 -18  19   5    0.40   23.70
  19  -1   5   42.90   11.20
 -18  19   5   64.89   23.80
   4  15  -5  685.13   43.90
   4  15  -5  674.23   42.70
  15 -19  -5  633.54   35.10
 -15  19   5  617.24   46.20
  19  -4   5  609.64   22.70
 -15  19   5  627.24   48.90
  12 -19  -5  269.67   24.90
   7  12  -5  308.87   33.70
   7  12  -5  262.67   32.70
  -7 -12   5  317.47   36.00
  19  -7   5  282.97   19.20
 -12  19   5  293.17   39.50
 -12  19   5  310.07   36.50
 -19  10  -5  359.76   22.10
   9 -19  -5  428.36   26.40
  10   9  -5  407.06   36.10
  10   9  -5  359.96   32.90
  -9  19   5  295.97   40.20
  -9  19   5  347.87   49.30
  19 -10   5  329.67   23.00
 -10  -9   5  368.06   42.40
  13   6  -5   60.79   18.50
  13   6  -5    8.80   15.90
   6 -19  -5   28.50   11.00
 -19  13  -5   37.50   12.20
 -19  13  -5   30.60   14.50
  -6  19   5   53.49   21.00
 -13  -6   5   37.10   23.10
  19 -13   5   72.59   14.10
  16   3  -5   67.99   18.70
 -19  16  -5   66.09   17.00
   3 -19  -5   67.39   10.10
  19 -16   5   81.19   16.70
  -3  19   5   77.39   23.70
 -16  -3   5   57.49   24.20
 -19  19  -5    1.50   20.20
  19   0  -5  -20.10   18.50
  19   0  -5  -17.00   15.60
 -19   0   5  -22.10   24.10
   0  19   5   -1.50   19.10
  19 -19   5    2.10   13.90
 -19  22  -5  -16.00   24.60
  22  -3  -5   -7.70   18.60
  22  -3  -5   43.70   24.80
   3  19   5   14.70   19.90
  19 -22   5    7.20   17.90
 -22   3   5  -13.80   26.50
  25  -6  -5   75.39   29.80
  25  -6  -5   56.39   19.10
 -19  25  -5   90.69   32.70
   6  19   5  114.79   26.90
 -25   6   5  132.19   38.70
  19 -25   5  158.48   29.80
   6  19   5   90.39   25.00
  28  -9  -5  -32.30   31.30
  28  -9  -5  -23.70   25.90
 -19  28  -5   69.79   39.20
 -28   9   5   39.80   43.20
   9  19   5    9.20   27.00
   9  19   5   11.90   26.80
  19 -28   5   52.39   22.40
  -9  29  -5  168.08   34.20
  -9  29  -5  317.97   42.90
  20   9   5  211.08   18.70
  20   9   5  245.38   32.80
 -29  20   5  200.28   44.50
 -29  20   5  213.98   48.50
  26 -20  -5  132.59   30.70
  -6  26  -5  120.69   34.60
  -6  26  -5   71.69   34.80
   6 -26   5  130.99   29.90
 -26  20   5  170.98   37.00
  20   6   5   80.49   16.00
 -26  20   5  129.09   43.80
  -3  23  -5   60.19   28.40
  -3  23  -5   52.09   25.20
 -23  20   5   30.70   31.20
  20   3   5   56.89   10.90
 -23  20   5   52.89   28.70
   0  20  -5    4.10   25.60
 -20  20   5   63.69   21.50
 -20  20   5   10.30   28.70
  20   0   5   14.00    7.10
   3  17  -5   76.29   23.40
  17 -20  -5   67.89   17.30
   3  17  -5    1.10   18.70
  20  -3   5  101.39   11.10
 -17  20   5   95.39   26.50
 -17  20   5   63.49   29.30
  14 -20  -5  253.77   25.70
   6  14  -5  270.97   35.00
 -14  20   5  263.97   34.30
 -14  20   5  270.07   30.80
  20  -6   5  242.78   18.10
   9  11  -5  535.55   40.40
 -20   9  -5  520.75   23.20
  20  -9   5  564.54   26.90
  -9 -11   5  512.65   48.30
 -11  20   5  573.04   42.90
 -11  20   5  542.05   44.00
 -20  12  -5  282.37   24.80
  12   8  -5  289.97   36.60
   8 -20  -5  261.47   22.70
  12   8  -5  232.08   29.30
  20 -12   5  257.97   23.90
  -8  20   5  329.07   42.20
 -12  -8   5  257.47   35.60
  -8  20   5  286.67   31.50
 -20  15  -5  777.02   33.00
   5 -20  -5  744.73   29.80
  15   5  -5  736.23   40.40
 -20  15  -5  755.42   38.00
 -15  -5   5  787.72   51.89
  -5  20   5  685.23   69.89
  20 -15   5  760.42   45.10
 -20  18  -5  812.72   41.40
  18   2  -5  772.32   48.60
  18   2  -5  926.61   46.60
  -2  20   5  906.61   49.20
  20 -18   5  818.52   41.10
 -18  -2   5  856.41   56.09
 -20  21  -5  280.77   31.80
  21  -1  -5  233.38   28.40
  21  -1  -5  242.08   33.90
   1  20   5  411.36   38.00
 -21   1   5  264.37   37.40
  20 -21   5  380.16   34.50
 -20  24  -5  253.17   37.90
  24  -4  -5  160.38   27.40
   4  20   5  279.67   32.70
  20 -24   5  319.07   41.00
 -24   4   5  251.87   41.70
  27  -7  -5   76.39   25.20
  27  -7  -5   -4.30   29.30
 -20  27  -5   60.89   37.30
   7  20   5   65.09   30.30
  20 -27   5  109.19   31.10
 -27   7   5   35.20   40.20
   7  20   5   63.89   29.60
  -7  28  -5  147.19   41.70
  -7  28  -5  150.38   34.50
  21   7   5  141.89   20.50
 -28  21   5   87.79   44.60
 -28  21   5  172.18   46.40
   7 -28   5  143.69   33.20
  25 -21  -5  362.46   42.50
  -4  25  -5  208.98   35.70
  -4  25  -5  254.27   40.50
 -25  21   5  280.47   46.90
 -25  21   5  240.98   39.30
   4 -25   5  278.07   33.70
  21   4   5  230.18   20.50
  22 -21  -5  362.96   36.90
  -1  22  -5  324.87   39.60
  -1  22  -5  313.07   37.30
 -22  21   5  362.06   42.20
  21   1   5  350.66   15.90
 -22  21   5  316.97   46.70
   2  19  -5   82.19   24.40
  21  -2   5  112.09   14.30
 -19  21   5  156.38   34.70
 -19  21   5  148.39   29.60
   5  16  -5   28.70   21.60
  16 -21  -5   45.00   16.60
  21  -5   5   45.90    9.90
 -16  21   5   52.49   28.30
 -16  21   5   25.40   25.90
  13 -21  -5   74.69   17.50
   8  13  -5   58.39   22.60
 -21   8  -5   50.19   11.20
 -13  21   5   93.19   24.90
  21  -8   5   76.69   13.30
 -13  21   5   61.99   29.60
  11  10  -5   91.39   22.40
  10 -21  -5  109.49   17.20
 -21  11  -5  111.99   16.10
  11  10  -5  106.89   27.10
  21 -11   5  112.39   16.40
 -11 -10   5   87.89   26.00
 -10  21   5  104.79   29.00
 -10  21   5   81.29   23.10
 -21  14  -5  347.87   29.30
  14   7  -5  349.87   33.20
 -21  14  -5  346.27   20.80
  14   7  -5  391.06   40.20
   7 -21  -5  348.07   24.70
 -14  -7   5  266.57   34.70
  -7  21   5  275.27   32.20
  21 -14   5  284.97   26.30
   4 -21  -5  431.16   22.30
 -21  17  -5  481.35   35.80
 -21  17  -5  423.86   32.80
  17   4  -5  430.76   34.70
  17   4  -5  350.96   38.80
 -17  -4   5  451.15   50.19
  -4  21   5  414.06   44.50
  21 -17   5  452.75   32.60
  20   1  -5  300.07   35.30
 -21  20  -5  415.26   37.50
  20   1  -5  318.97   37.40
 -20  -1   5  393.06   49.80
  21 -20   5  472.25   36.00
  23  -2  -5  418.86   49.20
  23  -2  -5  405.06   42.20
 -21  23  -5  325.57   36.10
  21 -23   5  328.47   39.10
 -23   2   5  325.47   44.50
  26  -5  -5  114.79   33.40
 -21  26  -5  168.28   39.80
   5  21   5  133.89   29.70
  21 -26   5  129.69   29.70
 -26   5   5  123.09   40.60
  29  -8  -5  -64.99   33.60
  29  -8  -5    1.90   23.60
 -21  29  -5   23.50   43.60
   8  21   5  -15.30   31.30
 -29   8   5   62.99   42.90
   8  21   5  -40.70   29.00
  -5  27  -5  203.28   45.50
  27 -22  -5   55.19   20.50
  -5  27  -5   87.99   37.50
 -27  22   5  156.68   44.60
   5 -27   5  108.59   32.40
 -27  22   5  191.18   49.90
  22   5   5  213.88   24.80
  -2  24  -5  236.98   44.40
  -2  24  -5  215.78   39.00
 -24  22   5  137.69   41.90
 -24  22   5  148.39   36.10
  22   2   5  147.39   14.20
  22   2   5  205.28   17.10
   1  21  -5  341.87   45.30
  21 -22  -5  319.97   35.60
   1  21  -5  366.66   46.30
 -21  22   5  498.05   49.80
 -21  22   5  182.08   42.50
  22  -1   5  332.47   18.70
   4  18  -5  278.07   36.10
 -18  22   5  282.87   38.70
  22  -4   5  259.87   18.40
 -18  22   5  257.27   38.50
  15 -22  -5  315.97   30.50
   7  15  -5  200.58   30.00
 -15  22   5  231.18   35.40
  22  -7   5  245.28   19.50
 -15  22   5  254.17   33.20
  10  12  -5  340.97   42.50
  12 -22  -5  304.77   28.20
 -22  10  -5  263.07   22.80
 -10 -12   5  291.17   38.40
 -12  22   5  376.26   44.50
  22 -10   5  289.97   24.40
 -12  22   5  299.77   35.30
  13   9  -5   14.40   16.20
   9 -22  -5    9.10   13.50
 -22  13  -5   -0.70   15.50
  13   9  -5  -12.10   24.80
  -9  22   5   25.90   28.90
  22 -13   5   18.60   13.60
 -13  -9   5   -3.60   25.50
  -9  22   5   33.00   25.40
 -22  16  -5   48.60   16.10
  16   6  -5   41.20   22.90
 -22  16  -5   40.90   18.90
   6 -22  -5   50.29   13.90
  16   6  -5   14.50   19.00
 -16  -6   5   47.90   27.80
  22 -16   5   64.19   16.80
  -6  22   5   -1.20   27.10
  19   3  -5   63.79   20.20
   3 -22  -5   38.90    9.20
 -22  19  -5   52.79   21.30
 -22  19  -5   48.10   24.00
  19   3  -5   76.69   27.50
 -19  -3   5  -13.20   27.90
  22 -19   5   33.70   18.00
  -3  22   5   67.79   27.00
  22   0  -5   -6.80   23.00
 -22  22  -5    7.40   23.90
  22   0  -5  -33.10   25.10
   0  22   5    0.50   22.60
  22 -22   5   39.00   20.30
 -22   0   5   11.30   31.60
 -22  25  -5   -9.20   29.60
  25  -3  -5   40.10   33.70
  25  -3  -5   21.10   25.40
   3  22   5   25.90   28.70
 -25   3   5    1.60   36.30
  22 -25   5   -9.10   23.30
  28  -6  -5  -10.10   26.10
 -22  28  -5   63.09   40.50
  28  -6  -5  -55.19   24.60
   6  22   5   52.69   33.50
 -28   6   5   27.10   42.60
  22 -28   5   59.79   26.20
   6  22   5   62.19   33.90
  26 -23  -5  -52.19   20.90
  -3  26  -5  -18.70   42.40
  -3  26  -5   24.40   30.60
 -26  23   5  -61.19   32.70
 -26  23   5   42.00   44.00
  23   3   5   22.20   15.80
  23   3   5   19.20   13.00
   0  23  -5   -1.10   29.30
  23 -23  -5   31.60   22.80
   0  23  -5  -19.00   29.50
 -23  23   5  -15.50   31.60
 -23  23   5    8.30   40.40
  23   0   5   -5.50    8.90
   3  20  -5   77.99   28.20
  20 -23  -5   79.39   21.20
 -20  23   5  156.98   33.80
 -20  23   5  134.19   38.20
  23  -3   5   94.89   12.80
  17 -23  -5    6.10   16.80
   6  17  -5   84.19   29.60
  23  -6   5   85.99   12.90
 -17  23   5  108.49   35.50
 -17  23   5   64.69   31.40
   9  14  -5  199.28   31.80
 -23   9  -5  206.58   21.10
  14 -23  -5  286.37   28.50
  23  -9   5  276.67   23.60
 -14  23   5  162.38   36.90
 -14  23   5  189.18   33.60
  11 -23  -5  431.66   30.40
  12  11  -5  381.86   39.50
  12  11  -5  452.55   39.10
 -23  12  -5  464.45   29.60
  23 -12   5  405.26   29.10
 -12 -11   5  350.96   41.80
 -11  23   5  398.16   44.30
 -11  23   5  407.46   51.19
 -23  15  -5  512.75   35.80
  15   8  -5  606.64   48.10
  15   8  -5  558.64   40.60
   8 -23  -5  492.05   30.80
  23 -15   5  532.05   34.60
  -8  23   5  549.54   51.89
 -15  -8   5  451.85   51.29
   5 -23  -5  315.77   23.00
  18   5  -5  295.87   37.30
 -23  18  -5  316.57   31.30
 -23  18  -5  325.77   38.70
  18   5  -5  308.07   35.00
 -18  -5   5  389.76   48.90
  -5  23   5  307.07   37.30
  23 -18   5  323.97   32.00
 -23  21  -5  344.57   36.50
  21   2  -5  319.97   41.60
 -23  21  -5  311.37   40.60
  21   2  -5  346.07   36.50
  -2  23   5  287.07   35.20
  23 -21   5  315.17   35.90
 -21  -2   5  338.57   45.10
 -23  24  -5  331.57   37.50
  24  -1  -5  272.77   41.00
  24  -1  -5  263.57   36.80
  23 -24   5  257.07   33.60
   1  23   5  256.87   36.30
 -24   1   5  264.87   46.60
  27  -4  -5  -23.60   21.50
 -23  27  -5   25.90   35.80
  23 -27   5  189.28   29.00
   4  23   5  128.39   35.60
   4  23   5   39.00   32.00
 -27   4   5   57.69   44.40
  25 -24  -5  187.28   28.00
  -1  25  -5  194.68   39.80
  -1  25  -5  285.17   41.10
 -25  24   5  260.87   50.29
 -25  24   5  279.57   46.20
  24   1   5  250.87   18.70
   2  22  -5  176.18   38.90
   2  22  -5  172.08   35.60
  22 -24  -5  136.69   26.30
 -22  24   5  414.36   53.29
 -22  24   5  252.87   49.50
  24  -2   5  213.18   19.80
   5  19  -5  193.48   35.80
  19 -24  -5  227.58   28.70
 -19  24   5  240.08   39.60
  24  -5   5  213.68   20.10
 -19  24   5  205.08   39.00
   8  16  -5  170.48   33.70
 -24   8  -5  168.88   18.50
 -16  24   5  191.68   31.50
  24  -8   5  171.38   18.30
 -16  24   5  214.88   42.10
 -24  11  -5   49.50   15.80
  11  13  -5   -8.90   26.00
  13 -24  -5   56.59   16.50
  24 -11   5   46.20   14.90
 -13  24   5  103.89   30.40
 -13  24   5   44.80   29.90
  10 -24  -5  295.57   28.00
  14  10  -5  210.38   33.30
  14  10  -5  169.58   26.20
  14  10  -5  221.18   31.80
 -24  14  -5  227.48   24.10
 -10  24   5  235.48   41.00
 -14 -10   5  253.57   40.90
 -10  24   5  256.07   36.60
  24 -14   5  209.28   27.30
   7 -24  -5  222.58   25.80
 -24  17  -5  227.28   24.00
 -24  17  -5  262.17   29.00
  17   7  -5  330.37   44.30
  17   7  -5  288.37   38.70
  17   7  -5  214.58   30.10
  -7  24   5  176.98   36.30
  24 -17   5  238.68   31.10
 -17  -7   5  236.48   40.00
  20   4  -5  121.59   32.10
 -24  20  -5  173.38   25.10
  20   4  -5  152.78   28.20
   4 -24  -5  122.69   13.60
 -24  20  -5  114.99   29.70
  -4  24   5  211.58   34.00
 -20  -4   5  181.18   40.40
  24 -20   5  132.59   24.50
  23   1  -5  362.96   47.60
  23   1  -5  298.67   42.80
 -24  23  -5  283.27   39.70
 -24  23  -5  285.07   43.50
  -1  24   5  264.47   35.00
 -23  -1   5  211.38   42.60
  24 -23   5  245.58   31.70
 -24  26  -5  148.49   35.70
  26  -2  -5   99.39   36.00
  26  -2  -5  161.68   32.60
  24 -26   5   66.09   27.50
   2  24   5  156.98   36.50
 -26   2   5   78.69   40.60
  -2  27  -5  192.58   30.20
  24 -25  -5  133.29   26.90
   1  24  -5  213.98   41.90
   1  24  -5  151.98   36.10
  25  -1   5  244.88   20.60
 -24  25   5  149.99   51.99
   4  21  -5  276.87   39.90
   4  21  -5  237.38   38.00
  21 -25  -5  283.37   33.40
 -21  25   5  465.65   50.19
  25  -4   5  300.67   23.40
 -21  25   5  370.36   51.79
 -25   7  -5  324.07   20.60
   7  18  -5  307.97   38.60
 -18  25   5  460.05   60.19
  25  -7   5  323.77   24.70
 -18  25   5  336.67   45.10
  10  15  -5  245.28   37.50
 -25  10  -5  241.28   24.00
 -15  25   5  205.38   36.30
  25 -10   5  263.37   27.60
 -15  25   5  235.78   41.10
 -25  13  -5   84.59   19.30
  13  12  -5   72.69   25.20
  12 -25  -5   54.19   17.30
  13  12  -5   71.89   30.60
  13  12  -5   93.39   30.50
  25 -13   5   46.10   26.80
 -13 -12   5   44.40   31.00
 -12  25   5   71.29   35.40
 -12  25   5   79.69   29.70
 -25  16  -5   76.49   22.00
  16   9  -5   72.39   26.40
  16   9  -5   62.39   33.30
  16   9  -5   38.50   26.90
  25 -16   5   82.59   19.50
 -16  -9   5   40.80   30.20
  -9  25   5   98.09   34.30
 -25  19  -5  124.29   26.80
  19   6  -5   77.69   30.80
  19   6  -5   87.09   23.90
 -25  19  -5  120.19   20.20
  25 -19   5   84.59   21.00
 -19  -6   5   88.59   35.20
  -6  25   5  108.49   35.20
 -25  22  -5   25.30   23.90
 -25  22  -5   45.90   36.30
  22   3  -5   60.29   35.10
  22   3  -5   -9.80   25.60
 -22  -3   5    4.50   35.10
  -3  25   5   -6.90   30.90
  25 -22   5   64.49   24.70
 -25  25  -5   32.30   36.00
  25   0  -5   13.20   34.60
 -25  25  -5  -22.70   29.20
  25   0  -5   18.90   28.70
 -25   0   5   20.70   41.90
  25 -25   5   31.60   26.10
   0  25   5   16.50   35.10
   0  26  -5  -16.60   22.00
 -26  26   5    7.90   35.70
 -26  26   5   -0.70   29.20
  26   0   5   -5.60    9.70
   3  23  -5   -2.70   28.10
   3  23  -5    3.60   37.20
  23 -26  -5   29.80   23.50
 -23  26   5   14.30   45.60
 -23  26   5  119.19   39.30
  26  -3   5   30.30   13.40
   6  20  -5  198.78   39.40
  20 -26  -5  247.28   32.50
   6  20  -5  170.38   40.30
 -20  26   5  227.28   44.30
  26  -6   5  207.18   23.50
 -20  26   5  169.18   38.60
   9  17  -5  393.36   43.00
 -26   9  -5  349.07   25.20
   9  17  -5  303.87   39.90
  26  -9   5  340.27   29.00
 -17  26   5  390.96   51.99
 -17  26   5  311.67   40.40
 -26  12  -5  348.57   30.10
  12  14  -5  416.36   53.09
  12  14  -5  406.06   51.09
  26 -12   5  381.36   33.10
 -14  26   5  250.47   39.60
 -14  26   5  552.54   61.99
  11 -26  -5  118.29   19.90
  15  11  -5   66.39   24.70
  15  11  -5   64.59   34.30
  15  11  -5   49.20   26.00
 -26  15  -5   83.79   21.30
 -15 -11   5   50.79   34.60
 -11  26   5   83.79   34.70
 -11  26   5  123.29   44.00
  26 -15   5   75.79   19.40
 -26  18  -5  223.58   29.10
   8 -26  -5  184.88   22.50
  18   8  -5  275.27   40.70
  18   8  -5  214.88   42.20
 -26  18  -5  208.28   22.10
  18   8  -5  157.38   31.10
  26 -18   5  197.48   28.50
 -18  -8   5  122.19   36.20
  -8  26   5  184.18   40.70
  21   5  -5  114.39   30.10
 -26  21  -5  121.09   26.10
   5 -26  -5  114.09   16.10
  21   5  -5  139.59   36.60
 -26  21  -5  138.79   30.00
 -21  -5   5  107.49   39.80
  26 -21   5  111.49   25.50
  -5  26   5  203.88   40.40
  24   2  -5  133.29   34.50
 -26  24  -5   68.39   36.10
  24   2  -5   37.90   33.20
  26 -24   5   91.89   28.70
 -24  -2   5  128.79   47.90
  -2  26   5   76.99   38.30
   2  25  -5  150.28   28.10
   5  22  -5  159.58   42.80
  22 -27  -5  196.78   32.00
 -22  27   5  223.68   51.69
  27  -5   5  168.38   19.10
 -22  27   5  136.49   45.30
   8  19  -5  118.19   34.80
   8  19  -5  122.89   37.40
  19 -27  -5  181.88   30.50
 -27   8  -5  148.99   16.40
 -19  27   5  104.19   40.60
 -19  27   5  155.88   46.50
  27  -8   5  150.38   20.70
 -27  11  -5   70.59   18.00
  11  16  -5   74.59   35.30
  11  16  -5   58.39   32.50
  27 -11   5   71.59   19.70
 -16  27   5   66.39   43.60
 -16  27   5   50.09   36.30
  13 -27  -5   26.00   18.50
 -27  14  -5   20.70   18.70
  14  13  -5   17.50   38.10
  14  13  -5   21.10   26.80
  14  13  -5   21.90   28.20
 -13  27   5   53.69   32.70
  27 -14   5   21.60   20.30
 -13  27   5    1.20   40.60
  10 -27  -5   44.80   18.80
  17  10  -5   49.20   28.20
  17  10  -5   19.40   29.40
  17  10  -5  -11.40   39.30
 -27  17  -5   20.20   21.50
  27 -17   5  -13.60   18.50
 -17 -10   5   28.80   36.50
 -10  27   5   -0.90   37.30
  20   7  -5   68.29   27.90
   7 -27  -5   68.99   18.40
 -27  20  -5   67.99   28.80
 -27  20  -5  106.59   18.60
  20   7  -5   68.29   37.60
  27 -20   5   86.49   24.40
 -20  -7   5   60.69   42.50
  -7  27   5   74.39   40.90
  23   4  -5   79.79   32.90
 -27  23  -5   51.49   27.70
  23   4  -5    6.60   27.30
 -27  23  -5   87.29   32.80
  27 -23   5   90.49   29.90
  -4  27   5  153.48   36.00
 -23  -4   5   96.39   43.40
   7  21  -5  205.28   33.60
   7  21  -5  220.58   43.20
  21 -28  -5  300.67   36.50
  28  -7   5  225.58   29.30
 -21  28   5  263.27   50.39
 -21  28   5  159.28   45.40
  18 -28  -5  297.77   33.50
  10  18  -5  332.17   46.90
 -28  10  -5  293.77   26.30
  10  18  -5  221.38   41.60
 -18  28   5  197.78   48.70
  28 -10   5  333.37   33.70
 -18  28   5  341.77   48.20
  13  15  -5  144.79   34.40
  13  15  -5  170.38   45.50
 -28  13  -5  175.88   22.80
  28 -13   5  176.98   25.50
 -15  28   5  216.58   45.00
 -15  28   5  146.79   42.20
 -28  16  -5  -10.20   22.50
  16  12  -5   -0.30   42.50
  16  12  -5  -10.90   26.00
  16  12  -5  -40.30   29.40
  12 -28  -5   32.40   20.30
 -12  28   5   -6.10   40.90
 -12  28   5   42.80   47.70
 -16 -12   5   84.29   38.10
  19   9  -5   50.49   30.00
  19   9  -5  102.79   35.20
 -28  19  -5   66.19   26.90
  19   9  -5  122.49   46.60
   9 -28  -5   50.49   20.20
  28 -19   5   50.89   23.80
  -9  28   5   11.30   41.80
 -19  -9   5   34.70   41.70
 -28  22  -5   48.50   35.40
   6 -28  -5   33.40   16.30
  22   6  -5   52.09   31.10
  22   6  -5  119.99   26.60
 -22  -6   5   96.59   46.30
  28 -22   5   56.59   27.40
  -6  28   5   56.19   38.90
   9  20  -5  166.78   44.50
 -29   9  -5  153.08   16.20
  20 -29  -5  202.98   32.80
 -20  29   5  115.19   44.80
  29  -9   5  219.58   25.50
 -20  29   5  182.28   38.30
  12  17  -5  237.18   51.19
  17 -29  -5  221.78   30.60
  12  17  -5  127.39   28.80
 -29  12  -5  215.48   22.00
 -17  29   5  180.78   51.69
 -17  29   5  214.98   47.90
  29 -12   5  330.17   40.30
  15  14  -5  -37.40   27.90
  15  14  -5  126.09   47.30
 -29  15  -5   50.09   20.80
 -14  29   5  -18.90   48.30
 -14  29   5   92.09   40.60
  29 -15   5   49.20   23.60
  11 -29  -5   27.90   21.30
 -29  18  -5   22.90   25.00
  18  11  -5   38.60   32.00
  18  11  -5  -23.00   45.90
 -11  29   5   -5.10   44.60
  29 -18   5    7.40   22.30
 -18 -11   5    9.20   40.60
   8 -29  -5  -28.70   19.30
 -29  21  -5   13.30   11.00
  21   8  -5  -50.39   54.39
 -29  21  -5   62.69   29.90
  21   8  -5   15.30   49.10
  21   8  -5  -20.40   28.20
 -21  -8   5  -26.00   37.00
  -8  29   5  -55.49   43.50
  29 -21   5  -22.90   24.80
 -30  14  -5   -2.60   15.40
  14  16  -5    6.80   48.80
  16 -30  -5   31.10   25.50
 -16  30   5  113.89   48.20
  30 -14   5   40.90   24.70
 -16  30   5  -14.70   33.20
  30 -17   5   20.70   25.50
   0   0  -6 4773.42  101.99
   0   0  -6 4626.54  100.89
   0   0  -6 4807.02  102.19
   0   0   6 4690.83  104.89
   0   0   6 4714.43  102.09
  -1   2  -6  972.60   32.20
   2  -1  -6  925.71   32.40
  -1  -1  -6  925.81   29.80
   2  -1  -6  981.90   34.30
  -1   2  -6  884.81   31.80
   2  -1  -6  923.31   32.90
  -1   2  -6  961.70   32.40
  -1  -1  -6  936.91   29.90
  -1  -1  -6  912.51   29.10
  -2   1   6  988.10   36.60
   1   1   6  911.01   34.20
   1  -2   6 1005.20   35.10
   1   1   6 1008.90   33.40
  -2   1   6  893.41   36.10
  -2   1  -6 1410.36   39.00
  -2   1  -6 1507.55   40.00
   1  -2  -6 1413.26   40.10
   1  -2  -6 1366.06   40.60
   1   1  -6 1400.76   42.60
   1   1  -6 1404.96   42.30
  -2   1  -6 1390.06   39.00
   1   1  -6 1504.85   43.70
   1  -2  -6 1388.06   40.90
  -1   2   6 1472.85   45.00
  -1  -1   6 1429.26   44.40
   2  -1   6 1384.36   40.20
  -1   2   6 1388.26   43.20
   4  -2  -6 1595.14   48.30
   4  -2  -6 1411.76   44.30
  -2  -2  -6 1581.54   39.70
  -2   4  -6 1548.84   44.30
  -2  -2  -6 1532.75   37.70
  -2   4  -6 1563.34   43.90
  -2   4  -6 1502.35   44.10
   4  -2  -6 1519.65   45.90
  -2  -2  -6 1534.55   38.00
   2   2   6 1541.85   42.30
   2  -4   6 1578.54   46.10
  -4   2   6 1609.04   49.80
   2   2   6 1643.84   45.80
  -4   2   6 1563.44   49.30
   3  -3  -6 6243.88  130.29
  -3   0  -6 6090.79  123.49
   0   3  -6 6300.77  131.99
   0   3  -6 6276.67  130.79
   3  -3  -6 6330.87  131.79
   0   3  -6 6269.07  131.69
  -3   0  -6 6190.68  123.89
  -3   0  -6 6143.79  123.19
   3  -3  -6 6166.48  129.89
  -3   3   6 6392.26  135.79
   0  -3   6 6514.05  134.89
   3   0   6 6228.38  132.39
  -3   3   6 6468.55  136.89
   3   0   6 6292.87  127.29
   3   0  -6 3695.23   86.99
   0  -3  -6 3701.03   79.59
  -3   3  -6 3635.54   80.99
   3   0  -6 3665.03   86.09
  -3   3  -6 3785.32   81.29
  -3   3  -6 3667.83   81.99
   3   0  -6 3717.33   85.49
   0  -3  -6 3611.44   79.29
   0  -3  -6 3668.03   81.39
  -3   0   6 3882.31   93.09
  -3   0   6 3952.30   92.49
   3  -3   6 4060.39   86.79
   0   3   6 3871.21   89.59
   0   3   6 4031.70   88.19
  -3   6  -6 1552.44   44.90
   6  -3  -6 1554.24   49.20
  -3   6  -6 1509.05   44.40
   6  -3  -6 1432.66   45.30
  -3  -3  -6 1493.95   32.60
  -3  -3  -6 1466.15   32.10
  -3   6  -6 1571.64   46.00
  -6   3   6 1482.25   49.30
   3  -6   6 1404.86   45.50
   3   3   6 1449.46   43.00
  -6   3   6 1482.95   48.70
   3  -6   6 1476.85   45.00
   3   3   6 1487.35   39.10
  -1   5  -6  897.41   33.60
   5  -4  -6  906.91   34.80
  -1   5  -6  858.71   33.30
  -1   5  -6  837.92   32.90
   5  -4  -6  863.31   32.40
  -4  -1  -6  829.32   22.60
  -4  -1  -6  888.61   26.60
   4   1   6  943.61   27.90
  -5   4   6  855.11   36.30
   4   1   6  906.11   33.10
   1  -5   6  951.80   36.70
  -5   4   6  968.90   37.90
   2  -4  -6 1075.49   34.80
  -4   2  -6 1143.99   31.70
   2  -4  -6 1099.19   35.90
   2   2  -6 1118.99   38.20
  -4   2  -6 1090.89   31.90
   2   2  -6 1159.38   38.60
  -4   2  -6 1111.49   32.00
   2  -4  -6 1086.09   34.00
   2   2  -6 1105.79   38.70
  -2   4   6 1152.68   40.30
   4  -2   6 1134.49   36.10
  -2   4   6 1159.88   40.00
  -2  -2   6 1150.18   40.80
   4  -2   6 1141.99   33.40
  -4   5  -6  279.77   18.70
  -1  -4  -6  264.07   13.70
  -4   5  -6  281.27   20.20
   5  -1  -6  271.87   23.20
  -1  -4  -6  273.67   15.70
   5  -1  -6  288.97   22.40
  -4   5  -6  290.47   18.60
   1   4   6  270.27   21.20
   4  -5   6  235.98   20.10
   4  -5   6  247.48   21.10
  -5   1   6  252.17   24.20
  -5   1   6  245.48   24.50
   1   4   6  250.27   21.70
   8  -4  -6   57.59   14.20
  -4   8  -6   51.99   12.70
  -4   8  -6   37.40   12.10
  -4   8  -6   62.89   12.40
   8  -4  -6   41.30   11.60
  -8   4   6   56.19   16.40
   4   4   6   29.20   10.10
   4  -8   6   42.40   12.00
   4   4   6   29.70   11.80
  -8   4   6   27.40   15.90
  -2   7  -6  382.46   24.00
  -2   7  -6  352.76   24.20
   7  -5  -6  417.76   23.20
  -2   7  -6  364.46   23.80
   7  -5  -6  353.06   24.90
  -7   5   6  314.07   27.60
  -7   5   6  342.77   26.50
   5   2   6  313.77   16.10
   2  -7   6  328.37   26.50
   5   2   6  331.47   22.20
   2  -7   6  325.27   23.60
  -5   1  -6  885.51   25.00
   4  -5  -6  931.91   32.30
   1   4  -6  911.21   34.80
  -5   1  -6  913.91   25.60
   4  -5  -6  879.01   33.80
  -5   1  -6  892.41   24.30
   1   4  -6  870.61   33.70
   1   4  -6  927.11   34.90
   5  -1   6  937.61   31.00
  -4   5   6  903.41   37.80
  -1  -4   6  971.00   37.50
  -4   5   6  958.00   37.70
   5  -1   6  924.91   27.10
   1  -5  -6  614.44   22.70
   4   1  -6  587.04   28.60
   4   1  -6  578.64   29.50
   4   1  -6  594.34   29.50
   1  -5  -6  608.44   24.10
  -5   4  -6  604.84   22.60
  -5   4  -6  629.04   24.00
  -5   4  -6  587.54   23.60
  -1   5   6  656.53   29.60
  -1   5   6  593.84   29.50
  -4  -1   6  621.34   32.00
   5  -4   6  613.64   26.90
  -5   7  -6  392.56   22.80
   7  -2  -6  379.76   25.10
  -5   7  -6  379.96   22.30
  -2  -5  -6  346.47   12.40
   7  -2  -6  346.87   26.60
  -5   7  -6  391.06   21.50
  -2  -5  -6  375.46   11.40
  -7   2   6  336.27   29.20
   2   5   6  333.67   21.80
   5  -7   6  347.97   23.70
  -7   2   6  323.07   28.70
   2   5   6  351.56   24.00
  -5  10  -6  600.84   30.00
  10  -5  -6  640.94   34.10
  -5  10  -6  643.94   30.20
  10  -5  -6  604.74   29.70
   5   5   6  633.14   23.90
   5   5   6  632.54   27.30
 -10   5   6  654.63   34.70
 -10   5   6  618.74   37.80
   5 -10   6  715.03   33.70
   9  -6  -6  664.93   33.40
   9  -6  -6  668.43   30.70
  -3   9  -6  674.93   31.60
  -3   9  -6  682.93   31.20
   6   3   6  653.53   27.10
   3  -9   6  702.13   32.60
  -9   6   6  680.23   35.80
   6   3   6  677.03   20.30
  -9   6   6  714.03   38.90
   0   6  -6 1659.23   50.49
   6  -6  -6 1635.24   48.50
   0   6  -6 1729.73   51.59
   6  -6  -6 1729.13   51.89
   0   6  -6 1672.73   50.09
   6   0   6 1859.11   39.60
   6   0   6 1856.31   49.30
   0  -6   6 1879.51   55.29
  -6   6   6 1828.42   55.39
  -6   6   6 1876.01   56.99
   6   0   6 1812.22   46.70
   3  -6  -6 1116.69   34.20
  -6   3  -6 1108.29   30.70
  -6   3  -6 1127.19   30.40
   3   3  -6 1122.69   40.80
   3   3  -6 1116.29   40.40
   3   3  -6 1099.69   39.30
   3  -6  -6 1086.29   37.10
  -3  -3   6 1060.79   41.00
   6  -3   6 1087.49   34.80
  -3   6   6 1112.09   40.00
  -3   6   6 1019.80   39.10
  -6   6  -6 1698.03   44.10
  -6   6  -6 1673.33   45.10
   6   0  -6 1720.03   51.99
  -6   6  -6 1663.63   45.50
   0  -6  -6 1660.73   41.00
   0  -6  -6 1695.53   40.10
   6   0  -6 1700.73   53.39
   0   6   6 1559.74   46.40
  -6   0   6 1557.74   52.69
   0   6   6 1576.24   45.60
   6  -6   6 1461.75   45.20
  -6   9  -6  626.94   29.20
   9  -3  -6  603.74   33.90
   9  -3  -6  646.74   31.80
  -6   9  -6  588.64   27.50
  -6   9  -6  583.84   28.00
  -9   3   6  532.65   35.20
  -9   3   6  534.05   32.80
   3   6   6  603.84   26.70
   3   6   6  558.14   25.50
   6  -9   6  540.15   28.90
  12  -6  -6  670.83   36.10
  -6  12  -6  628.14   32.50
  12  -6  -6  657.73   32.70
  -6  12  -6  644.84   32.90
 -12   6   6  672.83   39.90
   6 -12   6  598.94   32.70
   6   6   6  592.14   23.80
 -12   6   6  623.44   36.90
   6   6   6  636.94   26.20
  -4  11  -6   10.30   12.50
  11  -7  -6    8.40   13.80
  -4  11  -6    7.80   12.40
  11  -7  -6   -1.80    9.70
 -11   7   6    2.40   15.30
   4 -11   6   36.00   13.90
   7   4   6    6.60    6.90
 -11   7   6   30.70   18.70
   7   4   6   19.90   10.70
   8  -7  -6  252.27   20.70
  -1   8  -6  202.48   21.80
   8  -7  -6  211.98   23.50
  -1   8  -6  180.88   21.50
  -1   8  -6  162.98   20.30
   7   1   6  281.87   20.60
   1  -8   6  291.37   26.60
   7   1   6  281.27   16.50
  -8   7   6  273.87   26.20
  -8   7   6  254.17   27.60
   2   5  -6  251.47   21.90
   2   5  -6  262.27   23.30
   2   5  -6  260.67   23.50
   5  -7  -6  244.58   18.90
   5  -7  -6  232.78   22.10
  -7   2  -6  266.27   10.50
  -2  -5   6  257.07   25.00
  -5   7   6  199.28   21.10
   7  -2   6  217.48   16.10
  -5   7   6  245.78   25.70
   2  -7  -6  193.28   15.00
  -7   5  -6  165.28   13.30
   2  -7  -6  188.68   17.20
   5   2  -6  185.48   21.50
   5   2  -6  178.58   21.60
  -7   5  -6  173.68   15.90
  -7   5  -6  158.58   13.70
   5   2  -6  166.18   20.30
  -2   7   6  178.38   23.80
   7  -5   6  166.48   16.80
  -5  -2   6  175.48   21.20
  -2   7   6  165.08   21.70
  -1  -7  -6  225.38    9.40
  -7   8  -6  243.98   20.10
  -1  -7  -6  230.18   11.10
  -7   8  -6  238.48   17.90
   8  -1  -6  212.08   23.10
  -7   8  -6  248.78   18.80
   8  -1  -6  209.98   23.60
   1   7   6  247.98   22.90
   1   7   6  202.98   21.90
  -8   1   6  207.28   27.40
   7  -8   6  211.48   20.00
  -7  11  -6   -0.80   10.70
  11  -4  -6    2.40   14.60
  -7  11  -6    3.80   12.00
 -11   4   6    3.90   13.90
 -11   4   6    8.60   17.10
   7 -11   6   -1.50   11.00
   4   7   6    2.50   11.10
   4   7   6    0.00   11.00
  -7  14  -6   59.79   16.40
  14  -7  -6   75.89   15.20
  14  -7  -6   40.50   16.30
  -7  14  -6   53.89   15.30
   7 -14   6   34.60   14.30
 -14   7   6   58.59   18.30
   7   7   6   56.99   12.10
 -14   7   6   60.99   21.60
   7   7   6   63.69   11.70
  -5  13  -6  339.37   27.60
  13  -8  -6  297.77   29.90
  13  -8  -6  346.77   34.90
  -5  13  -6  352.66   28.50
 -13   8   6  312.17   33.00
   8   5   6  343.47   15.20
   8   5   6  351.16   12.90
 -13   8   6  318.37   34.60
   5 -13   6  341.07   34.30
   8   5   6  364.76   20.00
  -2  10  -6  586.94   31.30
  -2  10  -6  581.04   31.60
  10  -8  -6  602.14   30.60
  10  -8  -6  550.54   33.00
 -10   8   6  589.54   35.40
   8   2   6  585.14   21.50
 -10   8   6  586.74   37.70
   2 -10   6  575.74   31.60
   8   2   6  610.24   25.00
   7  -8  -6  248.88   20.20
   7  -8  -6  212.08   23.20
   1   7  -6  182.88   21.00
   1   7  -6  200.98   23.40
   1   7  -6  194.68   22.30
   8  -1   6  250.37   15.90
  -1  -7   6  290.97   26.20
  -7   8   6  271.77   27.40
  -7   8   6  259.37   26.20
   4   4  -6  363.86   24.70
  -8   4  -6  323.37   13.40
   4   4  -6  313.97   25.50
  -8   4  -6  369.66   15.50
  -8   4  -6  357.96   13.70
   4  -8  -6  360.46   20.30
   4   4  -6  343.67   26.20
  -4  -4   6  329.17   28.70
   8  -4   6  320.27   19.40
  -4   8   6  327.17   28.70
  -4   8   6  352.06   26.00
   1  -8  -6  177.78   16.00
   7   1  -6  176.28   20.90
   7   1  -6  182.18   22.40
  -8   7  -6  170.58   17.90
  -8   7  -6  184.08   15.50
   1  -8  -6  189.08   12.10
  -8   7  -6  159.98   14.10
  -1   8   6  187.78   22.90
   8  -7   6  130.69   17.30
  -7  -1   6  153.58   21.90
  -1   8   6  130.39   17.80
  10  -2  -6  118.29   17.80
  -8  10  -6  129.99   17.30
  10  -2  -6  131.59   19.70
  -8  10  -6  131.59   16.00
   2   8   6  110.29   16.40
 -10   2   6  119.99   19.90
   2   8   6  125.39   16.80
   8 -10   6  142.79   18.30
 -10   2   6  114.49   20.90
  -8  13  -6  249.88   26.60
  13  -5  -6  169.08   20.30
  -8  13  -6  298.17   24.10
   5   8   6  233.58   21.50
   8 -13   6  266.77   25.70
 -13   5   6  259.57   32.70
   5   8   6  247.98   21.50
 -13   5   6  225.08   29.40
  16  -8  -6  345.77   28.20
  -8  16  -6  319.67   28.20
  16  -8  -6  284.67   32.00
  -8  16  -6  305.97   31.70
   8   8   6  363.36   19.00
   8 -16   6  355.16   29.90
   8   8   6  398.36   22.30
   8   8   6  364.16   20.70
 -16   8   6  337.07   38.00
 -16   8   6  369.46   34.50
  15  -9  -6  129.39   22.40
  -6  15  -6   99.29   19.50
  15  -9  -6  109.89   18.10
  -6  15  -6  174.48   22.70
   9   6   6  131.29   13.80
   9   6   6  126.79   15.80
 -15   9   6  104.89   24.90
   6 -15   6  153.08   22.50
   9   6   6  129.99   11.00
  12  -9  -6  477.95   33.20
  12  -9  -6  438.76   28.10
  -3  12  -6  440.86   31.20
  -3  12  -6  386.56   29.70
 -12   9   6  511.05   38.40
 -12   9   6  469.75   35.70
   9   3   6  524.95   22.10
   9   3   6  507.75   19.00
   0   9  -6  157.08   19.50
   9  -9  -6  154.48   20.90
   0   9  -6  171.58   22.60
   9  -9  -6  179.78   20.00
  -9   9   6  161.08   22.30
   9   0   6  186.68   18.70
  -9   9   6  228.08   25.40
   0  -9   6  200.88   25.90
   9   0   6  177.08   13.80
   3   6  -6  871.31   36.70
   3   6  -6  890.81   38.00
   3   6  -6  848.42   36.90
   6  -9  -6  863.71   32.30
  -6   9   6  841.32   37.70
  -6   9   6  825.02   39.00
  -3  -6   6  872.91   39.60
   9  -3   6  866.51   29.10
  -9   6  -6  516.15   19.70
   6   3  -6  474.45   29.90
   6   3  -6  505.55   28.40
   6   3  -6  554.44   31.70
  -9   6  -6  482.65   20.80
   3  -9  -6  498.35   21.30
   9  -6   6  468.95   23.70
  -3   9   6  498.25   29.00
  -3   9   6  486.05   32.10
  -6  -3   6  520.35   33.30
  -9   9  -6  514.25   25.80
   9   0  -6  507.55   32.00
   9   0  -6  450.25   28.40
  -9   9  -6  459.45   23.90
  -9   9  -6  479.85   22.40
   0  -9  -6  502.35   16.90
  -9   0   6  432.66   33.30
   0   9   6  405.26   28.30
   0   9   6  472.65   29.10
   9  -9   6  437.56   25.60
  -9  12  -6  142.39   17.20
  -9  12  -6  137.39   17.70
  12  -3  -6  157.28   23.10
 -12   3   6  170.88   24.80
   3   9   6  166.48   17.60
   3   9   6  161.18   17.80
   9 -12   6  167.28   22.40
 -12   3   6  180.38   23.00
  15  -6  -6  178.78   22.20
  -9  15  -6  238.28   28.60
  -9  15  -6  247.68   25.10
  15  -6  -6  219.38   28.30
   6   9   6  261.17   22.70
   6   9   6  255.47   20.60
 -15   6   6  238.08   45.40
 -15   6   6  187.08   31.40
   9 -15   6  255.07   27.70
  -9  18  -6   41.60   30.90
  -9  18  -6   71.69   20.10
 -18   9   6   76.19   27.10
   9 -18   6   73.99   18.70
 -18   9   6   71.79   22.50
   9   9   6   84.99   12.20
   9   9   6   74.29   13.30
  -7  17  -6  202.08   28.80
  -7  17  -6  213.18   25.70
  17 -10  -6  250.87   32.20
 -17  10   6  161.78   29.80
  10   7   6  184.78   16.90
  10   7   6  195.08   18.50
 -17  10   6  169.58   25.90
   7 -17   6  197.08   24.60
  -4  14  -6  146.99   20.50
  -4  14  -6  130.29   20.90
  14 -10  -6  143.19   20.40
  14 -10  -6  109.39   20.70
 -14  10   6   99.59   22.40
  10   4   6  118.29   11.80
   4 -14   6  134.99   21.50
  -1  11  -6   24.30   15.10
  11 -10  -6   13.70   15.20
  11 -10  -6    0.20   10.50
  -1  11  -6   19.70   14.30
  10   1   6   16.80    7.50
 -11  10   6   20.70   18.50
  10   1   6   12.60   10.00
 -11  10   6    2.90   15.90
   2   8  -6  474.25   31.50
   2   8  -6  450.45   29.60
   8 -10  -6  473.65   26.20
   2   8  -6  460.05   28.90
  -8  10   6  476.45   31.90
  -2  -8   6  538.25   33.40
  10  -2   6  484.25   20.90
  -8  10   6  553.04   34.20
   5 -10  -6  635.64   26.20
   5   5  -6  624.74   34.00
   5   5  -6  638.44   32.70
   5   5  -6  595.54   32.80
  10  -5   6  648.84   26.00
  -5  10   6  641.84   37.00
  -5  10   6  712.73   33.40
  -5  -5   6  607.34   36.40
 -10   8  -6   45.30   11.20
 -10   8  -6   50.59    9.10
   8   2  -6   37.70   15.20
   2 -10  -6   36.70    7.60
   8   2  -6   26.40   13.20
 -10   8  -6   45.00    9.40
  -2  10   6   26.70   16.40
  -2  10   6   28.10   15.50
  -8  -2   6   11.20   17.20
  10  -8   6   36.20   10.60
 -10  11  -6  100.69   13.50
 -10  11  -6   72.19   15.10
  11  -1  -6   99.39   18.40
 -11   1   6   81.39   20.00
  10 -11   6   88.49   15.30
   1  10   6   78.49   16.10
   1  10   6  101.29   17.40
 -10  14  -6   16.90   14.00
  14  -4  -6   41.30   19.10
 -10  14  -6   33.80   12.70
  14  -4  -6   -5.60   11.60
   4  10   6   35.60   14.60
 -14   4   6   25.00   21.40
   4  10   6   27.20   13.00
 -14   4   6   22.70   16.70
 -10  17  -6  250.67   28.90
 -10  17  -6  176.58   24.10
  17  -7  -6  158.08   25.90
 -17   7   6  149.49   24.80
 -17   7   6  221.58   30.70
   7  10   6  172.58   19.30
  10 -17   6  175.48   22.80
 -10  20  -6  295.37   38.50
 -10  20  -6  309.17   34.30
 -20  10   6  207.38   29.60
 -20  10   6  198.58   36.10
  10  10   6  248.08   20.10
  10  10   6  215.48   21.90
  -8  19  -6  137.79   24.30
  -8  19  -6  155.78   24.50
  11   8   6   89.79   12.70
 -19  11   6  116.19   26.90
  11   8   6  115.09   12.80
 -19  11   6  100.19   30.20
  -5  16  -6  441.66   50.09
  16 -11  -6  506.35   33.10
  16 -11  -6  481.35   36.60
  -5  16  -6  444.46   34.90
   5 -16   6  450.55   34.20
 -16  11   6  523.55   43.20
  11   5   6  485.75   19.50
 -16  11   6  449.95   39.00
  -2  13  -6  280.87   28.70
  13 -11  -6  274.17   25.40
  -2  13  -6  301.17   30.00
  13 -11  -6  265.67   35.00
  11   2   6  331.87   18.30
   2 -13   6  269.97   27.10
 -13  11   6  405.06   38.30
 -13  11   6  337.37   35.70
   1  10  -6   25.10   14.30
   1  10  -6   34.50   15.50
  10 -11  -6   40.80   12.40
 -10  11   6   -3.80   16.00
  11  -1   6   19.50    7.90
  -1 -10   6   10.60   15.30
 -10  11   6   20.30   16.00
   7 -11  -6   28.40   11.10
   4   7  -6   19.20   14.20
   4   7  -6   27.40   12.40
   4   7  -6   17.90   13.50
  11  -4   6   18.60    8.40
  -4  -7   6   12.70   15.20
  -7  11   6   64.59   15.50
  -7  11   6   37.10   17.70
 -11   7  -6   21.30    6.90
 -11   7  -6   28.60    8.70
   7   4  -6   32.70   13.90
   7   4  -6   21.30   15.70
   4 -11  -6   40.60    9.20
   7   4  -6   30.10   12.20
 -11   7  -6   37.00    7.50
  -4  11   6   25.30   14.10
  -7  -4   6   32.60   19.10
  -4  11   6   39.20   17.50
  11  -7   6   42.00   11.10
   1 -11  -6  148.59   10.40
 -11  10  -6  121.89   16.30
 -11  10  -6  139.49   15.90
 -11  10  -6  158.38   20.10
   1 -11  -6  115.59   13.40
  10   1  -6  151.48   21.20
  -1  11   6  149.59   19.90
 -10  -1   6  207.88   27.00
  -1  11   6  160.18   21.50
  11 -10   6  138.79   17.00
  13  -2  -6  256.87   30.60
 -11  13  -6  229.18   27.20
 -11  13  -6  260.47   22.10
  13  -2  -6  324.57   28.60
  11 -13   6  312.07   26.50
 -13   2   6  280.07   33.80
   2  11   6  293.27   25.90
   2  11   6  322.57   28.10
  16  -5  -6   52.59   19.40
  16  -5  -6   -2.30   10.90
 -11  16  -6   24.80   18.20
 -11  16  -6   47.70   15.50
 -16   5   6   30.30   21.60
   5  11   6   39.10   15.10
 -16   5   6   84.79   21.70
  11 -16   6   42.60   17.00
   5  11   6   49.80   13.60
 -11  19  -6  274.77   35.30
 -19   8   6  252.27   38.60
 -19   8   6  302.87   33.80
   8  11   6  282.07   24.40
   8  11   6  264.37   21.40
  11 -19   6  261.67   31.10
 -11  22  -6   16.20   26.20
 -11  22  -6   61.39   22.80
 -22  11   6   28.20   29.20
 -22  11   6   32.80   27.60
  11  11   6   12.10   13.20
  11  11   6   18.60   13.10
  -9  21  -6  196.78   27.50
  -9  21  -6  295.17   37.70
  12   9   6  234.88   18.90
 -21  12   6  289.77   45.50
 -21  12   6  252.47   31.50
  12   9   6  202.58   18.90
  18 -12  -6  102.59   22.30
  -6  18  -6   44.70   19.50
  -6  18  -6   45.00   18.40
  12   6   6   53.99    9.80
 -18  12   6   28.90   19.70
 -18  12   6   43.50   24.70
  -3  15  -6   88.39   20.70
  15 -12  -6  114.59   17.70
  15 -12  -6  138.29   24.20
  12   3   6  131.99   10.50
   3 -15   6  160.88   21.50
 -15  12   6  145.49   24.80
 -15  12   6  132.99   28.30
  12   3   6  147.89   14.40
   0  12  -6  439.96   31.60
   0  12  -6  382.96   31.90
  12 -12  -6  447.36   29.00
 -12  12   6  423.16   34.30
 -12  12   6  515.25   38.70
  12   0   6  467.55   18.60
   3   9  -6  267.47   28.70
   9 -12  -6  275.07   23.00
   3   9  -6  278.47   28.40
  -3  -9   6  342.67   32.90
  12  -3   6  317.17   18.30
  -9  12   6  341.07   32.80
  -9  12   6  397.96   31.90
   6   6  -6  595.74   34.80
   6 -12  -6  568.54   26.00
   6   6  -6  534.05   34.30
   6   6  -6  511.35   36.40
  12  -6   6  567.44   25.70
  -6  12   6  577.14   37.90
  -6  -6   6  591.44   38.40
  -6  12   6  608.64   34.20
   3 -12  -6  205.48   15.70
   9   3  -6  237.98   26.50
 -12   9  -6  205.38   15.30
 -12   9  -6  214.28   18.60
 -12   9  -6  199.08   15.30
  12  -9   6  249.78   21.40
  -3  12   6  224.68   29.80
  -9  -3   6  257.97   30.90
  -3  12   6  240.58   29.00
 -12  12  -6  541.65   25.80
  12   0  -6  558.54   32.80
  12   0  -6  555.24   36.20
 -12  12  -6  577.94   30.30
   0  12   6  584.64   33.80
 -12   0   6  631.14   41.10
  12 -12   6  608.94   32.10
   0  12   6  593.74   35.60
 -12  15  -6  234.28   24.40
  15  -3  -6  220.98   25.30
  15  -3  -6  192.98   25.60
 -12  15  -6  245.58   25.70
   3  12   6  257.37   25.50
 -15   3   6  301.37   34.90
  12 -15   6  302.67   29.10
   3  12   6  272.77   29.00
 -12  18  -6   17.60   20.60
 -12  18  -6   39.40   17.50
 -18   6   6    7.00   20.10
  12 -18   6   21.10   15.70
   6  12   6   27.80   13.80
 -18   6   6   16.30   26.70
 -12  21  -6  154.28   27.10
 -12  21  -6  201.08   28.10
 -21   9   6  213.58   31.90
 -21   9   6  212.18   34.80
   9  12   6  209.88   22.70
  12 -21   6  275.57   34.00
   9  12   6  215.18   19.60
  24 -12  -6   78.89   41.90
 -12  24  -6  122.09   31.20
  24 -12  -6  154.88   28.50
  12  12   6  155.98   19.90
  12  12   6  151.28   18.90
 -24  12   6  136.59   40.00
 -24  12   6  153.08   36.90
  13  10   6  455.85   24.60
 -23  13   6  450.85   48.70
 -23  13   6  440.06   55.79
  13  10   6  459.55   26.40
  -7  20  -6  319.07   39.90
  -7  20  -6  293.97   35.00
 -20  13   6  327.17   39.90
 -20  13   6  303.47   40.30
  17 -13  -6  274.07   33.20
  17 -13  -6  292.97   27.70
  -4  17  -6  229.38   26.80
  -4  17  -6  258.47   32.40
  13   4   6  250.57   11.20
 -17  13   6  234.98   30.70
 -17  13   6  274.17   36.60
  -1  14  -6   45.80   18.00
  14 -13  -6   46.50   14.70
  -1  14  -6   11.50   15.80
 -14  13   6   40.70   21.30
  13   1   6   53.19    9.30
  13   1   6   56.29   10.10
   2  11  -6  319.87   31.00
   2  11  -6  291.57   29.90
  11 -13  -6  284.27   24.50
  13  -2   6  352.46   17.60
 -11  13   6  310.27   31.90
 -11  13   6  395.26   35.50
   5   8  -6  345.67   27.50
   5   8  -6  391.56   30.90
   8 -13  -6  340.07   23.20
   5   8  -6  388.86   30.90
  -8  13   6  335.07   33.90
  13  -5   6  377.76   20.20
  -5  -8   6  380.86   35.80
  -8  13   6  428.26   33.90
   5 -13  -6  256.47   18.20
 -13   8  -6  253.57   13.50
   8   5  -6  254.77   31.90
   8   5  -6  259.67   25.40
   8   5  -6  245.48   29.50
 -13   8  -6  257.17   13.10
  -8  -5   6  270.67   31.90
  -5  13   6  241.48   28.80
  -5  13   6  263.47   33.50
  13  -8   6  240.48   20.50
  11   2  -6  320.57   27.60
   2 -13  -6  343.27   15.40
 -13  11  -6  301.37   19.10
 -13  11  -6  347.07   24.20
 -13  11  -6  367.46   20.80
  11   2  -6  301.37   31.00
  -2  13   6  359.26   33.80
  -2  13   6  421.26   32.10
  13 -11   6  379.46   26.60
 -11  -2   6  400.36   36.10
 -13  14  -6  108.09   19.00
  14  -1  -6  105.19   22.50
  14  -1  -6  111.29   20.10
 -13  14  -6  114.39   17.30
 -14   1   6   94.69   24.60
  13 -14   6  158.78   22.30
   1  13   6  152.08   20.90
   1  13   6  131.89   22.10
 -13  17  -6   17.20   19.60
  17  -4  -6    2.90   13.00
 -13  17  -6   19.30   15.50
  13 -17   6   27.10   16.00
 -17   4   6   11.10   23.50
   4  13   6    0.00   13.90
 -13  20  -6  154.38   28.90
  20  -7  -6  163.28   22.80
 -13  20  -6  148.59   24.70
 -20   7   6  111.49   30.20
  13 -20   6  167.08   25.50
   7  13   6  142.79   18.80
 -20   7   6  193.78   30.90
   7  13   6  172.28   20.70
 -13  23  -6  324.47   39.70
 -13  23  -6  329.37   37.30
  23 -10  -6  320.27   36.10
 -23  10   6  339.17   45.90
  10  13   6  330.57   29.30
  13 -23   6  403.86   40.10
 -23  10   6  490.75   53.89
  10  13   6  358.96   29.50
  26 -13  -6  706.73   59.79
  26 -13  -6  642.94   51.09
 -13  26  -6  647.94   53.59
 -13  26  -6  615.24   61.99
 -26  13   6  623.14   69.69
 -26  13   6  745.73   70.89
  13 -26   6  685.23   53.89
  13  13   6  652.43   34.80
  13  13   6  571.04   36.80
  25 -14  -6   57.29   24.70
 -11  25  -6   82.49   32.90
 -11  25  -6   58.69   31.40
  25 -14  -6  142.89   35.00
 -25  14   6   78.89   37.40
  14  11   6   75.49   16.30
 -25  14   6   81.39   36.80
  11 -25   6   58.19   26.70
  14  11   6   77.09   17.10
  -8  22  -6  155.98   30.60
 -22  14   6  201.68   42.40
 -22  14   6  178.68   31.30
  14   8   6  141.69   16.70
  -5  19  -6   11.40   19.30
  -5  19  -6   58.79   23.50
 -19  14   6   57.79   24.10
 -19  14   6   29.00   25.20
  16 -14  -6  200.88   26.00
  -2  16  -6  192.28   27.20
 -16  14   6  194.68   29.60
  14   2   6  171.18   15.80
  14   2   6  201.78   10.90
 -16  14   6  163.38   28.10
   2 -16   6  153.28   22.80
   1  13  -6  128.19   23.20
  13 -14  -6  103.89   18.70
   1  13  -6   85.99   19.90
 -13  14   6  115.99   29.20
 -13  14   6  128.79   23.60
  14  -1   6  124.59   12.40
   4  10  -6   35.40   17.10
  10 -14  -6    8.70   11.80
   4  10  -6    0.30   24.30
  -4 -10   6    9.20   19.50
 -10  14   6   39.60   17.90
 -10  14   6    0.10   19.50
  14  -4   6   16.60    7.90
   7   7  -6   47.80   17.20
   7   7  -6   38.10   14.80
   7   7  -6   50.59   19.40
   7 -14  -6   50.89   11.50
  -7  14   6   32.60   21.00
  -7  -7   6   44.60   20.20
  -7  14   6   41.20   18.10
  14  -7   6   54.09   11.80
 -14  10  -6    0.70    7.10
 -14  10  -6    8.60    7.20
  10   4  -6    4.60   12.40
 -14  10  -6    7.00    9.90
  10   4  -6   19.30   15.80
   4 -14  -6    9.50    8.00
 -10  -4   6    5.90   19.10
  14 -10   6   25.10   10.80
  -4  14   6   20.50   19.10
  -4  14   6   10.50   17.40
  13   1  -6   73.09   22.00
  13   1  -6  121.29   20.20
 -14  13  -6  103.19   14.90
 -14  13  -6  108.59   17.10
 -13  -1   6  114.29   27.60
  -1  14   6  135.59   21.50
  14 -13   6  137.89   19.00
  -1  14   6  120.49   23.30
  16  -2  -6  130.09   23.30
 -14  16  -6  107.79   18.40
 -14  16  -6  128.19   21.70
 -16   2   6  104.49   28.10
   2  14   6  111.69   18.50
  14 -16   6   83.19   19.70
  19  -5  -6    2.50   14.20
 -14  19  -6   22.10   17.80
 -14  19  -6   29.60   22.20
 -19   5   6   64.79   26.90
   5  14   6   43.90   16.90
  14 -19   6   41.30   19.60
 -14  22  -6   67.29   28.10
 -14  22  -6   28.60   21.00
  22  -8  -6   96.29   21.20
   8  14   6   24.60   17.10
   8  14   6   27.70   17.70
  14 -22   6   27.70   19.90
 -22   8   6   13.90   28.70
 -22   8   6    8.20   33.20
 -14  25  -6  199.98   37.40
  25 -11  -6  252.67   39.50
  25 -11  -6  190.18   28.20
  11  14   6  201.88   22.90
  14 -25   6  197.48   32.40
  11  14   6  218.58   25.60
 -25  11   6  229.68   40.60
 -25  11   6  166.48   40.60
  28 -14  -6  156.68   31.90
  28 -14  -6  249.68   44.80
 -14  28  -6  285.77   49.80
 -14  28  -6  190.08   39.60
  14  14   6  293.27   33.70
 -28  14   6  251.17   49.99
  14  14   6  325.77   37.40
 -28  14   6  184.88   44.80
  27 -15  -6   75.89   30.20
 -12  27  -6  158.38   37.10
  27 -15  -6   32.20   22.70
 -12  27  -6  110.99   41.90
  15  12   6  128.49   19.00
  12 -27   6   94.39   24.90
 -27  15   6   88.69   42.00
  15  12   6  122.89   20.70
 -27  15   6   73.09   44.80
  -9  24  -6  484.45   50.59
   9 -24   6  400.26   62.69
 -24  15   6  358.36   48.10
  15   9   6  408.26   24.50
 -24  15   6  538.65   53.69
 -21  15   6  894.11   55.49
 -21  15   6  823.72   61.69
  18 -15  -6  150.18   21.60
  -3  18  -6  122.99   23.30
  -3  18  -6  184.98   28.20
 -18  15   6  192.98   32.10
 -18  15   6  165.98   31.30
   0  15  -6  337.87   35.30
   0  15  -6  324.67   35.40
  15 -15  -6  379.96   30.20
 -15  15   6  397.16   41.50
 -15  15   6  450.05   46.00
   3  12  -6  140.59   23.20
  12 -15  -6  109.19   22.70
   3  12  -6   96.39   21.30
  15  -3   6  141.49   13.70
 -12  15   6  173.98   24.50
 -12  15   6  151.38   26.70
   6   9  -6  380.56   29.60
   6   9  -6  363.26   32.60
   9 -15  -6  375.76   24.50
   6   9  -6  315.47   32.50
  -6  -9   6  321.87   43.10
  -9  15   6  437.06   39.20
  15  -6   6  377.16   20.90
  -9  15   6  383.96   37.20
 -15   9  -6  214.18   15.30
   9   6  -6  248.68   31.80
 -15   9  -6  210.18   13.10
   9   6  -6  252.57   27.30
   9   6  -6  196.48   25.60
   6 -15  -6  252.27   20.20
  15  -9   6  193.48   19.60
  -6  15   6  263.07   31.90
  -6  15   6  226.28   29.20
 -15  12  -6  261.87   22.40
 -15  12  -6  266.17   19.30
 -15  12  -6  253.67   19.20
  12   3  -6  221.88   27.80
   3 -15  -6  245.48   15.50
  12   3  -6  264.77   27.30
 -12  -3   6  231.88   29.70
  -3  15   6  273.07   27.10
  -3  15   6  299.57   36.80
  15 -12   6  316.07   25.40
 -15  15  -6  534.25   33.80
  15   0  -6  331.87   35.70
 -15  15  -6  501.95   28.90
  15   0  -6  455.45   33.10
 -15   0   6  523.65   48.00
   0  15   6  515.25   38.30
   0  15   6  477.95   34.90
  15 -15   6  575.94   34.50
 -15  18  -6  491.55   39.30
 -15  18  -6  465.85   33.50
  18  -3  -6  448.86   36.10
  15 -18   6  540.55   36.60
   3  15   6  493.95   33.30
 -18   3   6  427.56   50.39
 -15  21  -6  182.88   31.20
  21  -6  -6  100.89   19.50
 -15  21  -6  130.89   23.80
  15 -21   6  211.58   29.70
 -21   6   6  213.58   37.60
   6  15   6  222.98   25.20
  24  -9  -6  100.59   30.60
 -15  24  -6  129.79   34.00
 -15  24  -6  110.19   26.30
  24  -9  -6  130.09   26.50
   9  15   6  124.49   23.60
   9  15   6  147.79   23.40
 -24   9   6  123.69   37.70
  15 -24   6  141.09   28.20
  27 -12  -6  356.46   43.30
 -15  27  -6  227.28   38.60
 -15  27  -6  304.37   49.70
 -27  12   6  161.88   50.19
  12  15   6  214.78   26.00
 -27  12   6  323.07   47.70
  12  15   6  228.28   28.90
  26 -16  -6  308.97   35.70
 -10  26  -6  470.75   52.49
 -10  26  -6  510.75   56.89
  16  10   6  424.76   27.00
 -26  16   6  373.56   51.89
  16  10   6  403.66   23.90
 -26  16   6  569.84   67.09
  10 -26   6  292.97   36.70
  -7  23  -6 1003.50   58.89
   7 -23   6  982.50   55.49
 -23  16   6  985.30   60.39
 -23  16   6 1086.79   75.89
 -20  16   6  742.03   50.89
 -20  16   6  672.03   56.19
  -1  17  -6    1.10   21.60
  17 -16  -6    3.40   15.30
  -1  17  -6   11.20   19.50
 -17  16   6   36.50   27.30
  16   1   6   36.00    6.40
 -17  16   6   -3.30   21.20
   2  14  -6   95.39   21.90
  14 -16  -6  107.19   18.90
   2  14  -6   93.29   23.70
  16  -2   6   91.39   12.10
 -14  16   6   70.69   23.90
 -14  16   6   83.39   20.80
   5  11  -6  590.34   40.20
  11 -16  -6  609.44   31.70
   5  11  -6  562.54   39.50
  -5 -11   6  586.04   43.10
  16  -5   6  589.14   24.10
 -11  16   6  615.84   43.90
 -11  16   6  602.14   44.20
   8   8  -6  374.66   33.40
   8 -16  -6  345.47   23.50
   8   8  -6  279.97   36.10
   8   8  -6  352.06   30.10
  16  -8   6  346.67   22.30
  -8  -8   6  304.57   36.80
  -8  16   6  347.47   39.60
  -8  16   6  339.67   34.10
 -16  11  -6   30.90   10.50
  11   5  -6   68.19   22.50
 -16  11  -6   45.00    8.20
 -16  11  -6   38.30   12.00
  11   5  -6   68.59   20.10
   5 -16  -6   32.50   10.50
 -16  11  -6   41.70    9.80
  11   5  -6   -4.20   13.30
  -5  16   6   40.00   21.30
  16 -11   6   51.99   13.40
  -5  16   6   29.30   23.10
 -11  -5   6   47.20   24.00
 -16  14  -6  220.78   21.40
  14   2  -6  249.58   32.00
 -16  14  -6  256.47   26.10
  14   2  -6  255.27   30.00
  -2  16   6  285.77   31.70
  -2  16   6  258.97   33.50
 -14  -2   6  262.07   34.00
  16 -14   6  263.67   26.60
 -16  17  -6  401.36   36.00
 -16  17  -6  354.56   29.40
  17  -1  -6  443.66   36.80
  16 -17   6  406.26   33.40
 -17   1   6  419.76   49.40
   1  16   6  379.46   32.80
 -16  20  -6  205.48   26.10
  20  -4  -6  175.88   24.30
 -20   4   6  284.87   42.60
   4  16   6  254.47   33.30
  16 -20   6  265.87   33.60
  23  -7  -6  331.17   36.70
  23  -7  -6  276.37   37.50
 -16  23  -6  468.05   51.59
 -16  23  -6  348.67   38.90
 -23   7   6  331.37   42.60
  16 -23   6  411.66   42.40
   7  16   6  378.56   35.00
   7  16   6  365.26   36.00
  26 -10  -6  341.67   45.20
 -16  26  -6  518.45   51.69
  26 -10  -6  517.75   55.99
  10  16   6  578.64   42.40
  16 -26   6  392.16   47.80
 -26  10   6  434.36   51.99
  10  16   6  548.15   40.50
 -11  28  -6   84.79   39.40
 -11  28  -6  157.38   41.60
 -28  17   6  118.49   47.70
  17  11   6  161.78   19.80
 -28  17   6   69.99   42.70
  17  11   6  129.99   16.80
  -8  25  -6   66.69   29.00
  25 -17  -6   83.39   27.80
  -8  25  -6   58.69   30.60
 -25  17   6   45.40   38.10
   8 -25   6   87.79   29.20
  17   8   6   65.09   13.00
 -25  17   6   55.29   32.30
  -5  22  -6  111.59   29.10
 -22  17   6   62.89   28.20
   5 -22   6   81.29   23.40
 -22  17   6   42.30   34.40
 -19  17   6  167.28   33.00
 -19  17   6  215.18   31.80
   1  16  -6  107.89   24.30
   1  16  -6  135.69   24.80
  16 -17  -6  138.49   21.70
  17  -1   6  136.19   12.10
 -16  17   6  179.88   32.00
 -16  17   6  135.79   30.80
   4  13  -6  379.56   36.50
   4  13  -6  343.17   33.90
  13 -17  -6  318.77   27.10
  17  -4   6  313.27   18.60
 -13  17   6  447.06   39.70
 -13  17   6  364.86   38.40
   7  10  -6   85.49   21.60
   7  10  -6   99.29   19.30
   7  10  -6  111.69   24.60
  10 -17  -6   94.89   15.30
  -7 -10   6   84.29   23.20
  17  -7   6   97.29   12.90
 -10  17   6  100.29   31.80
 -10  17   6   83.49   22.30
  10   7  -6  157.18   27.90
 -17  10  -6  150.18   13.70
  10   7  -6  126.19   20.10
  10   7  -6  157.58   24.00
 -17  10  -6  116.19   12.30
   7 -17  -6  168.38   19.60
  -7  17   6  128.89   24.00
 -10  -7   6  133.39   26.70
  17 -10   6  118.19   16.00
  -7  17   6  105.89   27.00
   4 -17  -6   12.80    8.60
  13   4  -6    1.10   13.50
 -17  13  -6   -9.60    9.10
  13   4  -6   31.10   25.30
 -17  13  -6   11.60   10.70
 -17  13  -6    6.00   12.10
  17 -13   6    3.40   12.70
  -4  17   6   11.00   23.70
  -4  17   6    7.70   20.00
 -13  -4   6  -26.10   22.70
  16   1  -6  345.17   33.30
 -17  16  -6  358.36   32.70
  -1  17   6  362.66   35.60
  17 -16   6  394.86   31.80
 -16  -1   6  398.06   49.00
  19  -2  -6  117.19   25.00
 -17  19  -6  113.59   24.80
 -19   2   6  102.79   33.10
  17 -19   6  113.09   22.50
   2  17   6  103.49   21.80
 -17  22  -6  199.08   32.70
 -17  22  -6  154.88   26.80
 -22   5   6  102.59   35.20
  17 -22   6  190.48   29.10
   5  17   6  140.99   25.30
  25  -8  -6  100.39   32.00
 -17  25  -6   99.59   37.00
  25  -8  -6  101.89   27.70
   8  17   6  123.69   26.10
 -25   8   6  145.09   43.30
   8  17   6  122.99   26.60
  17 -25   6  135.69   31.00
  28 -11  -6   62.59   27.30
 -17  28  -6   63.19   42.90
 -17  28  -6   58.99   34.50
  28 -11  -6   66.39   62.49
 -28  11   6   77.99   40.20
  11  17   6  101.29   27.20
  -9  27  -6  131.39   35.00
  -9  27  -6  161.88   38.50
 -27  18   6  202.38   51.39
 -27  18   6  174.38   46.40
   9 -27   6  195.88   24.60
  18   9   6  214.58   22.80
  -6  24  -6  459.05   49.99
  24 -18  -6  570.84   48.10
  -6  24  -6  546.45   57.09
 -24  18   6  409.26   51.99
   6 -24   6  456.45   48.20
 -24  18   6  574.24   56.09
  21 -18  -6  882.01   48.80
  -3  21  -6  965.20   56.59
 -21  18   6  895.21   59.19
 -21  18   6  873.71   63.59
   3 -21   6  888.41   51.19
 -18  18   6  673.53   55.79
 -18  18   6  721.43   51.59
  18   0   6  737.83   23.10
   3  15  -6  175.78   28.60
   3  15  -6  212.68   30.10
  15 -18  -6  222.38   24.90
 -15  18   6  196.88   37.60
 -15  18   6  317.97   38.20
  18  -3   6  237.08   16.40
   6  12  -6   41.30   25.20
   6  12  -6   29.20   19.30
  12 -18  -6   45.40   14.40
 -12  18   6   20.90   23.60
 -12  18   6   62.39   25.70
  18  -6   6   28.10    9.40
  -6 -12   6   36.60   22.00
   9 -18  -6   34.90   13.40
   9   9  -6   19.20   19.20
   9   9  -6   64.09   24.20
   9   9  -6   17.10   17.20
  -9  18   6   46.40   19.90
  -9  -9   6   31.80   22.00
  18  -9   6   31.60   11.50
 -18  12  -6   35.60   13.10
  12   6  -6   26.00   15.80
   6 -18  -6   46.60   11.60
  12   6  -6   48.00   21.30
 -18  12  -6   34.60   10.80
  18 -12   6   27.00   12.50
  -6  18   6   25.10   24.10
 -12  -6   6    1.50   21.40
   3 -18  -6  322.77   16.40
  15   3  -6  315.77   32.40
 -18  15  -6  341.97   28.30
  -3  18   6  312.37   42.50
 -15  -3   6  343.27   41.90
  18 -15   6  316.87   29.20
  -3  18   6  335.27   38.60
  18   0  -6 1007.40   50.69
 -18  18  -6  968.70   46.60
   0  18   6  885.91   46.10
  18 -18   6 1041.80   46.30
 -18   0   6  920.91   59.49
 -18  21  -6  344.87   47.50
  21  -3  -6  402.16   40.20
   3  18   6  422.46   40.60
  18 -21   6  426.86   40.40
 -21   3   6  371.86   44.50
  24  -6  -6  134.99   26.70
  24  -6  -6  197.68   36.00
  18 -24   6  409.06   48.20
   6  18   6  402.56   40.00
 -24   6   6  286.27   45.80
  27  -9  -6  194.98   28.20
  27  -9  -6   85.09   25.60
 -18  27  -6  123.49   33.20
 -18  27  -6  177.08   44.00
 -27   9   6  189.88   48.50
   9  18   6  182.88   31.50
  18 -27   6  193.98   22.50
   9  18   6  222.88   31.20
  -7  26  -6  216.48   42.40
  -7  26  -6  152.28   37.20
  26 -19  -6  109.69   26.30
   7 -26   6  213.18   36.50
 -26  19   6  207.48   50.59
 -26  19   6  239.68   44.10
  23 -19  -6  250.77   32.50
  -4  23  -6  280.67   37.50
  -4  23  -6  352.66   41.90
 -23  19   6  475.95   53.19
 -23  19   6  340.57   48.90
   4 -23   6  352.76   38.40
  -1  20  -6  353.86   43.30
 -20  19   6  296.27   39.00
 -20  19   6  277.47   38.80
  19   1   6  287.57   13.60
  17 -19  -6  -17.50   14.30
   2  17  -6   29.00   24.70
   2  17  -6   42.80   27.10
 -17  19   6   64.59   33.20
 -17  19   6   95.59   27.20
  19  -2   6   82.59   10.20
  14 -19  -6  103.99   19.00
   5  14  -6   56.29   21.30
   5  14  -6  123.69   29.40
 -14  19   6  161.38   31.10
  19  -5   6  129.89   15.80
 -14  19   6  196.08   34.20
   8  11  -6    2.60   21.10
  11 -19  -6   36.30   14.60
   8  11  -6   34.20   17.40
   8  11  -6    9.00   21.30
  19  -8   6   22.50   10.80
 -11  19   6   19.00   22.00
 -11  19   6   45.00   25.90
  -8 -11   6    8.80   24.20
  11   8  -6  304.67   33.40
 -19  11  -6  261.37   20.00
 -19  11  -6  311.37   19.70
   8 -19  -6  314.27   24.00
  11   8  -6  334.97   33.30
  19 -11   6  253.57   24.10
  -8  19   6  223.98   30.90
  -8  19   6  287.67   37.10
 -11  -8   6  205.18   32.10
   5 -19  -6   85.19   12.40
 -19  14  -6   79.29   12.00
 -19  14  -6   79.59   14.80
  14   5  -6   84.49   21.80
 -19  14  -6  109.39   18.30
  -5  19   6   55.69   50.69
 -14  -5   6  112.09   32.40
  -5  19   6   94.29   26.40
 -19  17  -6   83.09   20.10
  17   2  -6   76.19   22.70
  19 -17   6   79.09   18.50
  -2  19   6   59.69   24.00
 -17  -2   6   64.99   28.90
 -19  20  -6  233.48   29.10
  20  -1  -6  169.68   27.40
 -20   1   6  205.88   40.10
   1  19   6  213.08   28.20
  19 -20   6  217.78   28.80
  23  -4  -6  159.38   28.70
 -19  23  -6  277.47   35.90
   4  19   6  295.57   33.60
  19 -23   6  354.36   45.00
 -23   4   6  345.87   46.50
  26  -7  -6  335.67   43.10
 -19  26  -6  258.97   42.50
   7  19   6  304.67   35.10
  19 -26   6  207.88   34.40
   7  19   6  308.27   35.70
 -26   7   6  222.48   51.39
  -5  25  -6  209.28   38.60
  -5  25  -6  256.37   41.80
  25 -20  -6  130.89   30.60
 -25  20   6  223.48   40.80
 -25  20   6  168.38   48.40
   5 -25   6  228.58   35.90
  -2  22  -6    0.50   26.50
  22 -20  -6   14.60   21.70
  -2  22  -6    3.20   25.30
 -22  20   6   -0.80   31.90
 -22  20   6  -12.60   30.40
   1  19  -6  211.08   33.60
 -19  20   6  214.88   37.80
 -19  20   6  169.88   33.40
  20  -1   6  244.68   15.70
   4  16  -6  517.35   51.49
  16 -20  -6  470.25   33.30
  20  -4   6  546.65   23.70
 -16  20   6  552.04   57.29
 -16  20   6  682.23   50.19
  13 -20  -6  419.86   30.10
   7  13  -6  460.95   44.60
  20  -7   6  468.45   25.00
 -13  20   6  486.55   47.80
 -13  20   6  569.04   50.19
  10 -20  -6  307.87   28.50
  10  10  -6  251.17   31.00
  10  10  -6  360.76   41.10
  20 -10   6  247.88   23.70
 -10  20   6  287.27   32.50
 -10 -10   6  259.17   36.00
 -10  20   6  289.67   39.60
  13   7  -6  190.18   25.30
   7 -20  -6  183.78   21.90
 -20  13  -6  182.78   18.90
  13   7  -6  206.98   30.30
 -13  -7   6  202.58   37.60
  -7  20   6  196.78   31.30
  20 -13   6  204.18   25.30
  -7  20   6  198.28   35.20
   4 -20  -6  203.88   17.40
 -20  16  -6  227.58   27.40
 -20  16  -6  234.08   24.60
  16   4  -6  187.28   26.60
  -4  20   6  261.67   34.50
  -4  20   6  314.37   34.40
  20 -16   6  267.07   29.90
 -16  -4   6  226.08   38.30
  19   1  -6  150.98   25.80
 -20  19  -6  160.28   26.50
  20 -19   6  275.17   34.10
 -19  -1   6  144.49   37.20
  -1  20   6  157.18   32.90
  22  -2  -6  102.49   32.20
 -20  22  -6  142.69   29.30
  22  -2  -6  100.29   28.90
  20 -22   6  137.29   26.50
 -22   2   6   80.89   39.80
   2  20   6  140.19   51.29
 -20  25  -6  101.29   34.30
  25  -5  -6   89.19   31.10
  20 -25   6   69.59   29.90
   5  20   6   64.09   27.20
   5  20   6   48.30   33.10
 -25   5   6   66.69   40.20
  -6  27  -6  217.78   28.60
  -6  27  -6  235.88   33.20
   6 -27   6  209.18   22.80
 -27  21   6  277.27   50.49
 -27  21   6  196.98   35.00
  -3  24  -6  168.88   36.90
  -3  24  -6  283.17   41.40
  24 -21  -6  344.07   43.60
 -24  21   6  295.87   54.99
 -24  21   6  244.38   45.10
   0  21  -6  141.69   34.10
   0  21  -6  119.19   31.90
  21 -21  -6   99.19   24.80
 -21  21   6   53.99   29.40
  21   0   6   49.90   11.30
 -21  21   6   22.60   35.40
   3  18  -6  525.65   52.99
   3  18  -6  562.04   51.19
 -18  21   6  410.56   54.49
  21  -3   6  444.46   22.20
 -18  21   6  632.24   57.59
  15 -21  -6  699.33   37.50
   6  15  -6  608.34   48.40
 -15  21   6  589.34   52.59
  21  -6   6  582.54   26.90
 -15  21   6  727.53   57.49
  12 -21  -6  209.28   27.60
   9  12  -6  205.98   31.60
   9  12  -6  195.38   28.60
 -12  21   6  212.98   37.90
  21  -9   6  204.08   21.60
 -12  21   6  286.27   36.10
  -9 -12   6  236.28   36.70
  12   9  -6   99.99   27.40
 -21  12  -6  120.59   14.60
   9 -21  -6  123.89   18.00
  12   9  -6  113.09   22.50
  21 -12   6  134.79   19.20
 -12  -9   6  140.19   35.60
  -9  21   6  116.39   35.40
  -9  21   6  140.19   31.70
   6 -21  -6  149.09   16.30
  15   6  -6  115.49   24.30
 -21  15  -6  171.58   21.20
  15   6  -6  151.18   31.00
 -21  15  -6  143.19   15.40
 -21  15  -6  155.48   19.80
 -15  -6   6  174.68   34.30
  -6  21   6  167.68   35.30
  21 -15   6  247.48   28.70
  -6  21   6  173.38   31.70
 -21  18  -6  350.46   33.90
  18   3  -6  380.96   41.00
 -21  18  -6  392.96   38.20
 -18  -3   6  414.66   47.50
  -3  21   6  457.05   44.90
  21 -18   6  405.96   35.40
  21   0  -6  290.27   39.70
  21   0  -6  340.17   43.10
 -21  21  -6  303.47   34.10
 -21   0   6  283.47   45.10
  21 -21   6  382.46   41.60
   0  21   6  301.77   34.90
 -21  24  -6  406.46   52.39
  24  -3  -6  306.67   42.60
  24  -3  -6  354.46   40.10
   3  21   6  367.06   38.20
  21 -24   6  438.56   48.40
 -24   3   6  288.87   49.10
 -21  27  -6   48.40   41.20
 -27   6   6  140.39   40.00
   6  21   6  172.18   35.20
  21 -27   6  189.38   35.50
   6  21   6  172.68   35.50
  -4  26  -6  109.09   39.70
  26 -22  -6  132.59   37.90
  -4  26  -6   82.59   25.60
 -26  22   6  209.48   44.60
 -26  22   6  110.99   47.30
  -1  23  -6   90.09   34.60
  23 -22  -6   19.10   22.90
  -1  23  -6   83.59   35.80
 -23  22   6   62.69   35.30
 -23  22   6   35.70   36.90
  22   1   6   91.99   12.30
   2  20  -6    7.90   27.60
  20 -22  -6   34.90   20.30
   2  20  -6   11.40   34.10
 -20  22   6   32.00   35.30
  22  -2   6   67.79   11.90
 -20  22   6  108.69   33.60
   5  17  -6   50.79   29.30
   5  17  -6   52.99   24.70
 -17  22   6   18.00   36.10
 -17  22   6   72.09   30.30
  22  -5   6   28.20   11.20
  14 -22  -6  269.57   30.90
   8  14  -6  173.68   30.80
  22  -8   6  192.18   22.00
 -14  22   6  238.28   39.10
 -14  22   6  178.88   35.00
  11  11  -6   -7.50   24.80
  11  11  -6    7.50   19.60
  11 -22  -6   34.80   14.80
 -11  22   6  -17.90   23.30
 -11 -11   6   50.59   32.60
  22 -11   6   29.30   14.40
 -11  22   6   36.40   35.50
 -22  14  -6   40.60   15.80
  14   8  -6   12.40   27.60
   8 -22  -6   40.20   14.00
  14   8  -6   51.59   22.40
  22 -14   6   43.50   17.10
 -14  -8   6   -4.50   29.60
  -8  22   6   20.00   28.70
  -8  22   6   32.50   32.90
   5 -22  -6  137.99   15.10
 -22  17  -6  140.19   18.30
 -22  17  -6  114.19   22.70
  17   5  -6  138.59   25.50
  22 -17   6  125.39   21.30
  -5  22   6  131.09   30.00
 -17  -5   6  156.58   37.50
  -5  22   6  102.49   33.40
 -22  20  -6  144.99   24.60
  20   2  -6  122.19   28.30
  20   2  -6  148.49   34.10
 -20  -2   6  131.89   39.20
  -2  22   6  116.39   30.10
  22 -20   6   90.79   23.20
  23  -1  -6  -26.30   31.50
 -22  23  -6  -43.10   28.90
  23  -1  -6  -33.90   24.10
  22 -23   6   60.79   27.30
   1  22   6   28.20   30.70
 -23   1   6   -9.10   37.50
  26  -4  -6  158.88   33.30
 -22  26  -6   59.29   36.10
   4  22   6   37.90   34.70
 -26   4   6   83.69   44.00
  -2  25  -6   45.10   42.10
  25 -23  -6    3.20   20.00
  -2  25  -6   36.50   25.20
 -25  23   6   19.30   50.89
 -25  23   6   11.70   38.70
  23   2   6   11.40    6.40
   1  22  -6   61.29   33.40
   1  22  -6   73.29   41.60
  22 -23  -6  118.09   28.00
 -22  23   6   54.49   35.20
 -22  23   6   74.89   41.20
  23  -1   6   83.99   11.60
   4  19  -6  353.06   40.60
   4  19  -6  393.36   50.39
  19 -23  -6  327.77   36.10
 -19  23   6  352.06   49.50
 -19  23   6  513.25   65.09
  23  -4   6  384.26   23.60
   7  16  -6  921.01   75.69
   7  16  -6  876.71   58.59
  23  -7   6  851.51   34.50
 -16  23   6  955.30   68.19
 -16  23   6  900.51   63.79
  10  13  -6  565.44   51.29
  13 -23  -6  604.04   36.90
  10  13  -6  528.95   47.30
 -13  23   6  525.15   62.09
  23 -10   6  547.85   31.80
 -13  23   6  594.54   53.19
  13  10  -6  538.45   44.50
  13  10  -6  375.16   41.80
 -23  13  -6  480.45   26.70
  10 -23  -6  503.45   32.60
 -10  23   6  363.86   44.80
 -13 -10   6  429.76   55.89
 -10  23   6  511.75   56.39
  16   7  -6  222.18   32.50
  16   7  -6  311.77   39.10
   7 -23  -6  282.37   25.40
 -23  16  -6  247.58   31.10
 -16  -7   6  317.27   43.80
  -7  23   6  316.37   40.40
  -7  23   6  302.07   43.80
  23 -16   6  318.47   32.60
  19   4  -6  421.46   45.40
  19   4  -6  468.05   51.59
 -23  19  -6  398.86   41.40
 -23  19  -6  446.76   34.90
  -4  23   6  516.55   49.50
 -19  -4   6  467.15   60.69
  23 -19   6  500.75   40.00
  22   1  -6   59.49   29.10
  22   1  -6  -13.00   31.20
 -23  22  -6   94.79   26.00
 -22  -1   6   43.70   39.10
  -1  23   6   13.20   33.70
  23 -22   6   48.30   24.40
 -23  25  -6  117.49   35.50
  25  -2  -6  140.99   34.40
  23 -25   6  128.69   32.00
 -25   2   6   75.89   44.00
   2  23   6  134.39   34.90
  24 -24  -6  164.98   22.10
   0  24  -6  179.08   45.50
   0  24  -6  181.08   26.80
  24   0   6  146.09   14.50
 -24  24   6  112.59   46.90
 -24  24   6  186.68   44.60
   3  21  -6  196.68   38.70
  21 -24  -6  216.48   28.60
   3  21  -6  178.08   38.60
 -21  24   6  243.58   41.70
 -21  24   6  204.38   49.40
  24  -3   6  244.98   21.40
  18 -24  -6  590.54   42.10
   6  18  -6  507.15   53.89
   6  18  -6  523.45   54.29
  24  -6   6  460.65   28.10
 -18  24   6  563.44   72.49
 -18  24   6  577.54   61.59
 -15  24   6  425.66   51.19
 -15  24   6  283.27   40.90
  24  -9   6  267.67   27.60
 -24  12  -6   90.49   13.40
  12  12  -6   53.09   24.20
  12  12  -6   98.69   35.10
  12 -24  -6  132.99   20.00
 -12  24   6   81.29   40.70
 -12  24   6  113.19   32.90
  24 -12   6   87.49   18.20
 -12 -12   6  118.49   38.20
   9 -24  -6  102.79   18.20
  15   9  -6  120.99   43.50
  15   9  -6   25.30   33.20
 -24  15  -6   77.99   18.00
  15   9  -6   98.09   26.50
  -9  24   6   68.79   41.50
  24 -15   6  124.79   21.40
  -9  24   6  111.79   36.20
 -15  -9   6  112.49   38.80
 -24  18  -6  283.17   35.90
   6 -24  -6  221.18   23.70
  18   6  -6  168.68   32.80
  18   6  -6  221.08   33.10
  18   6  -6  253.97   39.60
  -6  24   6  271.07   42.10
 -18  -6   6  344.57   47.90
  -6  24   6  283.67   40.10
  24 -18   6  326.37   35.70
  21   3  -6  291.97   37.60
 -24  21  -6  429.76   46.20
 -24  21  -6  334.97   39.60
  21   3  -6  384.16   46.10
  24 -21   6  386.06   44.00
 -21  -3   6  348.27   52.49
  -3  24   6  339.87   41.00
  24   0  -6  176.08   35.90
  24   0  -6  168.98   26.10
 -24  24  -6  167.68   31.90
 -24   0   6   46.60   43.70
   0  24   6  101.59   37.80
  24 -24   6  186.08   34.60
   2  23  -6   70.19   26.40
  23 -25  -6   30.00   23.40
   2  23  -6   50.19   37.00
  25  -2   6    1.30   10.90
 -23  25   6   52.39   47.90
 -23  25   6  -24.30   38.70
   5  20  -6   56.19   32.30
  20 -25  -6   60.09   24.50
   5  20  -6   63.69   34.90
 -20  25   6  103.69   45.90
 -20  25   6  107.19   44.40
  17 -25  -6   68.09   25.70
   8  17  -6   58.29   32.80
   8  17  -6   73.29   35.70
 -17  25   6  112.79   38.50
 -17  25   6  144.89   43.00
  25  -8   6   75.49   17.30
  14 -25  -6   -2.10   17.30
  11  14  -6   51.29   27.80
  11  14  -6  104.49   31.40
  11  14  -6  101.69   35.00
  25 -11   6  132.39   21.40
 -14  25   6  137.69   34.50
 -14  25   6   76.29   42.30
  14  11  -6  355.46   44.80
 -25  14  -6  263.17   27.20
  14  11  -6  225.08   38.80
  14  11  -6  405.36   46.30
  11 -25  -6  283.67   31.00
 -11  25   6  266.37   46.20
 -11  25   6  281.67   49.20
  25 -14   6  292.57   32.20
 -14 -11   6  262.47   42.90
 -25  17  -6  163.48   23.10
  17   8  -6  126.79   36.10
  17   8  -6   97.19   27.40
  17   8  -6  104.79   35.10
   8 -25  -6  142.99   19.70
  25 -17   6  151.98   25.40
  -8  25   6  128.09   38.20
  -8  25   6  165.48   45.20
 -17  -8   6  168.88   43.60
  20   5  -6   43.50   27.80
   5 -25  -6   28.70   10.80
 -25  20  -6   27.00   24.50
  20   5  -6   75.09   32.50
 -25  20  -6   22.40   20.40
 -20  -5   6   50.99   37.40
  25 -20   6   46.70   22.80
  -5  25   6   85.49   32.60
  23   2  -6   45.50   25.00
 -25  23  -6  117.19   32.00
 -25  23  -6  108.39   29.80
 -23  -2   6   41.60   45.80
  25 -23   6   99.19   31.00
  -2  25   6   50.79   38.80
  22 -26  -6  119.19   28.60
   4  22  -6   51.79   38.30
   4  22  -6   78.09   38.60
  26  -4   6  150.18   17.60
 -22  26   6   61.69   49.60
 -22  26   6  194.98   39.70
   7  19  -6  402.66   52.59
  19 -26  -6  408.86   46.10
 -19  26   6  312.67   49.80
 -19  26   6  442.26   59.49
  26  -7   6  322.17   29.30
  10  16  -6  495.15   58.99
  10  16  -6  483.55   62.69
  26 -10   6  527.55   35.70
 -16  26   6  524.75   68.09
 -16  26   6  557.74   72.69
 -26  13  -6  622.34   27.20
  13 -26  -6  676.93   40.30
  13  13  -6  642.84   64.59
  13  13  -6  593.74   53.09
  13  13  -6  812.52   63.89
  26 -13   6  701.13   41.70
 -13  26   6  647.64   67.29
 -13  26   6  689.93   79.19
  16  10  -6  547.25   51.59
  16  10  -6  506.05   61.99
  16  10  -6  480.35   56.59
  10 -26  -6  580.24   35.90
 -26  16  -6  561.94   35.90
 -10  26   6  604.64   70.09
  26 -16   6  566.74   41.10
 -16 -10   6  655.83   68.79
 -10  26   6  523.05   57.79
 -26  19  -6  259.37   18.20
  19   7  -6  134.29   33.40
 -26  19  -6  183.18   31.70
 -26  19  -6  223.68   18.00
  19   7  -6  263.37   46.30
  19   7  -6  195.48   32.30
   7 -26  -6  247.18   27.00
  -7  26   6  299.57   48.00
 -19  -7   6  218.28   45.30
  -7  26   6  326.97   45.20
  26 -19   6  300.27   33.50
  22   4  -6   45.10   31.80
 -26  22  -6   83.09   23.20
 -26  22  -6   83.59   31.10
  22   4  -6   46.60   32.20
 -22  -4   6   96.99   44.20
  26 -22   6   69.49   27.10
  -4  26   6  100.39   38.40
   6  21  -6  100.09   34.00
 -21  27   6  286.77   39.30
 -21  27   6  302.77   55.59
  27  -6   6  328.07   29.50
   9  18  -6   75.79   25.60
  18 -27  -6  129.09   26.90
   9  18  -6  117.69   41.90
 -18  27   6  136.49   49.80
  27  -9   6   75.89   18.80
 -18  27   6   32.40   40.10
  12  15  -6  133.29   29.70
  12  15  -6   90.79   33.20
  12  15  -6  100.49   40.10
 -15  27   6   98.69   51.19
  27 -12   6  119.99   22.70
 -15  27   6  118.99   38.20
  15  12  -6  155.08   43.20
 -27  15  -6  217.08   26.80
  12 -27  -6  188.68   25.10
  15  12  -6  156.98   34.40
 -12  27   6  211.58   50.29
 -15 -12   6  170.48   47.90
 -12  27   6  129.29   45.00
  27 -15   6  141.19   24.70
   9 -27  -6  113.49   25.90
  18   9  -6   78.59   23.70
 -27  18  -6  151.38   23.90
  18   9  -6   92.59   44.40
  18   9  -6   81.39   28.70
  -9  27   6  150.68   50.49
 -18  -9   6  112.69   46.00
  -9  27   6  148.19   46.20
  21   6  -6  182.48   53.19
  21   6  -6   73.19   31.60
   6 -27  -6  124.59   15.20
 -27  21  -6  149.88   29.90
 -21  -6   6   89.59   31.90
  27 -21   6  131.79   31.00
  -6  27   6  147.39   39.10
  17 -28  -6  315.47   34.60
  11  17  -6  274.17   46.70
  28 -11   6  286.77   35.50
 -17  28   6  236.08   48.10
 -17  28   6  299.07   57.69
  14  14  -6  203.58   45.10
 -28  14  -6  218.38   17.10
  14  14  -6  121.89   31.90
  14  14  -6  196.08   58.79
  28 -14   6  210.28   28.40
 -14  28   6  193.08   58.19
 -14  28   6  177.88   46.20
  17  11  -6  184.78   36.00
 -28  17  -6  175.08   22.30
  11 -28  -6  182.28   26.00
  17  11  -6  108.89   51.09
 -11  28   6   83.89   55.89
 -11  28   6  153.88   49.50
  28 -17   6  218.08   30.30
 -17 -11   6  112.59   40.40
  -1   0  -7   50.59   11.60
  -1   0  -7    4.10    8.00
   0   1  -7   38.30   11.30
   1  -1  -7   16.90    8.70
   1  -1  -7   31.70   10.80
   0   1  -7   11.40   10.50
   0   1  -7   37.70   11.90
  -1   0  -7   26.50   11.40
   1  -1  -7   20.10   10.90
  -1   1   7   60.69   16.70
  -1   1   7   24.60   15.00
   0  -1   7   30.80   14.90
   1   0   7   33.90   14.20
   1   0   7   33.30   13.70
  -1   3  -7  719.13   30.90
  -1   3  -7  728.13   31.60
  -2  -1  -7  721.23   25.30
  -2  -1  -7  695.63   26.30
   3  -2  -7  709.73   29.80
  -2  -1  -7  716.53   27.10
   3  -2  -7  705.93   32.00
   3  -2  -7  686.03   31.70
  -1   3  -7  724.23   30.40
   1  -3   7  803.22   35.70
   2   1   7  746.73   35.10
   2   1   7  780.32   31.40
  -3   2   7  801.72   38.30
  -3   2   7  773.52   38.00
   2   0  -7   11.30   11.70
   2   0  -7   23.50   12.00
  -2   2  -7    6.10    9.10
   2   0  -7   24.90   11.40
   0  -2  -7    9.10    9.10
   0  -2  -7    8.60    8.20
  -2   2  -7   13.10   10.80
  -2   2  -7   18.20    9.20
   0  -2  -7    6.80   10.50
   0   2   7    5.60   13.80
  -2   0   7   20.00   15.50
   2  -2   7   19.10   13.60
   0   2   7   -5.90   12.20
  -3  -2  -7  823.22   25.10
   5  -3  -7  770.52   32.80
  -2   5  -7  851.31   34.40
  -3  -2  -7  825.62   23.80
   5  -3  -7  811.82   35.80
   5  -3  -7  819.62   35.90
  -2   5  -7  824.72   33.50
  -2   5  -7  807.52   33.30
   3   2   7  901.31   31.20
   2  -5   7  828.42   37.20
   3   2   7  854.01   36.70
  -5   3   7  863.81   39.40
  -5   3   7  815.02   41.00
   2  -3  -7  591.84   27.80
   1   2  -7  577.64   29.20
  -3   1  -7  588.44   24.10
   1   2  -7  569.34   29.10
  -3   1  -7  557.14   22.50
  -3   1  -7  561.74   25.40
   1   2  -7  549.65   29.90
   2  -3  -7  568.14   28.70
   2  -3  -7  526.25   25.50
  -2   3   7  581.24   32.30
   3  -1   7  611.74   27.90
  -1  -2   7  598.34   34.00
  -2   3   7  570.44   32.70
  -1  -3  -7  169.38   16.70
  -1  -3  -7  128.09   13.10
  -3   4  -7  133.39   15.40
   4  -1  -7  167.18   20.90
   4  -1  -7  127.39   18.20
  -3   4  -7  140.29   16.50
   4  -1  -7  139.19   18.90
  -3   4  -7  135.39   15.10
  -1  -3  -7  133.99   17.30
  -4   1   7  205.18   26.10
   1   3   7  164.38   22.30
   3  -4   7  149.59   18.80
   1   3   7  175.38   20.30
  -4   1   7  146.59   22.00
   7  -4  -7   22.10   13.60
  -3   7  -7   15.00   13.00
  -3   7  -7   45.40   12.80
   7  -4  -7   29.60   12.00
  -3   7  -7   31.60   12.20
   4   3   7   46.30   11.90
   4   3   7   48.20   15.20
  -7   4   7   37.00   18.70
  -7   4   7   39.90   16.10
   4  -4  -7   -1.40   11.80
   0   4  -7    6.00   11.00
   0   4  -7   10.00   12.50
   4  -4  -7   -0.80    9.00
  -4   0  -7   -5.70    8.30
  -4   0  -7   11.70    6.20
   4  -4  -7    4.70   11.30
  -4   0  -7   12.00    7.60
   0   4  -7    3.00   10.90
   4   0   7   22.90   14.20
   0  -4   7   15.50   15.10
  -4   4   7    6.00   13.90
   4   0   7    5.70   10.50
  -4   4   7    4.30   15.40
   1  -4  -7  109.99   14.80
   1  -4  -7  130.99   15.60
  -4   3  -7  119.59   14.90
   3   1  -7  105.19   17.00
   3   1  -7  101.69   16.40
   3   1  -7   88.59   16.40
  -4   3  -7   96.29   12.90
   1  -4  -7   91.39   12.20
  -4   3  -7  112.19   15.00
  -1   4   7  127.49   18.60
  -3  -1   7  107.79   20.50
   4  -3   7  126.59   16.20
  -1   4   7  129.39   19.20
   6  -2  -7  910.31   37.30
  -4   6  -7 1000.90   36.30
  -4   6  -7 1051.89   37.80
   6  -2  -7 1072.99   42.70
  -2  -4  -7  975.60   27.60
  -2  -4  -7 1011.70   26.40
  -4   6  -7 1028.90   36.10
   6  -2  -7 1006.40   40.60
  -6   2   7 1059.89   46.00
  -6   2   7 1052.39   44.40
   2   4   7 1062.39   36.10
   4  -6   7  985.30   39.40
   2   4   7 1062.39   40.40
  -4   9  -7 1484.85   49.20
  -4   9  -7 1469.45   48.80
   9  -5  -7 1504.65   50.69
  -4   9  -7 1537.45   50.09
   9  -5  -7 1546.65   54.09
   5   4   7 1637.64   48.80
  -9   5   7 1623.64   57.89
   5   4   7 1604.94   40.60
  -9   5   7 1611.54   58.29
   4  -9   7 1596.24   54.29
  -1   6  -7  939.41   37.60
   6  -5  -7  976.50   39.90
  -1   6  -7  943.71   37.90
  -1   6  -7  887.81   37.80
   6  -5  -7  967.90   37.30
  -6   5   7 1030.50   43.50
   5   1   7 1007.70   30.00
   1  -6   7 1004.00   42.60
  -6   5   7 1017.90   45.50
   5   1   7 1048.30   39.10
   3  -5  -7  959.60   36.30
  -5   2  -7  943.91   28.50
  -5   2  -7  927.41   30.00
   3  -5  -7  937.51   35.80
   2   3  -7  965.60   38.30
  -5   2  -7  981.40   29.30
   2   3  -7  955.60   38.80
   3  -5  -7  959.60   33.90
   2   3  -7  957.20   38.40
   5  -2   7  951.00   31.30
  -3   5   7  991.70   41.60
  -3   5   7  959.30   40.30
  -2  -3   7 1031.70   43.90
  -5   5  -7   12.40    9.30
  -5   5  -7    8.30   11.50
   0  -5  -7    0.20    7.00
  -5   5  -7    8.60    9.10
   5   0  -7   10.60   12.00
   5   0  -7   -4.10   12.90
   0  -5  -7    9.80    9.70
   5   0  -7   -3.60   12.20
   0   5   7  -13.90   13.60
   5  -5   7   10.50   10.20
   0   5   7    0.40   14.80
  -5   0   7    5.80   15.70
  -5   8  -7  242.18   21.70
   8  -3  -7  190.08   20.00
   8  -3  -7  310.07   30.20
  -5   8  -7  231.58   23.80
  -5   8  -7  237.88   22.10
  -8   3   7  235.18   27.00
   5  -8   7  247.48   24.70
  -8   3   7  244.58   28.00
   3   5   7  222.78   21.70
   3   5   7  202.98   25.90
  11  -6  -7  835.12   37.70
  -5  11  -7  780.92   36.50
  -5  11  -7  793.22   37.50
  -5  11  -7  746.93   36.30
   6   5   7  762.72   32.90
   6   5   7  743.63   24.70
   5 -11   7  805.12   39.30
 -11   6   7  634.34   50.39
 -11   6   7  762.12   43.60
  -2   8  -7 1025.70   41.60
  -2   8  -7 1094.79   42.10
   8  -6  -7 1114.29   44.50
   8  -6  -7 1060.89   40.80
  -2   8  -7 1071.39   41.40
  -8   6   7 1109.09   47.50
   6   2   7 1064.19   39.10
  -8   6   7 1025.10   45.10
   6   2   7 1106.89   28.10
   5  -6  -7  850.71   36.70
  -6   1  -7  799.12   22.50
   1   5  -7  839.22   36.40
   1   5  -7  882.21   37.50
   5  -6  -7  869.91   33.80
   1   5  -7  899.71   37.50
  -6   1  -7  911.81   32.80
  -5   6   7  986.20   41.90
  -1  -5   7 1026.00   44.00
   6  -1   7  961.00   28.00
  -5   6   7  951.00   44.10
  -6   4  -7 1158.48   33.40
  -6   4  -7 1168.58   34.70
   2  -6  -7 1153.58   35.60
   4   2  -7 1172.08   44.10
  -6   4  -7 1158.28   35.30
   2  -6  -7 1155.08   37.50
   4   2  -7 1142.09   43.10
   4   2  -7 1160.58   44.40
  -2   6   7 1147.99   43.90
  -2   6   7 1191.18   44.10
   6  -4   7 1194.08   40.80
  -4  -2   7 1216.08   48.10
   7  -1  -7  480.05   31.50
  -1  -6  -7  401.96   18.10
  -1  -6  -7  406.76   15.50
  -6   7  -7  430.36   27.30
  -6   7  -7  421.56   23.70
  -6   7  -7  442.96   24.50
   7  -1  -7  432.16   29.00
   1   6   7  467.95   31.10
  -7   1   7  440.76   35.20
   1   6   7  425.46   28.00
   6  -7   7  517.75   29.40
  -6  10  -7   43.80   13.40
  -6  10  -7   34.10   13.70
  10  -4  -7   26.50   14.70
  10  -4  -7    3.60    9.70
  -6  10  -7   39.70   15.60
 -10   4   7   40.20   20.30
   4   6   7   38.70   12.80
   4   6   7   34.60   15.60
   6 -10   7   32.20   15.10
 -10   4   7   43.70   20.80
  13  -7  -7  100.69   16.90
  13  -7  -7   91.39   21.70
  -6  13  -7   93.39   19.90
  -6  13  -7  105.19   18.80
   6 -13   7  144.39   21.80
   7   6   7  119.49   16.10
   7   6   7  138.29   17.00
 -13   7   7  124.09   28.20
 -13   7   7  181.88   27.40
  -3  10  -7    4.00   14.20
  -3  10  -7   30.90   14.30
  10  -7  -7   22.80   15.40
  -3  10  -7    8.60   13.20
 -10   7   7    6.70   18.00
 -10   7   7   31.90   19.30
   7   3   7   24.70   13.70
   3 -10   7   38.30   15.60
   0   7  -7   10.40   11.40
   0   7  -7   15.20   13.40
   0   7  -7   10.70   13.30
   7  -7  -7   13.70   11.20
   7  -7  -7    7.40   13.00
   0  -7   7   21.20   18.00
  -7   7   7    9.40   16.60
   7   0   7   11.40   14.30
  -7   7   7   -3.10   18.20
  -7   3  -7   13.70    8.50
   3   4  -7   16.70   13.50
  -7   3  -7   14.70    6.00
   3   4  -7    6.90   13.60
   4  -7  -7    6.40    9.10
   3   4  -7   16.20   11.70
   7  -3   7   14.60   10.30
  -4   7   7   26.20   17.00
  -4   7   7    4.70   13.20
  -3  -4   7    5.90   16.30
   6   1  -7  288.47   25.40
   6   1  -7  245.48   26.60
   1  -7  -7  277.27   20.00
  -7   6  -7  246.18   17.50
   6   1  -7  285.57   27.70
  -7   6  -7  278.47   22.10
   1  -7  -7  242.58   15.90
  -7   6  -7  242.98   18.50
  -6  -1   7  240.88   31.20
  -1   7   7  248.18   29.00
  -1   7   7  269.47   27.90
   7  -6   7  288.77   23.70
  -7   9  -7  184.28   19.70
  -7   9  -7  157.08   19.20
   9  -2  -7  139.59   22.00
  -7   9  -7  160.98   20.50
   9  -2  -7  140.19   19.30
   7  -9   7  200.28   23.50
  -9   2   7  149.99   24.10
   2   7   7  183.48   21.20
   2   7   7  168.38   18.80
  -9   2   7  153.68   22.70
  -7  12  -7  616.54   33.10
  -7  12  -7  614.64   35.90
  12  -5  -7  570.54   31.50
  -7  12  -7  609.84   33.70
  12  -5  -7  553.54   37.50
   5   7   7  607.94   31.10
 -12   5   7  594.54   44.60
   7 -12   7  598.94   36.50
 -12   5   7  572.64   41.80
   5   7   7  605.24   26.40
  15  -8  -7  520.65   38.50
  -7  15  -7  523.05   35.80
  15  -8  -7  517.25   34.30
  -7  15  -7  529.55   44.30
   8   7   7  608.44   27.30
   8   7   7  603.24   24.20
 -15   8   7  576.84   49.20
   8   7   7  569.04   23.80
   7 -15   7  613.04   38.50
 -15   8   7  578.54   42.90
  12  -8  -7 1154.68   45.20
  -4  12  -7 1085.79   45.40
  -4  12  -7 1103.29   45.70
  12  -8  -7 1105.39   49.40
 -12   8   7 1107.69   53.29
 -12   8   7 1226.08   53.09
   4 -12   7 1095.49   46.60
   8   4   7 1123.89   37.50
  -1   9  -7 1621.24   54.79
  -1   9  -7 1600.14   53.29
   9  -8  -7 1624.14   52.09
   9  -8  -7 1619.64   55.39
  -1   9  -7 1455.95   59.29
   8   1   7 1576.04   47.00
  -9   8   7 1669.73   59.89
  -9   8   7 1587.94   57.09
   2   6  -7 1151.88   44.80
   2   6  -7 1200.58   46.20
   2   6  -7 1164.58   43.90
   6  -8  -7 1148.89   39.80
  -2  -6   7 1185.78   49.60
  -6   8   7 1227.68   48.60
   8  -2   7 1206.98   38.60
  -6   8   7 1187.28   49.99
  -8   5  -7  391.26   18.30
   5   3  -7  424.26   30.10
   5   3  -7  341.37   30.30
  -8   5  -7  378.16   17.70
   3  -8  -7  382.66   24.60
  -8   5  -7  361.96   20.50
   5   3  -7  339.97   27.00
   3  -8  -7  387.26   21.20
  -3   8   7  351.86   30.70
  -3   8   7  365.86   32.20
   8  -5   7  396.66   24.60
  -5  -3   7  350.16   33.50
  -8   8  -7   -6.00    8.10
   8   0  -7    0.60   11.80
   8   0  -7   -3.90   13.80
  -8   8  -7    9.20   12.80
   0  -8  -7    7.90    8.00
   0  -8  -7   16.90    6.30
  -8   8  -7   11.90    9.40
   0   8   7   13.80   16.00
   8  -8   7   -8.40   10.20
   0   8   7   19.00   14.70
  -8   0   7   15.10   16.60
  -8  11  -7  182.58   19.70
  -8  11  -7  174.88   22.20
  -8  11  -7  165.58   19.00
  11  -3  -7  207.88   27.40
  11  -3  -7  133.99   19.30
 -11   3   7  205.58   29.30
 -11   3   7  173.38   24.10
   3   8   7  196.28   21.10
   8 -11   7  165.88   28.70
   3   8   7  192.38   23.40
  -8  14  -7  287.97   33.20
  14  -6  -7  273.97   27.30
  14  -6  -7  273.77   30.70
  -8  14  -7  296.17   28.80
   8 -14   7  222.98   28.50
   6   8   7  258.27   22.30
 -14   6   7  243.78   35.20
   6   8   7  314.47   25.00
 -14   6   7  221.58   29.90
  -8  17  -7  460.15   40.50
  -8  17  -7  356.16   35.70
 -17   9   7  373.26   42.10
   8 -17   7  348.77   35.30
   9   8   7  412.26   27.50
 -17   9   7  430.96   46.60
   9   8   7  410.06   23.60
  -5  14  -7  710.83   39.80
  14  -9  -7  689.53   37.60
  14  -9  -7  744.93   43.70
 -14   9   7  656.03   43.50
 -14   9   7  656.03   49.40
   5 -14   7  702.53   39.80
   9   5   7  648.34   28.80
  11  -9  -7 1095.09   43.40
  -2  11  -7 1084.49   45.00
  -2  11  -7 1082.09   45.20
  -2  11  -7 1080.39   45.60
 -11   9   7 1137.69   52.39
   9   2   7 1082.99   36.80
 -11   9   7 1060.79   48.80
   1   8  -7 1138.79   46.60
   1   8  -7 1153.28   45.10
   8  -9  -7 1153.58   45.50
   1   8  -7  968.00   49.99
   8  -9  -7 1127.79   41.10
  -8   9   7 1116.49   50.89
  -8   9   7 1135.49   48.50
   9  -1   7 1066.39   35.60
  -1  -8   7 1134.19   49.60
  -9   4  -7 1223.78   28.20
   4   5  -7 1293.67   48.10
   4   5  -7 1302.47   49.60
   5  -9  -7 1286.37   40.90
  -4  -5   7 1462.15   53.89
   9  -4   7 1353.66   43.10
  -5   9   7 1410.16   50.79
  -5   9   7 1411.86   53.09
   2  -9  -7  186.88   19.90
   7   2  -7  206.58   23.90
   7   2  -7  218.58   27.00
   2  -9  -7  189.78   14.80
   7   2  -7  219.38   24.90
  -9   7  -7  169.18   20.20
  -9   7  -7  199.08   15.90
  -9   7  -7  174.08   16.80
  -2   9   7  222.38   24.20
   9  -7   7  159.98   20.10
  -2   9   7  229.88   24.90
  -7  -2   7  203.38   25.50
  -9  10  -7  118.69   15.80
  10  -1  -7  122.69   20.90
  10  -1  -7  114.59   23.00
  -9  10  -7  112.69   15.20
  -9  10  -7  109.29   17.20
   9 -10   7   57.39   14.90
   1   9   7  123.89   18.80
 -10   1   7   52.59   22.00
   1   9   7   78.89   17.30
  -9  13  -7   66.19   19.10
  -9  13  -7   87.09   17.00
  13  -4  -7  152.68   24.60
 -13   4   7   96.89   27.10
   4   9   7   80.59   16.00
   9 -13   7   77.09   17.20
   4   9   7   86.99   16.90
 -13   4   7   60.69   21.80
  -9  16  -7   35.50   23.80
  16  -7  -7   17.40   17.50
  -9  16  -7   37.70   17.20
   9 -16   7   17.50   17.70
   7   9   7   32.00   15.30
 -16   7   7   38.20   27.00
 -16   7   7   29.90   20.80
   7   9   7   36.50   14.80
  -9  19  -7  443.46   42.30
  -9  19  -7  423.96   38.30
 -19  10   7  367.46   44.40
  10   9   7  370.06   24.40
  10   9   7  424.16   20.10
 -19  10   7  420.66   51.09
  10   9   7  401.06   27.80
   9 -19   7  336.37   37.30
  16 -10  -7    4.50   16.10
  16 -10  -7   22.30   19.30
  -6  16  -7    9.60   17.10
  -6  16  -7   13.90   20.50
   6 -16   7   35.20   17.10
 -16  10   7   28.30   28.00
 -16  10   7   24.40   20.50
  10   6   7   28.40   14.40
  -3  13  -7   10.50   15.70
  13 -10  -7  -20.60   16.50
  13 -10  -7   19.30   13.00
  10   3   7    8.90   12.00
   3 -13   7    5.20   14.20
 -13  10   7   50.59   22.30
 -13  10   7   16.60   20.50
   0  10  -7   -9.60   12.40
   0  10  -7   18.00   16.30
  10 -10  -7   31.80   13.60
  10 -10  -7   29.70   17.20
   0  10  -7   34.20   14.90
  10   0   7   15.00    9.50
 -10  10   7   26.40   20.50
   7 -10  -7   -2.30   10.50
   3   7  -7   10.50   15.60
   3   7  -7    5.10   14.00
   3   7  -7    7.90   11.50
  -3  -7   7    5.40   18.70
  -7  10   7   -0.10   17.20
  10  -3   7    5.50    8.80
  -7  10   7   -1.50   19.40
 -10   6  -7  -10.60    5.60
   6   4  -7   -3.80   15.80
 -10   6  -7   12.10    8.50
   6   4  -7   16.90   13.70
   4 -10  -7   -0.30    8.60
 -10   6  -7   -0.50    6.30
   6   4  -7    9.20   15.40
  -4  10   7   14.10   17.90
  10  -6   7   -2.90    9.80
  -4  10   7   14.00   15.90
  -6  -4   7   16.60   17.50
 -10   9  -7   99.19   13.10
 -10   9  -7  110.59   16.70
   9   1  -7  124.09   25.20
   1 -10  -7  117.49   15.10
   9   1  -7  112.79   19.40
   9   1  -7  150.98   27.10
   1 -10  -7  107.39   11.30
 -10   9  -7  126.59   14.70
  10  -9   7   89.09   15.80
  -1  10   7   95.09   19.50
  -9  -1   7   79.89   24.10
  -1  10   7  166.38   21.00
 -10  12  -7  172.88   19.30
  12  -2  -7  155.18   21.80
 -10  12  -7  175.78   21.20
  12  -2  -7  182.38   26.60
 -10  12  -7  161.88   18.70
 -12   2   7  209.38   32.50
   2  10   7  152.18   20.70
  10 -12   7  158.78   27.10
   2  10   7  192.48   21.80
 -10  15  -7  149.69   24.30
 -10  15  -7  202.28   27.10
  15  -5  -7  151.08   24.70
  10 -15   7  119.39   21.10
 -15   5   7  108.29   27.70
   5  10   7  159.08   18.80
 -15   5   7  141.09   25.80
   5  10   7  136.59   19.20
 -10  18  -7  516.55   44.10
 -10  18  -7  498.95   39.10
   8  10   7  431.76   23.00
   8  10   7  397.36   29.70
 -18   8   7  408.56   49.40
  10 -18   7  405.76   36.50
 -18   8   7  374.96   43.90
   8  10   7  387.26   28.40
 -10  21  -7  264.67   31.80
 -10  21  -7  316.17   35.60
  11  10   7  291.17   27.60
  10 -21   7  300.17   38.40
  11  10   7  264.87   28.40
 -21  11   7  392.56   47.10
  11  10   7  303.17   21.20
 -21  11   7  277.77   38.00
  -7  18  -7  164.58   28.10
  -7  18  -7  183.58   26.20
 -18  11   7  182.58   36.40
  11   7   7  267.27   23.20
 -18  11   7  184.28   31.90
  -4  15  -7  897.21   45.60
  -4  15  -7  910.61   46.60
  15 -11  -7  982.30   50.09
  15 -11  -7  914.21   43.60
 -15  11   7  914.61   50.99
 -15  11   7 1062.69   57.89
  11   4   7  957.20   34.20
  -1  12  -7  972.80   52.39
  -1  12  -7  948.51   44.60
  12 -11  -7  968.50   47.30
  12 -11  -7  898.11   40.40
  11   1   7  937.11   30.50
  11   1   7  977.40   33.90
 -12  11   7  925.41   47.40
 -12  11   7  844.52   60.09
   2   9  -7 1126.39   48.40
   9 -11  -7 1183.48   43.10
   2   9  -7 1102.99   54.69
   2   9  -7 1148.09   46.30
  11  -2   7 1172.88   36.40
  -2  -9   7 1177.98   52.29
  -9  11   7 1137.59   54.19
  -9  11   7 1027.30   62.89
   6 -11  -7 1137.59   38.30
   5   6  -7 1145.09   45.80
   5   6  -7 1050.99   48.30
   5   6  -7 1122.39   48.30
  -6  11   7 1068.79   46.70
  -6  11   7 1121.09   50.29
  11  -5   7 1028.50   37.30
  -5  -6   7 1102.59   50.69
   3 -11  -7  201.38   21.00
 -11   8  -7  186.18   15.60
 -11   8  -7  208.98   19.10
   8   3  -7  186.38   24.40
 -11   8  -7  204.88   15.50
   3 -11  -7  188.38   15.70
   8   3  -7  179.78   22.80
  -3  11   7  289.57   32.10
  -3  11   7  218.28   26.30
  -8  -3   7  250.87   31.20
  11  -8   7  239.18   22.80
  11   0  -7   43.30   17.60
 -11  11  -7   23.10   11.40
 -11  11  -7   31.60   16.10
 -11  11  -7   43.00   12.60
  11   0  -7   16.80   15.40
  11 -11   7   62.89   16.00
   0  11   7   22.00   18.00
 -11   0   7   29.70   22.50
   0  11   7   22.90   17.30
 -11  14  -7  204.98   22.40
 -11  14  -7  224.98   24.90
  14  -3  -7  201.38   29.30
 -14   3   7  148.49   29.50
   3  11   7  203.78   27.10
   3  11   7  210.38   22.00
  11 -14   7  211.18   24.90
 -11  17  -7  180.68   32.60
 -11  17  -7  184.58   23.90
  11 -17   7  254.07   31.00
   6  11   7  189.28   22.10
 -17   6   7  195.98   29.10
   6  11   7  193.48   21.90
 -17   6   7  157.08   31.90
 -11  20  -7   66.29   21.60
 -11  20  -7   56.49   27.30
   9  11   7   77.39   14.20
 -20   9   7   36.50   30.90
   9  11   7   45.60   18.70
  11 -20   7   74.09   22.50
 -20   9   7   55.39   27.00
   9  11   7   57.19   17.00
  23 -12  -7  431.16   44.30
  23 -12  -7  378.76   44.60
 -11  23  -7  542.05   57.49
  12  11   7  371.76   24.60
  12  11   7  366.36   30.60
 -23  12   7  369.46   44.00
  11 -23   7  390.96   44.60
  12  11   7  410.46   32.90
 -23  12   7  497.85   56.09
  -8  20  -7  450.75   40.50
  -8  20  -7  592.54   49.20
  20 -12  -7  491.25   47.60
 -20  12   7  652.53   50.29
 -20  12   7  546.75   56.59
  12   8   7  528.85   28.00
  12   5   7  549.15   27.00
 -17  12   7  554.34   46.80
 -17  12   7  570.34   53.29
  14 -12  -7  616.64   41.40
  -2  14  -7  642.44   41.10
  14 -12  -7  657.93   36.30
  -2  14  -7  702.83   42.30
  12   2   7  624.84   28.30
 -14  12   7  648.04   47.80
  12   2   7  656.63   24.50
 -14  12   7  591.44   47.30
   1  11  -7  749.13   39.10
  11 -12  -7  865.01   38.90
   1  11  -7  838.12   43.70
   1  11  -7  807.22   42.60
  12  -1   7  860.21   29.80
 -11  12   7  809.12   45.50
 -11  12   7  891.21   51.09
   4   8  -7 1109.29   45.90
   4   8  -7 1071.49   48.20
   8 -12  -7 1120.29   40.90
   4   8  -7 1082.29   49.70
  -8  12   7 1196.18   50.79
  -8  12   7 1176.28   53.49
  12  -4   7 1119.99   37.50
  -4  -8   7 1151.58   52.29
   7   5  -7  676.43   35.90
   7   5  -7  692.93   40.20
   7   5  -7  592.14   38.30
   5 -12  -7  611.34   26.60
  -7  -5   7  674.93   44.30
  12  -7   7  704.33   32.30
  -5  12   7  775.22   41.00
  -5  12   7  730.83   44.30
 -12  10  -7  148.79   17.00
  10   2  -7  177.18   25.50
  10   2  -7  211.18   26.50
 -12  10  -7  140.59   16.50
 -12  10  -7  172.28   22.20
  10   2  -7  150.68   23.10
   2 -12  -7  141.49   12.60
   2 -12  -7  138.69   17.10
 -10  -2   7  158.08   29.20
  -2  12   7  170.48   24.30
  12 -10   7  158.98   19.20
  -2  12   7  167.68   24.50
 -12  13  -7  381.56   26.90
 -12  13  -7  399.36   32.40
 -12  13  -7  326.27   25.80
  13  -1  -7  380.66   36.70
   1  12   7  346.17   32.40
   1  12   7  288.67   31.20
  12 -13   7  297.07   29.40
 -13   1   7  319.37   40.80
 -12  16  -7  422.66   38.90
 -12  16  -7  390.86   31.50
  16  -4  -7  521.45   42.40
   4  12   7  479.05   34.00
  12 -16   7  508.75   36.10
   4  12   7  488.05   32.20
 -16   4   7  393.86   48.00
 -12  19  -7  142.99   29.60
 -12  19  -7  133.39   23.60
 -19   7   7  175.68   35.50
 -19   7   7  197.48   31.10
   7  12   7  180.78   23.70
   7  12   7  206.98   23.50
  12 -19   7  149.69   25.40
 -12  22  -7   96.39   24.80
 -12  22  -7   79.99   33.40
  10  12   7  114.79   17.20
 -22  10   7  135.69   34.50
 -22  10   7   81.99   40.90
  12 -22   7  112.99   26.90
  10  12   7  127.29   23.60
  10  12   7  103.29   20.80
  25 -13  -7   96.09   25.10
 -12  25  -7   81.69   40.90
 -12  25  -7   63.39   27.60
  25 -13  -7   36.90   30.50
  13  12   7   88.79   24.00
  12 -25   7   45.70   24.50
  13  12   7   42.50   19.50
 -25  13   7   66.29   45.60
 -25  13   7   67.39   43.00
  13  12   7   56.39   15.90
  22 -13  -7   61.49   28.30
  -9  22  -7   35.20   24.60
  -9  22  -7   69.19   28.00
  13   9   7   59.99   16.50
 -22  13   7   27.30   34.20
 -22  13   7   56.59   30.80
   9 -22   7   45.80   37.90
  -6  19  -7  255.07   30.80
  -6  19  -7  236.58   32.50
 -19  13   7  158.28   30.20
  13   6   7  165.58   21.30
 -19  13   7  197.58   37.40
  16 -13  -7   32.30   14.80
  -3  16  -7   32.60   20.30
  -3  16  -7   49.99   21.70
 -16  13   7   58.09   28.80
 -16  13   7   76.69   26.20
  13   3   7   47.60   14.30
  13   3   7   52.99   10.00
   0  13  -7    3.10   16.20
  13 -13  -7   22.50   15.10
   0  13  -7   -3.50   17.90
 -13  13   7  -14.90   20.00
 -13  13   7    4.20   21.80
  13   0   7    7.70    8.40
   3  10  -7   37.00   19.40
   3  10  -7    5.80   14.30
   3  10  -7   -5.00   17.10
  10 -13  -7   22.80   13.60
 -10  13   7   16.60   23.30
  -3 -10   7    0.40   31.10
 -10  13   7   -8.80   19.90
  13  -3   7   13.80    9.20
   6   7  -7   16.00   16.00
   7 -13  -7    2.00   10.10
   6   7  -7   20.10   14.10
   6   7  -7   20.60   17.50
  -7  13   7   26.30   21.60
  13  -6   7   45.90   12.50
  -7  13   7   30.10   18.40
   9   4  -7   50.89   16.90
   9   4  -7   34.90   19.30
   4 -13  -7   55.19   11.40
 -13   9  -7   54.39    9.10
 -13   9  -7   49.00    9.90
   9   4  -7   48.70   16.20
 -13   9  -7   43.50   10.70
  -4  13   7   82.39   22.70
  -4  13   7   36.80   21.30
  13  -9   7   57.89   14.10
  -9  -4   7   44.40   22.50
 -13  12  -7  408.06   24.10
  12   1  -7  342.17   34.20
 -13  12  -7  385.66   28.40
 -13  12  -7  375.76   23.90
  -1  13   7  296.77   33.90
  13 -12   7  304.77   32.40
  -1  13   7  332.47   35.10
 -12  -1   7  318.77   41.50
  15  -2  -7  299.47   34.10
 -13  15  -7  332.97   34.70
 -13  15  -7  255.37   26.20
   2  13   7  250.97   30.90
   2  13   7  252.17   30.30
 -15   2   7  224.08   32.70
  13 -15   7  300.57   30.90
 -13  18  -7  319.97   39.90
 -13  18  -7  278.87   30.40
  13 -18   7  321.17   34.40
   5  13   7  284.97   32.40
   5  13   7  281.27   35.10
 -18   5   7  263.87   37.50
 -13  21  -7   36.20   20.40
 -13  21  -7   39.20   29.10
 -21   8   7    0.00   31.30
 -21   8   7   14.10   27.40
   8  13   7   21.50   15.40
   8  13   7   15.80   18.20
  13 -21   7    5.70   21.80
   8  13   7   20.00   21.30
 -13  24  -7  -26.20   35.10
  24 -11  -7   28.70   31.60
  24 -11  -7   81.29   25.50
 -24  11   7  -56.89   45.20
  11  13   7  -11.40   15.30
 -24  11   7   73.69   38.20
  11  13   7   18.50   19.80
  11  13   7   33.10   22.80
  13 -24   7   31.00   26.60
  24 -14  -7  133.69   36.90
 -10  24  -7  124.09   34.00
 -10  24  -7   83.19   29.50
  24 -14  -7   70.39   27.70
 -24  14   7  156.28   37.80
  14  10   7  116.09   18.60
  10 -24   7  177.98   35.30
 -24  14   7  137.09   45.80
  14  10   7  133.29   17.90
  14  10   7  117.09   18.50
  21 -14  -7  207.68   37.90
  21 -14  -7  259.27   32.80
  -7  21  -7  229.98   34.20
 -21  14   7  135.99   40.00
 -21  14   7  155.48   32.60
  -4  18  -7  545.85   43.60
  -4  18  -7  516.15   43.10
 -18  14   7  591.84   58.89
  14   4   7  639.94   26.70
 -18  14   7  541.95   49.80
  -1  15  -7  735.53   45.20
  -1  15  -7  702.33   45.00
  15 -14  -7  733.23   41.20
 -15  14   7  784.32   54.69
  14   1   7  760.22   25.80
 -15  14   7  692.23   51.49
   2  12  -7  926.61   47.90
   2  12  -7  943.11   45.50
  12 -14  -7  903.41   41.00
   2  12  -7  929.01   47.30
  14  -2   7  909.81   31.00
 -12  14   7  897.61   49.40
 -12  14   7  932.51   53.19
   5   9  -7  632.14   40.80
   9 -14  -7  658.63   32.20
   5   9  -7  674.43   38.50
   5   9  -7  649.04   41.30
  -9  14   7  640.54   43.20
  -9  14   7  588.24   47.40
  -5  -9   7  608.64   43.80
  14  -5   7  634.14   28.70
   8   6  -7  272.27   36.30
   6 -14  -7  259.57   20.90
   8   6  -7  296.67   32.00
  -8  -6   7  227.68   30.40
  -6  14   7  199.78   29.10
  14  -8   7  249.38   24.20
  -6  14   7  281.37   31.20
 -14  11  -7  245.98   19.00
   3 -14  -7  262.37   16.20
  11   3  -7  233.38   27.70
 -14  11  -7  222.08   18.30
   3 -14  -7  266.57   20.70
  11   3  -7  247.68   31.60
 -14  11  -7  217.98   22.30
 -11  -3   7  230.48   33.10
  14 -11   7  282.57   27.80
  -3  14   7  279.07   37.40
  -3  14   7  257.17   29.70
 -14  14  -7   26.30   17.00
 -14  14  -7   12.10   12.70
 -14  14  -7    6.00   12.80
  14   0  -7   15.20   19.30
  14 -14   7   11.80   15.40
 -14   0   7   -8.90   22.10
   0  14   7   29.50   19.70
   0  14   7    1.60   17.60
 -14  17  -7   59.29   17.80
 -14  17  -7   68.69   22.80
   3  14   7   33.60   22.40
   3  14   7   34.50   18.50
 -17   3   7   52.19   28.10
  14 -17   7   49.60   18.50
 -14  20  -7  312.17   35.60
 -14  20  -7  257.57   34.70
   6  14   7  267.37   33.70
   6  14   7  294.87   30.30
  14 -20   7  302.17   38.30
 -20   6   7  206.68   38.90
 -14  23  -7  210.88   39.20
 -14  23  -7  183.98   28.90
  23  -9  -7  204.58   36.50
  23  -9  -7  175.68   28.70
 -23   9   7  245.48   51.99
   9  14   7  207.28   23.10
  14 -23   7  180.28   30.40
   9  14   7  234.48   29.80
   9  14   7  236.28   25.60
 -14  26  -7  174.38   34.50
 -14  26  -7  148.49   45.50
  14 -26   7   48.80   30.40
 -26  12   7  161.78   48.10
  12  14   7  136.49   22.50
  12  14   7  109.89   24.20
 -26  12   7  126.89   48.70
  26 -15  -7   25.60   44.00
 -11  26  -7  136.69   34.90
  26 -15  -7  136.19   36.10
 -11  26  -7  204.38   48.00
  15  11   7  152.58   18.10
  15  11   7  157.68   17.60
 -26  15   7  114.99   45.80
  15  11   7  135.09   16.30
 -26  15   7  177.88   48.40
  11 -26   7  187.08   52.69
  23 -15  -7  216.08   30.90
  -8  23  -7  202.58   38.60
  -8  23  -7  209.28   35.80
  15   8   7  181.88   23.40
 -23  15   7  224.68   37.30
   8 -23   7  254.47   35.90
 -23  15   7  171.18   44.90
  20 -15  -7  555.64   41.00
  -5  20  -7  594.24   50.49
  15   5   7  587.44   26.60
 -20  15   7  596.94   52.99
 -20  15   7  679.63   61.29
  -2  17  -7  816.12   50.29
  -2  17  -7  909.91   50.69
 -17  15   7  959.70   55.99
  15   2   7  947.61   28.60
 -17  15   7  953.50   63.09
   1  14  -7  767.42   46.00
   1  14  -7  812.42   46.50
  14 -15  -7  769.52   40.00
 -14  15   7  767.92   54.69
 -14  15   7  859.31   50.29
  15  -1   7  773.92   27.80
   4  11  -7  693.73   43.80
  11 -15  -7  700.63   35.50
   4  11  -7  619.84   43.30
  -4 -11   7  752.92   47.10
  15  -4   7  711.53   29.40
 -11  15   7  757.72   52.79
 -11  15   7  737.63   48.50
   7   8  -7  362.96   36.20
   7   8  -7  492.15   40.30
   8 -15  -7  462.05   26.70
  -8  15   7  648.84   42.00
  -7  -8   7  482.85   45.80
  -8  15   7  400.56   45.90
  15  -7   7  498.75   28.10
 -15  10  -7  130.59   13.20
   5 -15  -7  155.18   17.90
  10   5  -7  153.08   25.40
  10   5  -7  162.78   26.50
  15 -10   7  142.89   19.40
  -5  15   7  134.49   28.40
  -5  15   7  138.29   27.80
 -10  -5   7  140.99   31.70
 -15  13  -7  391.76   27.80
 -15  13  -7  391.06   24.70
  13   2  -7  422.76   38.00
 -15  13  -7  393.06   25.00
  15 -13   7  442.16   32.40
 -13  -2   7  396.36   45.00
  -2  15   7  383.56   38.80
  -2  15   7  367.46   38.70
 -15  16  -7   61.39   21.20
 -15  16  -7   69.29   17.10
   1  15   7   43.60   21.60
   1  15   7   54.99   20.70
 -16   1   7   70.99   30.60
  15 -16   7   60.29   19.00
 -15  19  -7  193.08   39.40
 -15  19  -7  165.68   25.00
   4  15   7  158.78   24.70
  15 -19   7  140.39   25.80
   4  15   7  184.18   28.70
 -19   4   7  157.28   37.00
  22  -7  -7   84.59   41.70
 -15  22  -7  176.18   34.70
 -15  22  -7  176.18   28.90
  22  -7  -7  178.08   26.50
 -22   7   7  216.78   45.00
   7  15   7  237.88   25.20
   7  15   7  232.78   31.20
   7  15   7  243.78   27.20
  15 -22   7  236.88   34.90
  25 -10  -7  208.58   33.50
  25 -10  -7  113.69   25.30
 -15  25  -7  227.58   44.90
  10  15   7  225.08   26.70
  15 -25   7  235.38   31.20
 -25  10   7  200.08   50.19
  10  15   7  245.88   28.10
  25 -16  -7   17.30   20.80
  -9  25  -7   80.99   37.00
  -9  25  -7   48.90   29.40
 -25  16   7   85.79   38.00
 -25  16   7    1.90   49.60
   9 -25   7   90.69   23.10
  -6  22  -7  162.88   34.80
  22 -16  -7  146.19   27.50
  -6  22  -7  135.89   35.60
 -22  16   7  153.48   35.00
 -22  16   7  158.98   42.30
   6 -22   7   75.29   26.20
  19 -16  -7  138.09   42.00
  -3  19  -7   76.89   26.80
 -19  16   7   48.60   26.90
  16   3   7   75.89   11.20
 -19  16   7   20.50   35.40
  16 -16  -7    9.70   15.00
   0  16  -7    6.40   19.70
   0  16  -7    3.30   22.80
  16   0   7   17.50    9.20
 -16  16   7  -18.90   27.70
 -16  16   7   15.80   27.30
  13 -16  -7   29.10   15.40
   3  13  -7   20.50   21.40
   3  13  -7   31.60   21.10
 -13  16   7   48.90   29.10
 -13  16   7   55.19   22.70
  16  -3   7   42.40   11.20
   6  10  -7   18.40   18.90
   6  10  -7   24.80   20.60
  10 -16  -7    5.30   19.90
  16  -6   7   19.80   11.50
 -10  16   7   44.50   21.10
 -10  16   7   16.90   27.30
  -6 -10   7    9.20   24.00
   7 -16  -7   57.69   13.70
   9   7  -7   54.39   20.70
   9   7  -7   17.90   22.00
  -7  16   7   30.30   24.60
  -7  16   7   29.40   25.40
  16  -9   7   15.30   13.80
  -9  -7   7   33.30   26.70
 -16  12  -7  570.34   24.40
  12   4  -7  571.34   43.70
 -16  12  -7  579.74   25.80
   4 -16  -7  568.04   23.70
 -16  12  -7  573.94   23.20
  12   4  -7  508.45   40.60
  -4  16   7  579.14   45.80
 -12  -4   7  631.94   51.49
  16 -12   7  625.34   36.20
  -4  16   7  585.94   45.30
 -16  15  -7   18.00   13.10
 -16  15  -7   -8.70   13.30
 -16  15  -7   15.60   16.20
  -1  16   7   63.59   22.60
  16 -15   7   52.29   18.60
 -15  -1   7   41.50   27.60
  -1  16   7   29.10   21.20
 -16  18  -7   -4.10   20.70
 -16  18  -7   23.60   17.10
  18  -2  -7  -17.90   20.20
  16 -18   7  -24.00   17.90
   2  16   7   -8.20   19.90
   2  16   7   14.00   23.90
 -18   2   7   11.90   28.20
 -16  21  -7   24.80   27.60
 -16  21  -7   -4.40   20.40
   5  16   7   -4.90   24.30
 -21   5   7   26.80   40.20
  16 -21   7  -11.70   21.30
   5  16   7    6.80   22.10
  24  -8  -7   61.09   34.10
  24  -8  -7    5.70   25.10
 -16  24  -7   26.70   25.10
 -16  24  -7   59.69   37.50
   8  16   7   56.39   25.00
  16 -24   7   18.60   27.30
 -24   8   7   41.10   42.00
   8  16   7   67.19   23.10
  24 -17  -7  187.58   31.50
  -7  24  -7   92.29   30.80
  -7  24  -7  170.78   36.50
 -24  17   7  170.48   46.40
   7 -24   7  143.59   32.10
 -24  17   7  117.79   37.00
  -4  21  -7  136.29   30.20
  21 -17  -7  237.18   32.60
  -4  21  -7  221.68   36.80
  17   4   7  213.18   14.00
 -21  17   7  175.18   34.80
   4 -21   7  218.18   32.10
 -21  17   7  219.58   44.70
  -1  18  -7  916.71   54.89
 -18  17   7  994.50   66.89
 -18  17   7  951.90   62.69
  17   1   7 1041.60   30.10
  15 -17  -7 1187.88   49.20
   2  15  -7 1097.89   55.39
 -15  17   7 1292.37   66.09
  17  -2   7 1217.58   36.60
 -15  17   7 1222.88   61.69
  12 -17  -7  573.44   32.70
   5  12  -7  526.55   43.80
   5  12  -7  490.95   42.60
 -12  17   7  768.32   47.50
 -12  17   7  595.94   55.49
  17  -5   7  624.64   28.30
  -5 -12   7  542.45   49.60
   8   9  -7  543.05   40.90
   9 -17  -7  599.14   31.50
   8   9  -7  655.03   46.90
  -9  17   7  599.54   51.59
  17  -8   7  637.94   31.90
  -9  17   7  653.83   48.40
  -8  -9   7  568.14   49.99
 -17  11  -7  128.49   13.90
   6 -17  -7  143.39   16.50
 -17  11  -7  150.08   16.30
  11   6  -7  142.49   29.30
 -11  -6   7  135.29   30.90
  17 -11   7  134.29   19.90
  -6  17   7  128.39   28.20
  -6  17   7  115.69   29.10
   3 -17  -7   81.69   10.10
   3 -17  -7   69.19   10.50
 -17  14  -7   52.09   12.90
 -17  14  -7   66.69   17.10
 -17  14  -7   92.99   14.20
 -14  -3   7   60.19   29.10
  -3  17   7   64.29   25.10
  17 -14   7   70.39   18.70
 -17  17  -7    7.20   18.70
  17   0  -7   50.89   23.00
 -17  17  -7   14.30   15.50
   0  17   7   11.50   22.50
   0  17   7    3.30   20.20
  17 -17   7   31.10   19.40
 -17   0   7   39.00   29.20
 -17  20  -7   80.89   22.20
  20  -3  -7   87.99   23.70
  17 -20   7   41.40   23.90
 -20   3   7   88.19   41.60
   3  17   7   58.89   28.50
   3  17   7   81.49   26.00
 -17  23  -7  163.88   29.40
  23  -6  -7  121.69   34.30
  23  -6  -7   75.39   22.80
 -17  23  -7  198.18   36.00
   6  17   7  219.38   29.10
 -23   6   7  238.88   46.40
  17 -23   7  258.37   36.00
   6  17   7  199.18   27.20
 -17  26  -7  232.08   45.50
 -17  26  -7  116.39   40.80
  17 -26   7  143.59   44.10
   9  17   7  183.18   28.10
   9  17   7  160.68   30.80
 -26   9   7  176.18   38.40
  -8  26  -7   89.19   37.20
  -8  26  -7   80.59   36.40
 -26  18   7   77.39   34.00
 -26  18   7   92.79   41.30
  -5  23  -7  129.59   33.60
  23 -18  -7  152.58   31.10
  -5  23  -7  149.29   37.60
 -23  18   7  107.59   41.80
   5 -23   7  129.59   31.40
 -23  18   7  118.49   37.90
  -2  20  -7  411.86   49.30
  20 -18  -7  458.25   42.10
  -2  20  -7  405.96   48.00
 -20  18   7  365.76   49.90
  18   2   7  518.45   29.90
 -20  18   7  479.55   56.79
   1  17  -7  917.81   53.69
 -17  18   7  990.30   63.89
  18  -1   7  985.40   31.50
 -17  18   7 1002.10   65.79
  14 -18  -7  415.86   31.40
   4  14  -7  394.36   43.20
 -14  18   7  441.26   54.19
 -14  18   7  374.36   46.30
  18  -4   7  422.56   23.60
  11 -18  -7  197.78   24.10
   7  11  -7  145.99   29.40
 -11  18   7  212.38   31.10
 -11  18   7  165.78   36.40
  18  -7   7  166.88   21.60
  -7 -11   7  178.68   32.90
   8 -18  -7  519.45   29.50
  10   8  -7  473.25   45.00
  18 -10   7  452.75   30.50
 -10  -8   7  392.46   47.90
  -8  18   7  422.66   49.60
  -8  18   7  514.25   53.59
  13   5  -7  412.96   49.40
 -18  13  -7  330.97   24.20
 -18  13  -7  341.87   17.10
 -18  13  -7  338.37   21.30
   5 -18  -7  353.66   21.50
 -18  13  -7  306.87   19.70
  18 -13   7  379.16   32.10
 -13  -5   7  410.16   48.70
  -5  18   7  395.46   64.19
  -5  18   7  406.46   45.20
 -18  16  -7   35.40   19.00
 -18  16  -7   19.70   14.20
  16   2  -7    6.20   20.00
 -18  16  -7    5.60   14.00
  -2  18   7    6.80   24.40
  -2  18   7   32.40   22.90
 -16  -2   7   33.00   31.00
  18 -16   7   18.90   18.60
 -18  19  -7   23.00   22.90
 -18  19  -7   48.10   20.10
  19  -1  -7   24.70   22.20
   1  18   7   -6.40   27.80
 -19   1   7   19.70   37.60
  18 -19   7   30.40   21.80
   1  18   7   35.80   25.70
 -18  22  -7  191.78   33.20
  22  -4  -7   98.59   26.10
  22  -4  -7  209.18   38.60
 -18  22  -7  131.79   26.80
   4  18   7  144.79   27.60
  18 -22   7  135.39   29.30
   4  18   7  160.68   32.10
 -22   4   7  100.89   38.50
 -18  25  -7  181.68   40.70
  25  -7  -7  130.29   26.10
  18 -25   7  160.28   27.80
 -25   7   7  120.19   48.60
   7  18   7  239.78   37.30
   7  18   7  216.58   33.00
  25 -19  -7   -8.30   24.20
  -6  25  -7  -35.90   33.90
  -6  25  -7   31.20   36.70
 -25  19   7    5.60   37.90
   6 -25   7  -39.60   21.70
 -25  19   7   -0.80   44.60
  -3  22  -7   62.59   31.80
  22 -19  -7   72.39   28.60
  -3  22  -7   74.79   30.50
 -22  19   7   62.09   41.10
 -22  19   7   82.19   36.30
   0  19  -7   56.29   28.60
  19 -19  -7   65.09   21.70
  19   0   7   28.70   10.40
 -19  19   7   39.10   39.50
 -19  19   7    4.50   28.40
   3  16  -7   80.09   27.20
  16 -19  -7   -8.20   17.50
 -16  19   7   49.70   33.90
  19  -3   7   59.09   12.30
 -16  19   7   74.39   29.70
  13 -19  -7  295.07   28.10
   6  13  -7  373.06   44.60
  19  -6   7  293.07   22.80
 -13  19   7  345.17   45.90
 -13  19   7  220.88   44.40
  10 -19  -7  300.57   38.90
   9  10  -7  278.87   33.80
  -9 -10   7  336.37   42.10
  19  -9   7  394.66   28.70
 -10  19   7  386.26   43.90
 -10  19   7  394.16   41.90
  12   7  -7   45.30   32.00
  12   7  -7   59.19   20.90
 -19  12  -7   96.09   11.90
   7 -19  -7   69.19   14.80
 -19  12  -7  101.49   12.20
  -7  19   7  155.58   34.60
 -12  -7   7   91.59   31.70
  19 -12   7  175.88   25.20
  -7  19   7  150.88   31.10
 -19  15  -7  125.79   15.90
  15   4  -7  104.99   22.70
 -19  15  -7  110.69   14.60
   4 -19  -7  107.99   13.90
 -19  15  -7  102.79   16.50
  15   4  -7  113.49   31.80
 -19  15  -7  133.19   19.50
  -4  19   7   96.39   28.70
  -4  19   7   90.09   29.80
  19 -15   7  109.19   20.60
 -15  -4   7   82.89   32.80
 -19  18  -7   18.10   20.90
 -19  18  -7   91.79   20.20
  18   1  -7   96.99   28.60
 -18  -1   7   80.89   37.70
  -1  19   7   33.20   24.00
  19 -18   7   36.10   22.90
  21  -2  -7  110.99   33.40
  21  -2  -7   68.99   27.20
   2  19   7  136.69   35.30
   2  19   7  111.99   34.80
 -21   2   7   62.59   38.30
  19 -21   7  141.89   29.30
 -19  24  -7  218.58   33.00
  24  -5  -7  181.18   28.00
  24  -5  -7  116.99   26.40
 -19  24  -7  248.98   38.40
  19 -24   7  176.28   34.10
   5  19   7  258.87   45.60
 -24   5   7  213.88   54.49
  -4  24  -7   97.29   36.70
  -4  24  -7  146.99   41.30
  24 -20  -7  154.08   22.20
 -24  20   7  160.18   42.60
 -24  20   7  139.19   46.50
  -1  21  -7  158.28   37.50
  21 -20  -7  219.78   31.10
  -1  21  -7  222.48   36.70
  20   1   7  210.08   16.50
 -21  20   7  215.78   48.20
 -21  20   7  210.28   42.40
   2  18  -7  415.86   49.99
   2  18  -7  465.05   51.79
  18 -20  -7  461.95   40.90
 -18  20   7  517.75   61.69
  20  -2   7  479.85   23.50
 -18  20   7  475.15   61.49
   5  15  -7  452.65   50.79
   5  15  -7  519.15   49.40
  20  -5   7  502.85   26.20
 -15  20   7  572.64   63.29
  12 -20  -7  508.95   34.00
   8  12  -7  505.25   57.39
   8  12  -7  413.96   47.60
 -12  20   7  537.35   52.29
  20  -8   7  449.26   28.60
  -8 -12   7  433.46   54.69
 -12  20   7  545.15   63.09
   9 -20  -7  126.99   19.30
  11   9  -7  201.88   36.20
  11   9  -7  166.78   38.60
  11   9  -7  217.78   29.40
  -9  20   7   67.69   30.90
  -9  20   7  154.18   36.90
 -11  -9   7  144.29   34.90
  20 -11   7  147.59   20.30
  14   6  -7  156.08   25.10
 -20  14  -7  228.88   22.80
   6 -20  -7  206.28   20.80
 -20  14  -7  168.58   18.40
  14   6  -7  206.08   35.90
 -14  -6   7  192.48   36.30
  -6  20   7  200.88   35.80
  20 -14   7  279.37   32.10
  -6  20   7  191.88   34.30
 -20  17  -7   38.80   16.80
  17   3  -7   -7.20   20.60
 -20  17  -7  -10.20   13.10
 -20  17  -7   31.30   16.80
  -3  20   7   41.40   27.10
 -17  -3   7   37.50   39.10
  20 -17   7   35.70   19.50
  -3  20   7    6.70   24.80
  20   0  -7   -4.50   23.40
  20   0  -7   47.60   28.40
 -20  20  -7    6.70   19.90
 -20  20  -7   16.70   23.00
 -20   0   7   31.10   38.60
  20 -20   7   32.00   24.40
   0  20   7   17.30   33.10
   0  20   7   24.50   27.40
 -20  23  -7    2.80   23.90
 -20  23  -7  -26.30   28.30
  23  -3  -7   59.29   29.50
  20 -23   7   85.79   29.70
   3  20   7   31.70   28.50
 -23   3   7    2.60   47.90
  23 -21  -7   88.89   28.00
  -2  23  -7   92.29   36.80
  -2  23  -7   76.39   39.40
 -23  21   7  165.88   46.30
 -23  21   7  167.28   44.00
  21   2   7  195.78   14.40
   1  20  -7  191.78   36.70
  20 -21  -7  188.58   28.50
   1  20  -7  158.68   37.00
 -20  21   7  157.18   43.60
  21  -1   7  220.98   18.70
 -20  21   7  207.98   42.40
   4  17  -7  136.89   33.90
   4  17  -7  119.19   33.80
 -17  21   7  134.09   38.70
 -17  21   7  114.99   34.00
  21  -4   7  135.89   15.30
   7  14  -7  131.99   33.80
  14 -21  -7  111.39   20.80
   7  14  -7   39.80   23.80
   7  14  -7   83.29   29.80
 -14  21   7  135.19   41.10
  21  -7   7  106.69   17.50
 -14  21   7  117.59   31.40
  11 -21  -7  252.07   29.20
  10  11  -7  316.77   36.50
  10  11  -7  239.28   32.30
  10  11  -7  223.08   37.00
  21 -10   7  235.68   26.40
 -10 -11   7  244.08   40.90
 -11  21   7  285.17   45.30
 -11  21   7  220.88   40.40
  13   8  -7   25.60   42.00
  13   8  -7   57.19   28.40
   8 -21  -7   43.90   14.90
 -21  13  -7   47.60   11.40
  13   8  -7   30.70   23.00
 -13  -8   7  -17.80   32.20
  21 -13   7   39.30   17.30
  -8  21   7   18.30   29.60
  -8  21   7   43.30   33.90
  16   5  -7   43.80   28.10
 -21  16  -7  -13.00   17.00
 -21  16  -7   -1.30   13.90
  16   5  -7   35.00   22.60
 -21  16  -7   -4.90    9.80
 -21  16  -7   -3.90   12.80
   5 -21  -7    0.20    9.80
  -5  21   7  -34.80   27.00
  -5  21   7  -32.10   29.50
 -16  -5   7   53.19   36.30
  21 -16   7   30.00   18.50
  19   2  -7  244.88   40.00
  19   2  -7  233.58   33.30
 -21  19  -7  229.08   26.80
 -21  19  -7  305.27   34.30
  21 -19   7  241.18   31.80
  -2  21   7  206.48   32.80
 -19  -2   7  211.08   46.80
  -2  21   7  212.88   41.70
  22  -1  -7  317.77   43.50
  22  -1  -7  269.87   37.70
 -21  22  -7  233.98   55.29
 -21  22  -7  288.07   32.40
   1  21   7  317.97   38.60
   1  21   7  322.87   42.30
 -22   1   7  297.87   54.99
  21 -22   7  400.06   50.69
 -21  25  -7  268.57   41.00
   4  21   7  320.57   40.10
  21 -25   7  235.58   25.00
 -25   4   7  137.39   30.50
   0  22  -7   47.20   35.80
  22 -22  -7    3.90   23.90
   0  22  -7   -3.10   32.60
 -22  22   7   30.80   39.40
  22   0   7   18.80    9.90
 -22  22   7   38.20   45.10
   3  19  -7    3.40   32.10
  19 -22  -7  -15.60   19.70
   3  19  -7  -11.00   28.50
 -19  22   7   65.69   42.60
  22  -3   7   31.50   11.50
 -19  22   7   31.70   34.90
   6  16  -7  125.49   35.90
   6  16  -7  113.19   35.30
  22  -6   7  124.99   16.60
 -16  22   7  212.38   38.70
 -16  22   7   21.30   43.10
   9  13  -7   86.09   28.20
   9  13  -7   16.80   23.50
   9  13  -7   36.90   34.30
  13 -22  -7   83.19   20.90
  22  -9   7   86.99   17.20
 -13  22   7   25.90   31.80
 -13  22   7   50.09   41.60
  10 -22  -7   69.49   17.30
  12  10  -7   19.00   26.60
  12  10  -7  124.79   33.60
  12  10  -7   47.10   25.50
 -10  22   7   42.80   36.90
 -10  22   7  104.59   37.70
  22 -12   7   48.70   20.70
 -12 -10   7   67.59   34.00
  15   7  -7  113.79   29.10
  15   7  -7   84.79   34.00
   7 -22  -7  119.09   16.50
 -22  15  -7  126.09   15.20
  15   7  -7  139.49   34.70
 -22  15  -7  107.79   18.10
  22 -15   7  173.38   24.00
  -7  22   7  112.19   36.70
 -15  -7   7  110.89   37.10
  -7  22   7  147.49   36.20
 -22  18  -7  116.59   17.00
 -22  18  -7   87.69   18.60
 -22  18  -7  162.38   23.80
  18   4  -7  149.79   30.30
  18   4  -7  126.59   32.20
 -22  18  -7  112.19   19.60
  -4  22   7  139.79   35.70
  22 -18   7  100.89   23.50
 -18  -4   7   38.20   40.50
  -4  22   7   78.39   30.20
  21   1  -7  213.78   37.70
 -22  21  -7  295.87   37.70
  21   1  -7  390.86   51.99
 -22  21  -7  376.16   40.30
 -21  -1   7  327.87   55.09
  -1  22   7  261.97   40.20
  22 -21   7  284.67   36.10
  -1  22   7  266.77   46.00
 -22  24  -7  260.47   33.80
 -22  24  -7  184.38   35.80
  24  -2  -7  188.88   34.90
   2  22   7  347.37   42.80
  22 -24   7  398.26   52.39
  21 -23  -7  105.69   27.40
   2  21  -7  140.49   37.60
   2  21  -7  111.89   42.50
 -21  23   7   87.59   46.40
 -21  23   7  168.28   43.40
  23  -2   7  200.18   19.90
  18 -23  -7  173.58   26.20
   5  18  -7  114.59   39.00
   5  18  -7  105.79   33.20
  23  -5   7  213.98   22.40
 -18  23   7  171.68   45.50
   8  15  -7  291.37   43.60
   8  15  -7  286.47   36.70
   8  15  -7  229.68   40.00
 -15  23   7  373.76   49.40
  23  -8   7  290.77   27.70
 -15  23   7  388.86   57.09
  11  12  -7  415.06   46.00
  11  12  -7  383.96   49.30
  12 -23  -7  453.05   35.10
  11  12  -7  473.65   55.49
 -12  23   7  455.25   53.59
 -12  23   7  330.97   45.00
 -11 -12   7  466.45   52.29
  23 -11   7  479.95   34.20
  14   9  -7  119.99   30.50
  14   9  -7  162.88   34.50
   9 -23  -7  178.48   21.00
 -23  14  -7  177.98   19.20
  14   9  -7  150.08   39.20
  -9  23   7  229.68   43.30
 -14  -9   7  164.28   42.10
  -9  23   7  214.88   39.00
  23 -14   7  148.99   23.10
 -23  17  -7   97.89   20.70
 -23  17  -7   54.69   17.30
  17   6  -7   76.79   30.40
   6 -23  -7  102.09   15.20
  17   6  -7  105.19   29.00
  17   6  -7   73.89   35.90
  23 -17   7  111.39   25.00
  -6  23   7   76.59   33.20
  -6  23   7   56.99   35.70
 -17  -6   7   95.59   44.30
  20   3  -7   24.30   28.40
 -23  20  -7   33.50   21.70
 -23  20  -7   40.70   22.30
 -23  20  -7   67.39   26.10
 -20  -3   7   36.00   43.60
  23 -20   7   80.99   28.00
  -3  23   7    2.70   41.00
  -3  23   7   33.80   34.70
 -23  23  -7   40.70   25.10
  23   0  -7    2.50   24.70
 -23  23  -7   28.90   31.50
 -23   0   7  -57.59   28.60
   0  23   7   28.10   38.80
   0  23   7   62.39   33.80
  23 -23   7   41.80   33.10
   4  20  -7   76.79   26.80
   4  20  -7   80.59   40.40
  20 -24  -7  109.39   25.30
  24  -4   7  140.29   16.80
 -20  24   7   67.49   48.40
 -20  24   7  125.69   49.99
  17 -24  -7   90.79   23.90
   7  17  -7   32.90   37.40
   7  17  -7   94.79   35.70
 -17  24   7   89.59   36.70
 -17  24   7   63.69   49.30
  24  -7   7   74.79   17.00
  14 -24  -7   -2.80   18.10
  10  14  -7  165.28   38.60
  10  14  -7   57.39   29.30
  10  14  -7  115.99   35.10
  24 -10   7  140.19   20.90
 -14  24   7  196.58   52.19
 -14  24   7  125.79   40.60
  13  11  -7   -3.30   32.90
  11 -24  -7   -8.70   16.40
  13  11  -7   -0.80   30.30
  13  11  -7  -30.20   25.80
  24 -13   7   25.90   18.40
 -11  24   7   -2.50   36.50
 -11  24   7  -49.40   40.00
 -13 -11   7   34.10   39.90
 -24  16  -7   43.10   14.90
  16   8  -7   11.70   30.00
  16   8  -7   38.10   28.00
 -24  16  -7   48.00   15.10
  16   8  -7   48.80   37.00
   8 -24  -7   78.39   18.70
  -8  24   7   -6.70   37.10
 -16  -8   7  -11.30   42.70
  -8  24   7   34.70   36.90
  24 -16   7   47.80   21.40
  19   5  -7  210.78   29.20
 -24  19  -7  230.98   24.20
 -24  19  -7  340.77   36.10
 -24  19  -7  301.17   25.80
  19   5  -7  284.47   38.70
 -24  19  -7  258.67   33.50
  19   5  -7  237.78   47.60
  -5  24   7  182.88   38.00
  -5  24   7  283.47   50.39
  24 -19   7  333.67   44.20
 -19  -5   7  232.68   51.09
 -24  22  -7  395.86   57.59
 -24  22  -7  396.76   47.40
 -24  22  -7  301.77   40.30
  22   2  -7  305.77   35.00
  -2  24   7  444.76   55.69
 -22  -2   7  259.47   37.60
  -2  24   7  406.96   48.40
  24 -22   7  404.06   42.80
   6  19  -7  -23.00   27.20
   6  19  -7   12.90   38.60
  19 -25  -7   17.20   24.70
 -19  25   7 -102.29   49.99
  25  -6   7   33.80   16.00
   9  16  -7  -33.00   23.20
  16 -25  -7    4.60   21.50
   9  16  -7   59.19   39.50
   9  16  -7   34.70   24.70
 -16  25   7   64.69   44.30
 -16  25   7   66.29   54.29
  25  -9   7   43.50   18.30
  13 -25  -7  116.09   23.20
  12  13  -7   95.69   38.50
  12  13  -7  118.39   31.50
  12  13  -7   35.80   28.10
  25 -12   7  148.79   23.50
 -13  25   7  119.99   45.10
 -13  25   7  147.69   51.99
 -12 -13   7   37.80   41.50
  15  10  -7  101.29   29.30
  10 -25  -7  149.09   21.60
  15  10  -7  107.49   43.70
  15  10  -7   26.30   28.90
 -15 -10   7  131.09   48.50
  25 -15   7  118.29   25.00
 -10  25   7  181.08   48.50
 -10  25   7  121.49   44.50
 -25  18  -7  177.18   22.20
  18   7  -7   94.79   24.90
   7 -25  -7  160.78   18.40
  18   7  -7  124.99   28.70
  18   7  -7  167.58   47.20
 -25  18  -7  182.18   22.70
  -7  25   7  136.39   41.30
  25 -18   7  218.18   30.30
  -7  25   7  128.39   39.80
 -18  -7   7   89.39   46.50
 -25  21  -7  180.18   20.30
 -25  21  -7  132.89   25.50
 -25  21  -7  200.98   29.90
  21   4  -7   57.29   32.40
 -25  21  -7  133.39   14.70
  -4  25   7  214.38   46.20
  25 -21   7  209.88   35.60
  -4  25   7  127.69   51.99
 -21  -4   7  121.39   27.30
  18 -26  -7  103.89   29.60
   8  18  -7   50.09   28.00
  26  -8   7  133.49   21.70
 -18  26   7   74.59   54.99
 -18  26   7  215.78   40.40
  11  15  -7  154.48   43.80
  11  15  -7   76.49   36.40
  11  15  -7   55.69   21.60
 -15  26   7  223.28   60.49
  26 -11   7  160.58   25.60
 -15  26   7  137.49   47.60
  12 -26  -7   98.49   22.20
  14  12  -7   83.99   44.60
  14  12  -7  122.09   23.30
 -12  26   7   88.89   44.60
 -14 -12   7   31.70   46.80
 -12  26   7   80.19   48.40
  26 -14   7   66.19   23.10
 -26  17  -7  123.39   12.50
 -26  17  -7  125.99   13.60
   9 -26  -7  127.99   22.10
  17   9  -7  108.29   20.60
  17   9  -7   70.29   42.10
  -9  26   7  107.99   47.70
  26 -17   7  155.28   29.00
 -17  -9   7   66.39   32.30
  -9  26   7   65.19   45.00
   0  -1  -8   63.39   15.50
   0  -1  -8   49.70   11.70
   1   0  -8   68.89   15.00
  -1   1  -8   51.09   15.20
  -1   1  -8   36.40   10.70
   1   0  -8   22.70   10.50
  -1   1  -8   70.19   14.90
   1   0  -8   37.10   16.10
   0  -1  -8   67.69   13.70
   0   1   8   64.29   17.80
   0   1   8   67.59   19.20
  -1   0   8   50.09   19.00
   1  -1   8   61.89   17.80
  -2   0  -8  217.28   19.90
   2  -2  -8  259.27   23.20
  -2   0  -8  252.87   23.10
   2  -2  -8  241.78   27.50
   0   2  -8  272.27   24.30
   2  -2  -8  264.27   21.30
  -2   0  -8  244.88   18.30
   0   2  -8  274.97   27.90
   0   2  -8  206.68   23.00
   2   0   8  288.77   26.70
   0  -2   8  327.47   31.70
  -2   2   8  262.17   30.90
  -2   2   8  316.17   32.70
  -1  -2  -8    7.70   10.50
   3  -1  -8  -15.70    9.10
  -2   3  -8   -3.60   10.60
   3  -1  -8   16.00   15.30
  -2   3  -8    6.90   13.90
  -2   3  -8    3.60   10.90
   3  -1  -8   31.90   15.80
  -1  -2  -8    6.30    9.10
  -1  -2  -8   -5.30   12.20
  -3   1   8   12.70   16.60
  -3   1   8   -0.10   18.00
   2  -3   8    7.30   15.80
   1   2   8   -5.60   16.90
   1   2   8   12.30   14.70
  -1   4  -8  317.17   25.70
  -3  -1  -8  306.07   17.70
   4  -3  -8  301.07   23.60
  -3  -1  -8  316.27   20.60
  -1   4  -8  355.86   26.60
   4  -3  -8  296.47   29.20
  -1   4  -8  294.67   29.20
   4  -3  -8  284.97   25.90
  -3  -1  -8  338.17   20.50
   3   1   8  339.97   24.90
   3   1   8  350.56   33.40
  -4   3   8  377.46   36.30
  -4   3   8  315.97   33.70
   1  -4   8  350.76   32.90
   2   1  -8   29.10   13.30
  -3   2  -8   61.19   13.80
   2   1  -8   45.90   14.70
   1  -3  -8   63.29   12.30
   2   1  -8   35.10   16.00
  -3   2  -8   36.60    9.90
   1  -3  -8   32.30   14.50
  -3   2  -8   53.19   14.30
   1  -3  -8   47.30   13.70
   3  -2   8   60.49   15.70
  -1   3   8   34.70   17.80
  -2  -1   8   53.29   20.20
  -1   3   8   35.70   17.40
  -2  -3  -8  754.62   25.50
  -3   5  -8  782.92   34.00
   5  -2  -8  757.62   38.70
  -3   5  -8  776.02   36.80
   5  -2  -8  809.62   38.50
  -3   5  -8  834.52   34.70
  -2  -3  -8  785.62   27.70
   5  -2  -8  751.22   34.50
   3  -5   8  800.72   37.60
   2   3   8  832.92   41.60
  -5   2   8  798.12   45.80
   2   3   8  818.92   34.10
  -2   6  -8    5.50   13.30
  -2   6  -8   -6.80   15.20
  -4  -2  -8    7.40    7.10
   6  -4  -8   -3.50   11.20
  -2   6  -8    6.00   13.10
   6  -4  -8    2.10   15.80
   6  -4  -8  -13.70   12.20
   4   2   8    0.30   11.50
   2  -6   8   27.10   18.30
   4   2   8    2.70   16.90
  -6   4   8    5.00   23.40
  -6   4   8   -0.80   20.30
   3  -4  -8  227.68   28.20
   3  -4  -8  313.07   22.70
   1   3  -8  255.97   28.10
  -4   1  -8  243.38   20.40
  -4   1  -8  262.87   18.50
   3  -4  -8  292.07   25.40
  -4   1  -8  280.47   17.90
   1   3  -8  262.27   25.20
   1   3  -8  287.27   26.20
  -3   4   8  261.17   32.80
  -3   4   8  279.97   31.60
   4  -1   8  317.17   23.60
  -1  -3   8  301.97   35.10
   4   0  -8  954.90   42.00
  -4   4  -8  950.90   35.90
   0  -4  -8  964.00   34.70
   0  -4  -8  971.70   31.80
  -4   4  -8 1001.80   35.90
   4   0  -8  968.00   43.00
  -4   4  -8  979.30   37.60
   4   0  -8  958.10   40.40
   0   4   8 1063.69   42.50
  -4   0   8 1045.80   49.70
   4  -4   8 1091.09   39.80
   0   4   8 1065.69   46.60
  -4   7  -8  179.58   23.00
  -4   7  -8  193.78   22.80
   7  -3  -8  228.78   30.20
   7  -3  -8  204.08   27.30
  -4   7  -8  228.58   27.90
   7  -3  -8  167.78   21.60
  -7   3   8  285.37   32.60
   3   4   8  331.67   32.40
   3   4   8  265.17   24.20
  -7   3   8  278.57   33.40
  -3   8  -8  520.55   31.70
   8  -5  -8  470.75   34.20
  -3   8  -8  546.25   31.50
  -3   8  -8  499.55   35.10
   8  -5  -8  511.65   30.80
   5   3   8  607.84   25.50
  -8   5   8  590.94   45.60
  -8   5   8  609.74   40.80
   5   3   8  612.64   36.60
  -5   0  -8   80.59   10.30
   0   5  -8   93.49   18.10
  -5   0  -8   93.09   10.60
   0   5  -8   83.99   17.00
   5  -5  -8  113.09   18.60
   5  -5  -8   66.29   13.80
   0   5  -8   87.99   16.90
   5  -5  -8   95.19   19.90
   0  -5   8   57.39   21.10
  -5   5   8   78.29   20.70
   5   0   8   93.49   13.10
  -5   5   8   52.69   21.60
   2  -5  -8  741.03   33.60
  -5   3  -8  750.32   27.70
   3   2  -8  809.52   39.00
  -5   3  -8  722.23   30.60
   3   2  -8  813.52   39.50
   2  -5  -8  750.82   30.30
   2  -5  -8  764.62   34.40
  -5   3  -8  777.32   29.40
   3   2  -8  739.23   38.50
  -2   5   8  796.42   42.30
   5  -3   8  753.02   31.50
  -3  -2   8  792.42   44.60
  -2   5   8  774.22   40.50
  -5   6  -8   33.50   15.30
  -5   6  -8   37.40   12.30
  -1  -5  -8   23.10    8.00
  -5   6  -8   20.40   12.00
   6  -1  -8   37.90   16.60
   6  -1  -8   21.60   17.10
   6  -1  -8   23.20   13.40
  -1  -5  -8   26.80   11.10
   1   5   8   60.69   19.30
   1   5   8   39.60   15.80
  -6   1   8   70.39   24.10
   9  -4  -8  122.29   18.50
  -5   9  -8  134.89   21.20
  -5   9  -8  152.58   19.20
   9  -4  -8  106.09   20.40
  -5   9  -8  142.79   19.70
   4   5   8  107.79   20.90
  -9   4   8   89.99   25.90
  -9   4   8  107.89   22.90
   5  -9   8  134.39   20.90
   4   5   8   98.99   15.30
  -4  10  -8  213.68   27.70
  10  -6  -8  180.08   25.10
  -4  10  -8  191.28   24.90
  -4  10  -8  214.68   27.40
  10  -6  -8  216.48   25.60
   6   4   8  209.08   18.90
 -10   6   8  186.18   34.50
 -10   6   8  271.47   35.70
   6   4   8  214.28   28.20
   7  -6  -8  112.59   16.50
   7  -6  -8  104.89   19.40
  -1   7  -8   93.39   20.10
  -1   7  -8  108.59   19.30
   6   1   8  134.79   16.20
  -7   6   8  133.39   23.70
   6   1   8  120.59   21.10
  -7   6   8  143.79   26.30
   1  -7   8  150.48   24.90
  -6   2  -8   26.20   10.20
   4  -6  -8    3.70   13.30
   4  -6  -8    6.80   15.50
  -6   2  -8   16.70    8.80
   4  -6  -8   37.50   12.00
  -6   2  -8   30.40    8.00
   2   4  -8   32.90   15.00
   2   4  -8    8.80   17.00
  -2  -4   8    7.90   19.70
  -4   6   8   26.50   19.50
  -4   6   8   25.90   17.50
  -6   5  -8   74.69   15.50
  -6   5  -8   75.99   13.80
   1  -6  -8   79.99   12.20
  -6   5  -8  104.99   14.30
   5   1  -8   77.09   20.70
   5   1  -8   77.69   17.60
   1  -6  -8   85.99   15.40
   5   1  -8   70.39   19.20
  -5  -1   8  110.59   25.50
  -1   6   8  141.49   23.70
  -1   6   8  132.69   20.90
  -6   8  -8  531.05   33.30
   8  -2  -8  497.75   35.70
  -6   8  -8  531.25   29.10
   8  -2  -8  476.25   58.59
   8  -2  -8  412.86   29.70
  -6   8  -8  477.35   28.70
   2   6   8  428.46   35.30
   6  -8   8  419.56   31.10
  -8   2   8  397.96   43.90
   2   6   8  455.35   28.90
  -6  11  -8  907.71   49.30
  11  -5  -8 1133.19   46.70
  11  -5  -8 1047.30   48.80
  -6  11  -8 1069.99   43.50
  -6  11  -8 1103.29   47.60
   6 -11   8 1101.39   47.70
   5   6   8 1088.09   43.10
   5   6   8 1075.29   36.20
 -11   5   8 1131.99   56.49
 -11   5   8  975.80   56.39
  12  -7  -8   60.09   17.10
  -5  12  -8   49.00   16.60
  -5  12  -8   49.20   18.00
  12  -7  -8   81.99   21.90
  -5  12  -8   45.70   20.40
 -12   7   8   58.89   26.00
   5 -12   8   11.00   16.60
 -12   7   8   48.20   25.60
   7   5   8   51.09   16.60
  -2   9  -8  142.39   22.40
   9  -7  -8  123.79   18.70
  -2   9  -8  154.08   21.60
   9  -7  -8  118.99   27.90
  -2   9  -8  154.98   20.90
  -9   7   8  117.69   23.10
  -9   7   8  111.89   27.40
   7   2   8  139.09   20.60
   1   6  -8   86.29   18.00
   1   6  -8   99.39   19.10
   6  -7  -8   97.59   18.70
   1   6  -8   86.69   20.70
   6  -7  -8   98.59   16.30
  -1  -6   8  127.99   25.10
  -6   7   8  102.19   24.30
   4   3  -8  431.56   33.90
   3  -7  -8  530.65   25.60
  -7   4  -8  461.15   21.80
  -7   4  -8  442.06   23.30
  -7   4  -8  446.16   20.10
   3  -7  -8  459.45   30.10
   4   3  -8  413.36   31.10
   4   3  -8  458.85   33.40
  -3   7   8  500.05   39.00
  -3   7   8  469.15   37.20
   7  -4   8  511.55   30.30
  -4  -3   8  495.25   42.70
   0  -7  -8 1200.68   32.10
   0  -7  -8 1174.28   34.30
   7   0  -8 1192.98   48.50
   7   0  -8 1194.48   50.79
  -7   7  -8 1185.98   40.20
  -7   7  -8 1267.37   43.10
  -7   7  -8 1188.78   39.60
   0   7   8 1179.18   44.90
  -7   0   8 1244.58   57.59
   0   7   8 1192.98   49.60
   7  -7   8 1184.78   46.30
  -7  10  -8 1335.97   46.70
  -7  10  -8 1318.97   49.00
  -7  10  -8 1304.37   46.00
  10  -3  -8 1188.68   47.90
  10  -3  -8 1421.66   57.79
   3   7   8 1377.06   44.70
 -10   3   8 1397.76   60.19
   3   7   8 1465.25   51.29
   7 -10   8 1471.45   54.49
 -10   3   8 1304.07   64.99
  -7  13  -8  481.75   32.90
  -7  13  -8  480.15   34.30
  -7  13  -8  517.15   40.30
  13  -6  -8  424.46   38.00
  13  -6  -8  536.65   34.70
   7 -13   8  664.53   41.00
 -13   6   8  638.64   51.49
   6   7   8  627.54   34.60
   6   7   8  600.44   28.20
 -13   6   8  548.75   46.60
  -6  14  -8  173.78   24.10
  -6  14  -8  219.18   29.50
  -6  14  -8  240.48   31.10
  14  -8  -8  166.68   27.50
 -14   8   8  315.47   39.10
 -14   8   8  285.27   33.80
   8   6   8  260.67   30.40
   6 -14   8  249.18   30.40
  11  -8  -8  170.58   25.40
  -3  11  -8  122.49   20.60
  11  -8  -8  138.69   21.30
  -3  11  -8  136.59   21.60
 -11   8   8  144.29   26.40
   8   3   8  133.19   19.40
 -11   8   8  132.79   30.60
   0   8  -8  580.94   35.10
   8  -8  -8  689.03   38.60
   0   8  -8  599.74   39.30
   0   8  -8  579.54   36.10
  -8   8   8  627.14   47.30
  -8   8   8  639.94   45.30
   0  -8   8  650.43   45.00
  -8   3  -8  317.07   15.30
   3   5  -8  388.16   30.90
   3   5  -8  340.47   32.70
   5  -8  -8  396.86   25.10
   3   5  -8  353.16   31.40
   5  -8  -8  381.66   30.60
   8  -3   8  434.26   27.90
  -5   8   8  427.66   38.20
  -5   8   8  395.86   39.30
  -3  -5   8  490.35   41.80
  -8   6  -8  267.07   18.60
  -8   6  -8  255.67   19.50
   2  -8  -8  271.67   19.20
   2  -8  -8  298.77   24.50
   6   2  -8  352.16   30.40
  -8   6  -8  288.77   23.30
  -2   8   8  296.97   33.00
  -6  -2   8  250.07   31.30
  -2   8   8  225.18   27.10
   8  -6   8  278.07   26.90
   9  -1  -8  481.55   33.90
   9  -1  -8  527.85   38.40
  -8   9  -8  564.44   33.20
   9  -1  -8  511.75   38.90
  -8   9  -8  520.25   28.40
  -8   9  -8  518.35   28.40
   1   8   8  578.24   33.80
   1   8   8  538.75   38.70
   8  -9   8  600.84   36.00
  -8  12  -8    2.80   14.20
  -8  12  -8    1.00   19.40
  12  -4  -8  -14.10   11.10
  12  -4  -8   13.30   18.80
 -12   4   8   25.30   23.30
   8 -12   8    4.70   16.30
 -12   4   8   26.40   24.70
   4   8   8   -3.90   17.00
   4   8   8    1.50   16.30
  -8  15  -8   45.50   19.10
  -8  15  -8   18.00   23.90
  -8  15  -8   39.60   18.10
  15  -7  -8  -11.20   17.70
 -15   7   8   46.60   27.50
   8 -15   8   51.09   22.10
 -15   7   8   12.10   23.10
   7   8   8   36.20   13.50
   7   8   8   36.20   19.50
  -7  16  -8  206.68   28.00
  -7  16  -8  204.98   32.80
 -16   9   8  177.08   32.00
 -16   9   8  213.28   36.40
   7 -16   8  188.18   27.60
   9   7   8  190.88   23.50
  13  -9  -8  218.78   29.60
  13  -9  -8  163.48   22.50
  -4  13  -8  163.38   25.50
  -4  13  -8  175.98   22.50
 -13   9   8  187.98   32.40
 -13   9   8  163.68   33.60
   9   4   8  212.08   22.30
  -1  10  -8   31.80   20.10
  10  -9  -8   75.59   20.40
  -1  10  -8   31.70   17.50
  10  -9  -8   69.99   17.10
  -1  10  -8   40.30   18.40
 -10   9   8   53.99   22.60
 -10   9   8   38.30   32.40
   2   7  -8  112.09   20.20
   2   7  -8   91.59   19.20
   2   7  -8   75.89   25.50
   7  -9  -8   62.79   13.90
  -7   9   8   95.59   26.00
  -7   9   8   35.90   21.10
   9  -2   8   86.09   14.60
  -2  -7   8   58.59   24.30
   5   4  -8  114.59   22.60
   5   4  -8   68.99   23.90
   4  -9  -8  112.99   18.30
   4  -9  -8  113.79   15.50
  -9   5  -8  102.19   11.90
  -9   5  -8  102.79   11.70
   5   4  -8  128.19   20.50
   9  -5   8   89.19   16.80
  -4   9   8  111.99   25.20
  -5  -4   8   82.09   26.10
  -4   9   8   76.39   22.70
  -9   8  -8  809.72   31.80
  -9   8  -8  860.81   31.20
   8   1  -8  857.21   44.60
   1  -9  -8  810.42   25.70
   8   1  -8  837.52   42.10
   8   1  -8  788.32   44.40
   1  -9  -8  820.42   28.60
  -9   8  -8  831.92   34.70
  -1   9   8  865.91   46.40
  -1   9   8  861.21   41.80
   9  -8   8  901.51   41.20
  -9  11  -8  413.96   33.40
  11  -2  -8  393.76   33.40
  -9  11  -8  424.56   28.60
  11  -2  -8  405.36   37.80
  -9  11  -8  420.16   28.40
   2   9   8  440.26   32.20
   9 -11   8  533.45   36.40
   2   9   8  486.85   36.20
 -11   2   8  426.96   44.10
  -9  14  -8  649.74   42.60
  -9  14  -8  649.04   37.20
  -9  14  -8  643.44   36.80
  14  -5  -8  485.35   40.90
   5   9   8  583.34   32.90
   5   9   8  610.44   36.00
 -14   5   8  608.74   48.50
 -14   5   8  613.74   51.39
   9 -14   8  609.54   41.10
  17  -8  -8  113.99   29.30
  -9  17  -8   75.09   22.30
  -9  17  -8  111.09   28.70
   9 -17   8  131.39   28.10
 -17   8   8  151.98   32.80
   8   9   8  134.09   21.80
   8   9   8  119.59   16.90
 -17   8   8  134.69   38.10
   8   9   8   97.09   12.10
  -8  18  -8  293.07   37.90
  18 -10  -8  316.87   35.90
  18 -10  -8  311.37   39.10
  -8  18  -8  243.98   37.00
 -18  10   8  266.97   36.50
   8 -18   8  294.17   34.60
  10   8   8  283.27   31.20
 -18  10   8  356.76   49.00
  -5  15  -8   92.69   22.60
  -5  15  -8   93.69   21.90
  -5  15  -8   83.79   25.70
   5 -15   8   76.79   19.90
 -15  10   8   78.89   31.00
 -15  10   8   94.39   27.40
  10   5   8   89.59   20.10
  12 -10  -8  109.99   24.70
  -2  12  -8   95.79   20.70
  -2  12  -8   51.79   20.80
  12 -10  -8   87.09   18.50
  -2  12  -8   65.49   22.20
 -12  10   8   90.59   25.60
 -12  10   8   67.49   30.90
  10   2   8   96.19   17.90
   9 -10  -8   62.89   15.30
   1   9  -8   71.89   20.00
   1   9  -8   60.89   17.80
   1   9  -8   62.79   20.20
  -9  10   8   68.49   26.00
  10  -1   8   61.29   13.60
  -9  10   8   52.59   25.80
  -1  -9   8   77.69   26.50
   6 -10  -8  165.38   21.20
   4   6  -8  222.78   26.30
   4   6  -8  244.68   32.30
   4   6  -8  190.18   24.20
  10  -4   8  216.88   24.10
  -4  -6   8  214.08   31.70
  -6  10   8  228.78   30.20
  -6  10   8  254.27   28.40
   3 -10  -8 1199.28   37.30
 -10   7  -8 1258.47   34.90
   7   3  -8 1347.57   52.09
 -10   7  -8 1286.07   36.00
   7   3  -8 1256.67   54.49
   3 -10  -8 1272.47   41.80
 -10   7  -8 1222.18   36.90
   7   3  -8 1282.67   53.19
  10  -7   8 1346.77   48.70
  -3  10   8 1333.97   56.29
  -3  10   8 1334.57   53.39
  10   0  -8 1537.55   61.39
 -10  10  -8 1576.44   48.10
  10   0  -8 1587.04   60.99
 -10  10  -8 1583.64   49.99
  10   0  -8 1584.74   59.09
 -10  10  -8 1602.94   47.40
  10 -10   8 1620.64   56.59
 -10   0   8 1686.03   68.09
   0  10   8 1623.64   54.79
   0  10   8 1650.43   58.69
 -10  13  -8  753.72   37.70
 -10  13  -8  744.03   42.40
 -10  13  -8  778.32   37.30
  13  -3  -8  821.82   49.70
 -13   3   8  857.71   55.09
  10 -13   8  885.81   44.20
   3  10   8  820.32   41.20
   3  10   8  873.91   40.90
 -10  16  -8 1040.00   52.99
 -10  16  -8 1021.40   47.80
   6  10   8  995.00   44.10
 -16   6   8  995.80   57.89
 -16   6   8 1007.50   66.49
  10 -16   8 1049.30   51.59
   6  10   8  964.70   39.00
 -10  19  -8  337.87   38.80
  19  -9  -8  312.57   38.30
 -10  19  -8  334.57   39.30
  19  -9  -8  282.97   33.90
   9  10   8  312.47   26.50
  10 -19   8  429.06   45.30
 -19   9   8  305.57   44.90
   9  10   8  405.66   33.10
   9  10   8  273.67   19.00
 -19   9   8  313.77   41.20
  20 -11  -8  150.88   33.60
  -9  20  -8   88.59   25.10
  -9  20  -8  138.69   34.90
  20 -11  -8  163.48   27.20
   9 -20   8  187.28   32.60
  11   9   8  180.98   23.70
 -20  11   8  172.08   43.40
 -20  11   8  212.58   37.60
  -6  17  -8   11.60   21.30
  -6  17  -8   -9.50   24.50
 -17  11   8   51.09   31.10
  11   6   8   15.20   17.40
 -17  11   8   18.60   25.00
   6 -17   8   32.30   21.00
  -3  14  -8  174.78   26.20
  14 -11  -8  149.09   23.40
  14 -11  -8  152.18   27.00
  -3  14  -8  220.98   30.50
 -14  11   8  109.79   31.90
 -14  11   8  130.39   33.40
  11   3   8  153.28   20.90
   0  11  -8   58.99   19.90
   0  11  -8   86.59   23.30
   0  11  -8   94.29   20.10
  11 -11  -8  110.59   18.90
  11   0   8   84.19   14.40
 -11  11   8   84.39   25.80
 -11  11   8  140.99   31.00
   8 -11  -8  110.19   18.00
   3   8  -8  114.49   24.00
   3   8  -8  119.39   21.80
   3   8  -8  158.48   24.40
  -8  11   8  136.39   25.40
  11  -3   8  104.79   16.20
  -8  11   8  117.09   29.00
   5 -11  -8  978.90   36.00
   6   5  -8  986.50   47.60
   6   5  -8  999.60   46.00
   6   5  -8 1027.70   48.60
  -5  11   8 1024.70   51.09
  -6  -5   8 1068.39   57.29
  -5  11   8  860.21   66.49
  11  -6   8  993.30   40.80
   9   2  -8  256.47   30.40
 -11   9  -8  265.17   19.40
   2 -11  -8  224.38   20.40
 -11   9  -8  241.38   20.10
   2 -11  -8  224.78   16.20
 -11   9  -8  222.88   24.20
   9   2  -8  258.47   31.40
   9   2  -8  232.08   29.30
  -2  11   8  265.67   33.10
  -2  11   8  250.97   30.90
  -9  -2   8  365.76   42.40
  11  -9   8  229.88   30.70
 -11  12  -8  182.48   24.30
 -11  12  -8  222.18   24.70
 -11  12  -8  221.98   24.40
  12  -1  -8  195.98   28.00
   1  11   8  164.18   24.50
  11 -12   8  167.98   22.50
 -12   1   8  201.58   32.70
   1  11   8  191.58   24.70
 -11  15  -8  107.89   25.30
 -11  15  -8   89.59   19.90
 -11  15  -8  120.99   21.30
   4  11   8  105.29   22.00
  11 -15   8   79.49   21.40
 -15   4   8  102.79   33.30
 -11  18  -8  154.38   26.70
  18  -7  -8  123.69   29.00
 -11  18  -8  149.79   31.20
   7  11   8  216.08   23.40
 -18   7   8  163.58   37.70
  11 -18   8  135.79   28.00
   7  11   8  220.98   25.00
 -18   7   8  193.78   34.90
  21 -10  -8  467.15   53.89
 -11  21  -8  347.97   43.10
 -11  21  -8  348.77   45.10
  21 -10  -8  309.57   40.90
  10  11   8  495.35   39.80
 -21  10   8  434.76   52.99
  11 -21   8  536.25   52.79
  10  11   8  391.46   22.30
 -21  10   8  441.86   47.40
  10  11   8  399.76   30.40
 -10  22  -8   48.30   36.30
  22 -12  -8   22.90   34.80
  22 -12  -8   45.70   24.80
 -22  12   8   66.19   41.40
 -22  12   8  -15.90   33.70
  12  10   8   85.59   20.70
  10 -22   8   27.40   26.70
  19 -12  -8  203.48   35.60
  19 -12  -8  195.28   29.20
  -7  19  -8  224.78   38.10
  -7  19  -8  141.09   27.50
   7 -19   8  104.39   27.40
 -19  12   8  182.58   33.90
 -19  12   8  160.48   41.00
  12   7   8  148.49   22.40
  -4  16  -8   66.19   25.40
  -4  16  -8  110.09   23.60
  12   4   8   78.09   18.70
 -16  12   8  114.89   31.00
 -16  12   8   48.00   30.70
  13 -12  -8   44.40   16.80
  -1  13  -8   32.70   19.60
  -1  13  -8   23.80   21.00
 -13  12   8   12.70   30.60
  12   1   8   14.70   11.00
 -13  12   8    7.90   25.60
   2  10  -8  142.79   24.40
  10 -12  -8   95.39   17.40
   2  10  -8   56.79   21.80
   2  10  -8   84.09   20.10
  12  -2   8   84.89   14.70
 -10  12   8   86.89   24.40
 -10  12   8   69.09   28.90
  -2 -10   8  106.19   29.90
   7 -12  -8   39.40   12.90
   5   7  -8   28.20   15.60
   5   7  -8   16.30   19.10
   5   7  -8   -2.70   18.10
  -7  12   8   41.60   25.50
  12  -5   8    1.60   12.90
  -7  12   8   75.89   22.40
  -5  -7   8    2.60   25.50
   8   4  -8   21.50   17.70
 -12   8  -8    1.50    6.60
   4 -12  -8   32.00   15.00
 -12   8  -8   10.60    9.90
   8   4  -8   51.59   17.90
   8   4  -8   26.50   21.60
   4 -12  -8   23.30   11.00
  -8  -4   8   68.99   25.70
  -4  12   8   82.79   24.10
  12  -8   8   61.89   16.20
 -12  11  -8  388.26   25.50
 -12  11  -8  355.76   24.60
  11   1  -8  397.86   40.60
  11   1  -8  328.17   37.30
 -12  11  -8  342.47   29.10
  -1  12   8  320.87   31.80
  -1  12   8  305.47   34.80
  12 -11   8  347.37   31.10
 -11  -1   8  332.77   44.30
 -12  14  -8  928.41   40.90
 -12  14  -8  950.70   41.40
 -12  14  -8  973.50   46.50
   2  12   8 1068.19   45.80
  12 -14   8  946.21   46.50
 -14   2   8  995.30   61.79
   2  12   8  906.11   46.30
 -12  17  -8  381.66   43.60
 -12  17  -8  462.05   37.80
  17  -5  -8  395.36   45.70
   5  12   8  349.47   35.90
 -17   5   8  446.16   57.69
   5  12   8  495.15   40.70
  12 -17   8  409.76   39.80
 -12  20  -8   15.80   30.00
  20  -8  -8   55.99   21.90
  20  -8  -8   20.70   26.90
 -12  20  -8   41.70   23.30
   8  12   8   32.90   22.80
   8  12   8   34.20   15.00
   8  12   8  -15.60   21.20
 -20   8   8   71.49   37.70
 -20   8   8   83.89   33.00
  12 -20   8   -3.40   24.10
  23 -11  -8   70.49   29.10
 -12  23  -8    8.90   37.60
  23 -11  -8  122.99   22.40
  12 -23   8   82.59   25.20
 -23  11   8   17.80   41.50
  11  12   8   -0.20   19.20
 -23  11   8  106.99   40.30
  11  12   8   59.79   14.00
  11  12   8   58.69   24.70
  24 -13  -8   94.79   51.69
 -11  24  -8   22.90   31.90
 -11  24  -8   65.79   41.80
  13  11   8  149.59   23.20
 -24  13   8  161.58   46.80
  11 -24   8  112.59   59.59
 -24  13   8   99.99   46.50
  21 -13  -8  253.07   34.30
  -8  21  -8  265.07   41.70
  21 -13  -8  220.28   41.50
 -21  13   8  248.88   47.10
  13   8   8  216.88   23.60
 -21  13   8  235.78   40.80
   8 -21   8  275.47   38.20
  -5  18  -8  328.07   38.10
  -5  18  -8  418.56   47.40
  18 -13  -8  421.06   39.20
  18 -13  -8  369.56   45.00
  13   5   8  498.35   33.60
 -18  13   8  465.05   52.39
 -18  13   8  544.55   53.19
  -2  15  -8   10.50   21.80
  -2  15  -8   37.70   19.50
  15 -13  -8  -26.50   14.70
 -15  13   8   40.90   30.50
 -15  13   8    5.30   27.00
  12 -13  -8   86.29   19.00
   1  12  -8   71.69   24.10
   1  12  -8   78.29   22.80
  13  -1   8   90.59   14.00
 -12  13   8   65.09   24.60
 -12  13   8   57.79   30.90
   4   9  -8  224.08   29.20
   4   9  -8  159.18   26.60
  13  -4   8  158.78   18.50
  -9  13   8  155.18   29.10
  -4  -9   8  201.58   35.40
   6 -13  -8  576.84   28.60
   7   6  -8  620.34   44.00
   7   6  -8  547.05   42.00
  -6  13   8  730.93   49.00
  -7  -6   8  707.63   51.59
  -6  13   8  741.73   49.99
  13  -7   8  735.73   35.70
   3 -13  -8  782.82   26.80
 -13  10  -8  749.82   30.10
   3 -13  -8  807.92   31.10
 -13  10  -8  833.42   29.20
  10   3  -8  727.33   47.70
  10   3  -8  788.12   47.30
 -13  10  -8  773.22   27.50
 -10  -3   8  893.11   56.29
  13 -10   8  797.92   48.20
  -3  13   8  812.42   46.40
 -13  13  -8 1430.96   46.60
 -13  13  -8 1460.05   47.90
 -13  13  -8 1465.25   50.39
 -13   0   8 1288.27   68.09
   0  13   8 1423.56   55.39
  13 -13   8 1311.47   53.29
   0  13   8 1315.97   54.89
 -13  16  -8 1831.92   63.79
 -13  16  -8 1729.53   58.69
 -13  16  -8 1761.22   59.59
 -16   3   8 1846.82   81.19
  13 -16   8 1817.32   66.59
   3  13   8 1691.63   60.49
   3  13   8 1821.82   63.39
 -13  19  -8  397.96   39.70
  19  -6  -8  364.56   44.70
 -13  19  -8  371.16   38.80
   6  13   8  336.87   39.20
  13 -19   8  413.16   43.70
   6  13   8  385.26   39.60
 -19   6   8  395.46   51.49
  22  -9  -8  133.79   37.30
 -13  22  -8  298.37   45.30
  22  -9  -8  235.58   31.70
 -13  22  -8  230.28   33.10
  13 -22   8  225.78   37.50
   9  13   8  300.97   28.90
   9  13   8  308.57   30.10
   9  13   8  255.17   25.30
 -22   9   8  308.07   49.50
  -9  23  -8  101.09   41.60
  23 -14  -8  120.29   23.10
  -9  23  -8   70.09   32.60
  23 -14  -8   88.69   27.40
 -23  14   8   67.09   38.40
 -23  14   8   63.09   42.20
  14   9   8  100.99   21.20
  20 -14  -8   24.00   21.20
  -6  20  -8   21.90   30.20
   6 -20   8   21.10   25.60
  14   6   8   36.00   18.50
 -20  14   8  -32.10   42.00
 -20  14   8   58.79   31.70
  -3  17  -8  171.68   29.90
 -17  14   8  187.88   34.40
 -17  14   8  252.37   41.20
   0  14  -8   32.90   21.90
  14 -14  -8  -10.10   15.80
   0  14  -8   -8.50   20.90
  14   0   8   10.00   11.00
 -14  14   8  -18.30   23.10
 -14  14   8   18.10   33.80
  11 -14  -8  118.89   19.00
   3  11  -8  115.29   24.40
   3  11  -8   93.59   23.80
 -11  14   8  102.09   32.50
  -3 -11   8  113.19   32.30
  14  -3   8  105.29   15.20
 -11  14   8   83.69   29.60
   6   8  -8  124.29   26.10
   8 -14  -8  123.39   17.50
   6   8  -8   95.79   25.40
  -6  -8   8  134.49   33.30
  14  -6   8  130.09   18.70
  -8  14   8  140.09   50.19
  -8  14   8   78.19   26.50
   5 -14  -8  390.56   24.50
   9   5  -8  309.67   40.60
   9   5  -8  352.26   37.60
  14  -9   8  368.46   31.30
  -5  14   8  338.97   35.90
  -9  -5   8  396.26   45.10
  -5  14   8  365.86   43.00
 -14  12  -8  686.43   29.70
 -14  12  -8  706.03   30.20
 -14  12  -8  661.03   33.10
  12   2  -8  738.13   49.50
 -12  -2   8  696.63   55.19
  -2  14   8  712.53   44.70
  14 -12   8  707.53   40.60
 -14  15  -8  105.59   23.20
 -14  15  -8   97.69   19.10
 -14  15  -8   90.29   18.50
   1  14   8  106.19   26.30
  14 -15   8  125.19   23.50
 -15   1   8  128.39   35.40
   1  14   8  131.69   24.80
 -14  18  -8  182.98   26.70
  18  -4  -8  208.98   34.60
  14 -18   8  174.78   29.60
 -18   4   8  145.19   37.20
   4  14   8  184.48   28.10
   4  14   8  155.48   28.30
  21  -7  -8  137.59   29.30
 -14  21  -8  150.88   34.80
  21  -7  -8   93.39   31.30
 -14  21  -8  165.28   28.00
 -21   7   8   97.49   41.60
   7  14   8  156.98   28.10
   7  14   8  186.38   28.00
  14 -21   8  105.59   27.90
   7  14   8  141.69   20.70
 -14  24  -8  160.08   43.70
 -24  10   8   79.99   38.00
  10  14   8  148.89   24.60
  10  14   8  147.89   27.40
  10  14   8  133.29   19.00
  -7  22  -8   61.29   39.10
  -7  22  -8   89.09   30.50
  22 -15  -8   46.30   25.50
  15   7   8   76.09   20.40
   7 -22   8   76.99   28.50
 -22  15   8   78.39   50.09
 -22  15   8   94.19   33.40
  -4  19  -8   29.20   29.00
  19 -15  -8   35.50   21.50
 -19  15   8   91.99   35.20
 -19  15   8   61.19   31.60
  -1  16  -8    2.70   26.50
  -1  16  -8  -22.60   19.80
  15   1   8   25.00   12.30
 -16  15   8  -11.30   28.60
 -16  15   8   26.60   33.50
   2  13  -8   35.60   22.30
   2  13  -8   14.90   20.70
  13 -15  -8   84.69   19.10
  15  -2   8   85.69   15.20
 -13  15   8   41.50   28.70
 -13  15   8   84.59   36.60
   5  10  -8   57.89   21.90
   5  10  -8   73.49   24.70
  10 -15  -8   54.49   16.00
 -10  15   8   44.40   30.20
  15  -5   8   47.30   14.60
  -5 -10   8   77.29   33.10
 -10  15   8   59.79   25.90
   7 -15  -8  156.48   18.00
   8   7  -8  171.48   29.80
  15  -8   8  174.88   22.10
  -7  15   8  125.39   52.19
  -8  -7   8  219.08   36.10
  -7  15   8  138.59   31.80
  11   4  -8  204.28   31.60
   4 -15  -8  214.58   18.10
 -15  11  -8  229.28   19.00
   4 -15  -8  214.48   23.50
 -15  11  -8  194.58   17.00
 -15  11  -8  222.88   16.10
  -4  15   8  224.28   31.20
  -4  15   8  353.26   44.60
  15 -11   8  242.58   30.20
 -11  -4   8  219.18   36.10
 -15  14  -8  182.78   20.20
 -15  14  -8  171.88   20.00
 -15  14  -8  218.28   23.40
  15 -14   8  244.48   32.50
  -1  15   8  210.08   31.50
 -14  -1   8  237.48   39.70
 -15  17  -8  449.66   35.30
  17  -2  -8  444.76   49.70
 -15  17  -8  482.15   42.80
 -15  17  -8  503.95   36.50
  15 -17   8  435.26   41.10
 -17   2   8  533.95   60.29
   2  15   8  383.66   44.90
   2  15   8  409.76   44.60
  20  -5  -8  249.18   34.50
 -15  20  -8  298.57   38.70
  20  -5  -8  195.38   27.70
 -15  20  -8  279.37   35.80
 -20   5   8  163.18   41.40
  15 -20   8  272.37   34.60
   5  15   8  274.47   33.50
   5  15   8  245.18   30.00
  23  -8  -8   74.49   24.40
 -15  23  -8  113.09   37.50
  23  -8  -8   65.89   20.10
   8  15   8  161.68   29.70
  15 -23   8  115.19   31.20
   8  15   8  155.18   22.80
   8  15   8  132.39   30.00
 -23   8   8  131.59   48.30
  -8  24  -8  120.99   45.10
  -8  24  -8  126.59   36.30
 -24  16   8  205.68   43.20
 -24  16   8   70.39   35.80
  16   8   8  155.28   14.90
  -5  21  -8  138.29   30.50
  -5  21  -8   97.79   37.90
  21 -16  -8   91.09   28.20
 -21  16   8  126.99   39.70
 -21  16   8  142.29   49.80
  16   5   8  136.69   20.40
  -2  18  -8  124.39   30.20
  18 -16  -8  102.09   25.70
 -18  16   8   78.49   32.20
  16   2   8   93.89   14.30
 -18  16   8   81.39   40.60
  15 -16  -8   32.30   20.90
   1  15  -8  -34.60   19.40
   1  15  -8   24.30   25.10
 -15  16   8   37.60   27.70
  16  -1   8  -10.20   10.90
 -15  16   8   16.60   35.80
   4  12  -8  112.09   28.20
  12 -16  -8  113.09   19.60
  16  -4   8  108.29   16.70
 -12  16   8   86.79   29.50
 -12  16   8   85.09   34.00
   7   9  -8    2.90   21.00
   7   9  -8   54.69   23.10
  16  -7   8  102.09   18.50
  -7  -9   8   85.69   30.50
  -9  16   8   62.59   27.90
  -9  16   8   91.59   31.70
  10   6  -8  960.50   56.89
   6 -16  -8  935.61   35.70
  -6  16   8 1070.99   58.59
 -10  -6   8  913.51   60.49
 -16  13  -8 1594.14   44.70
  13   3  -8 1638.04   70.39
 -16  13  -8 1664.33   45.10
 -16  13  -8 1530.65   45.40
  16 -13   8 1653.53   59.99
 -13  -3   8 1752.72   79.49
  -3  16   8 1643.64   66.89
  -3  16   8 1712.13   68.59
 -16  16  -8  699.23   36.50
 -16  16  -8  676.63   36.40
  16   0  -8  589.84   53.79
 -16  16  -8  718.73   41.10
  16 -16   8  738.03   46.30
   0  16   8  566.84   50.89
   0  16   8  770.12   54.49
 -16   0   8  740.13   64.19
 -16  19  -8 1143.49   51.89
 -16  19  -8 1123.79   73.09
  19  -3  -8 1326.67   73.69
  16 -19   8 1080.69   58.49
   3  16   8 1072.99   56.49
   3  16   8  988.80   54.89
 -19   3   8 1011.60   72.69
 -16  22  -8  334.87   41.50
 -16  22  -8  312.27   40.60
  22  -6  -8  185.98   27.50
  22  -6  -8  181.58   34.60
 -22   6   8  306.07   55.79
   6  16   8  316.07   35.10
   6  16   8  342.17   35.90
  16 -22   8  318.87   40.20
  -6  23  -8   23.50   38.80
  -6  23  -8   14.40   33.90
 -23  17   8   -2.60   36.20
  17   6   8   74.99   16.40
 -23  17   8   65.99   49.10
  20 -17  -8   86.59   26.90
  -3  20  -8   49.10   29.50
  -3  20  -8   93.89   33.00
 -20  17   8   89.99   40.80
 -20  17   8   74.39   37.80
   0  17  -8  138.49   36.30
  17 -17  -8  145.49   26.20
   0  17  -8  110.89   32.00
 -17  17   8  146.89   36.70
  17   0   8  103.09   15.40
 -17  17   8   88.39   39.90
   3  14  -8  223.28   45.80
   3  14  -8  235.68   34.90
 -14  17   8  214.58   42.90
  17  -3   8  214.38   23.90
 -14  17   8  217.28   36.00
  11 -17  -8   57.79   15.90
   6  11  -8   66.79   27.10
  17  -6   8  110.19   18.30
 -11  17   8  120.49   37.00
  -6 -11   8  146.49   36.80
 -11  17   8  121.29   29.40
   9   8  -8   98.59   28.70
   8 -17  -8   59.99   16.40
  -8  17   8   61.19   31.50
  -9  -8   8   37.70   30.30
  17  -9   8   50.59   17.80
  -8  17   8  119.79   30.70
   5 -17  -8  159.88   18.40
 -17  12  -8  188.48   18.00
  12   5  -8  129.59   31.90
  -5  17   8  134.49   39.00
  -5  17   8  224.08   35.50
 -12  -5   8  119.59   35.60
  17 -12   8  182.38   24.60
  15   2  -8  387.16   47.00
 -17  15  -8  374.86   26.90
 -17  15  -8  434.26   29.00
 -17  15  -8  447.16   30.80
  15   2  -8  382.46   40.50
  -2  17   8  446.66   52.89
 -15  -2   8  295.77   44.30
  -2  17   8  322.47   36.10
  17 -15   8  363.66   38.10
 -17  18  -8  202.38   25.50
  18  -1  -8  176.58   31.40
  18  -1  -8  207.48   34.40
 -17  18  -8  192.58   24.60
 -17  18  -8  215.08   28.50
 -18   1   8  223.68   43.90
  17 -18   8  186.78   30.20
   1  17   8  274.07   34.80
   1  17   8  213.38   34.10
 -17  21  -8  135.49   25.40
  21  -4  -8   87.59   34.10
 -17  21  -8  113.79   31.30
  17 -21   8  100.89   29.30
   4  17   8   98.39   31.90
 -21   4   8  106.49   42.40
 -17  24  -8  -40.60   23.60
 -17  24  -8   64.09   37.10
  17 -24   8  117.79   39.60
 -24   7   8   22.20   35.10
   7  17   8    2.60   32.10
   7  17   8   83.89   24.90
   7  17   8   27.00   31.20
  -4  22  -8   69.69   35.40
  22 -18  -8   45.20   26.90
  -4  22  -8   -9.40   34.00
 -22  18   8   30.90   38.00
 -22  18   8   76.59   47.60
  -1  19  -8   19.00   29.90
  19 -18  -8   18.50   24.80
  -1  19  -8   13.70   27.80
  18   1   8   29.10   12.40
 -19  18   8   35.40   38.00
 -19  18   8   57.19   35.70
   2  16  -8  149.88   32.60
   2  16  -8  122.49   30.70
   2  16  -8  133.39   28.60
 -16  18   8  120.29   41.90
  18  -2   8  165.38   18.00
 -16  18   8   98.59   33.70
   5  13  -8  510.95   59.19
   5  13  -8  477.55   49.50
  13 -18  -8  474.75   34.50
 -13  18   8  370.06   46.30
  18  -5   8  507.75   31.20
 -13  18   8  521.25   56.89
  10 -18  -8  415.16   31.10
   8  10  -8  427.16   48.20
   8  10  -8  417.36   54.39
  18  -8   8  461.75   32.80
 -10  18   8  564.34   54.69
  -8 -10   8  462.65   53.29
 -10  18   8  530.65   58.99
  11   7  -8  268.97   37.30
  11   7  -8  235.98   38.10
   7 -18  -8  264.17   24.10
 -11  -7   8  212.68   39.60
  -7  18   8  268.87   37.40
  -7  18   8  276.77   38.80
  18 -11   8  294.07   33.20
   4 -18  -8  265.97   17.20
  14   4  -8  321.67   41.00
 -18  14  -8  237.48   21.10
  14   4  -8  323.87   38.50
 -18  14  -8  269.57   22.20
 -18  14  -8  283.77   18.30
  -4  18   8  348.37   40.10
 -14  -4   8  378.96   50.79
  -4  18   8  321.97   39.40
  18 -14   8  363.16   36.80
  17   1  -8  331.47   41.40
 -18  17  -8  439.26   35.30
 -18  17  -8  278.57   31.20
  17   1  -8  342.07   44.30
 -18  17  -8  346.77   30.00
  18 -17   8  340.67   42.60
  -1  18   8  444.86   55.09
  -1  18   8  434.96   50.79
 -17  -1   8  446.16   53.59
  20  -2  -8   66.19   34.40
 -18  20  -8  127.69   24.30
  20  -2  -8  112.39   29.30
 -18  20  -8  171.38   29.30
   2  18   8  133.39   31.60
 -20   2   8   65.29   43.50
   2  18   8  136.69   34.90
  18 -20   8  141.89   31.90
 -18  23  -8   58.39   25.80
 -18  23  -8   46.50   31.00
   5  18   8   -0.10   33.70
   5  18   8  -47.20   31.40
 -23   5   8  -12.90   34.40
  21 -19  -8  144.69   33.40
  -2  21  -8   87.79   36.50
  -2  21  -8  128.89   36.80
  19   2   8   83.69   13.40
 -21  19   8   51.19   38.60
 -21  19   8   65.19   43.70
  18 -19  -8   30.50   21.70
   1  18  -8   55.69   29.90
   1  18  -8   26.10   32.80
 -18  19   8   -0.90   43.80
  19  -1   8   38.00   13.60
 -18  19   8    7.40   40.30
   4  15  -8    5.30   27.80
   4  15  -8  -46.30   21.80
   4  15  -8   71.79   30.20
 -15  19   8  -35.10   37.70
  19  -4   8   37.40   15.30
 -15  19   8   20.00   34.50
   7  12  -8  200.58   35.60
   7  12  -8  139.49   32.10
  12 -19  -8  231.38   28.00
 -12  19   8  130.39   38.40
 -12  19   8  141.69   36.50
  -7 -12   8  173.58   39.20
  19  -7   8  158.18   21.60
   9 -19  -8  232.58   25.10
  10   9  -8  224.08   34.80
  10   9  -8  227.88   37.00
  -9  19   8  134.59   42.00
 -10  -9   8  210.48   41.50
  13   6  -8  346.57   42.00
  13   6  -8  290.97   35.20
  13   6  -8  308.17   43.00
   6 -19  -8  287.67   22.60
 -13  -6   8  326.17   44.00
  19 -13   8  298.57   35.90
  -6  19   8  304.07   38.20
  -6  19   8  273.27   39.40
 -19  16  -8 1177.08   41.40
 -19  16  -8 1177.68   40.40
  16   3  -8 1059.69   64.89
 -19  16  -8 1154.68   38.10
  16   3  -8  933.81   56.89
  16   3  -8 1241.48   68.19
 -16  -3   8 1158.48   76.89
  -3  19   8 1028.50   58.69
  19 -16   8 1090.29   55.49
  -3  19   8 1198.28   68.79
 -19  19  -8  964.10   47.60
  19   0  -8  901.91   59.49
 -19  19  -8  888.51   45.10
  19   0  -8  995.00   68.39
   0  19   8  961.50   63.29
   0  19   8  919.41   62.59
 -19   0   8  854.61   75.39
  19 -19   8 1006.80   61.19
 -19  22  -8  237.38   30.90
 -19  22  -8  191.28   34.10
   3  19   8  150.68   49.20
   3  19   8  163.18   37.10
  19 -22   8  207.08   37.80
 -22   3   8  144.99   49.90
  20 -20  -8  206.98   31.50
   0  20  -8  246.48   41.10
   0  20  -8  243.18   42.70
  20   0   8  240.18   22.90
 -20  20   8  279.47   48.00
 -20  20   8  177.18   48.20
   3  17  -8   93.89   33.30
   3  17  -8  144.09   35.60
   3  17  -8  120.79   31.20
  17 -20  -8  160.78   26.00
 -17  20   8  157.58   38.00
  20  -3   8  182.98   24.00
 -17  20   8   33.70   44.10
   6  14  -8   71.99   26.10
   6  14  -8   93.19   33.60
   6  14  -8   77.49   31.00
 -14  20   8   31.70   39.40
 -14  20   8   35.80   34.90
  20  -6   8   86.49   18.40
   9  11  -8  202.98   33.50
  11 -20  -8  343.07   33.30
   9  11  -8  331.67   39.30
   9  11  -8  280.97   40.00
 -11  20   8  377.96   46.10
 -11  20   8  269.37   45.50
  20  -9   8  342.27   33.60
  -9 -11   8  290.77   46.30
  12   8  -8  136.49   36.80
  12   8  -8   83.79   30.20
  12   8  -8   79.69   25.80
   8 -20  -8  102.29   17.40
 -12  -8   8   32.90   38.50
  -8  20   8  102.19   36.00
  20 -12   8  138.79   22.90
  -8  20   8  127.09   39.60
  15   5  -8  119.99   34.20
  15   5  -8  139.39   27.80
   5 -20  -8  106.99   11.60
 -20  15  -8  124.09   16.90
 -20  15  -8  122.29   16.10
   5 -20  -8   94.79   13.50
  15   5  -8   77.89   32.10
  20 -15   8  126.89   25.20
 -15  -5   8  128.99   41.30
  -5  20   8  114.29   33.10
  -5  20   8  129.49   39.10
  18   2  -8   94.59   26.30
  18   2  -8   10.50   31.50
 -20  18  -8   23.20   17.70
 -20  18  -8   53.09   20.20
 -20  18  -8   86.39   20.70
  -2  20   8   81.49   33.70
  20 -18   8   19.80   25.30
  -2  20   8   90.49   36.30
 -18  -2   8  -25.00   38.80
 -20  21  -8  162.28   29.50
  21  -1  -8   80.59   32.00
   1  20   8  143.69   34.90
 -21   1   8  142.09   46.00
   1  20   8  103.89   39.50
  20 -21   8  180.68   36.70
  19 -21  -8  123.89   28.60
   2  19  -8   95.79   38.30
   2  19  -8  189.28   37.80
 -19  21   8  120.19   52.19
 -19  21   8   93.79   43.40
  21  -2   8  144.59   17.80
  16 -21  -8   90.19   22.40
   5  16  -8   73.69   32.30
   5  16  -8  124.59   39.10
   5  16  -8   58.49   30.80
  21  -5   8  146.19   20.40
 -16  21   8  101.29   39.30
 -16  21   8  118.09   47.50
   8  13  -8  391.46   45.50
  13 -21  -8  359.76   36.30
   8  13  -8  304.57   41.10
   8  13  -8  448.26   47.70
  21  -8   8  323.77   34.20
 -13  21   8  338.47   51.99
  11  10  -8  421.76   46.70
  11  10  -8  405.06   51.19
  10 -21  -8  498.05   34.00
  11  10  -8  372.96   46.20
 -10  21   8  614.04   71.09
 -11 -10   8  525.45   65.99
  21 -11   8  430.16   39.50
 -10  21   8  511.15   66.29
  14   7  -8  344.57   43.20
   7 -21  -8  338.67   25.20
  14   7  -8  301.27   41.00
  14   7  -8  326.67   46.30
 -14  -7   8  351.46   49.90
  -7  21   8  384.56   46.40
  21 -14   8  304.57   39.50
  -7  21   8  297.77   43.90
 -21  17  -8  102.09   14.50
 -21  17  -8  102.39   18.80
 -21  17  -8  108.59   15.80
 -21  17  -8  110.79   20.00
  17   4  -8   84.09   44.70
  17   4  -8   20.10   33.20
  17   4  -8   68.69   29.20
  -4  21   8   85.29   40.60
  21 -17   8  151.68   29.80
 -17  -4   8   36.70   39.40
  -4  21   8   88.59   33.40
  20   1  -8  239.48   36.00
 -21  20  -8  240.28   28.00
 -21  20  -8  222.78   27.20
  20   1  -8  204.78   27.90
 -21  20  -8  360.26   37.70
 -20  -1   8  290.97   52.99
  21 -20   8  288.77   40.30
  -1  21   8  212.08   44.00
  -1  21   8  237.78   41.30
   4  18  -8   54.99   37.00
  18 -22  -8   24.10   23.30
   4  18  -8   96.19   38.70
   4  18  -8   79.59   22.80
 -18  22   8   41.50   41.00
  22  -4   8   82.69   18.40
 -18  22   8   93.69   55.39
   7  15  -8   26.10   23.80
   7  15  -8   40.90   38.00
   7  15  -8   81.69   35.80
  22  -7   8   47.60   18.60
 -15  22   8  -24.10   36.20
 -15  22   8   74.29   49.70
  10  12  -8    5.20   29.90
  10  12  -8  -25.10   28.60
  10  12  -8   55.59   35.30
  12 -22  -8    1.40   18.40
  22 -10   8   18.40   28.20
 -10 -12   8   67.19   41.30
 -12  22   8   -6.10   38.80
 -12  22   8   84.29   42.60
  13   9  -8  298.17   49.10
   9 -22  -8  220.88   28.60
  13   9  -8  188.48   29.00
  13   9  -8  219.88   42.00
  22 -13   8  251.97   31.70
  -9  22   8  247.58   45.10
 -13  -9   8  189.58   47.20
  -9  22   8  275.27   48.50
  16   6  -8  274.97   40.40
 -22  16  -8  267.17   23.40
 -22  16  -8  209.38   24.10
   6 -22  -8  276.57   19.70
  16   6  -8  244.98   52.39
  22 -16   8  380.66   45.20
  -6  22   8  335.17   49.90
 -16  -6   8  366.56   52.59
  -6  22   8  323.07   41.70
 -22  19  -8  103.09   19.40
 -22  19  -8  160.68   23.60
  19   3  -8   48.80   36.90
 -22  19  -8  124.29   19.80
  19   3  -8   96.99   41.90
 -22  19  -8  142.99   24.20
  22 -19   8  172.58   35.70
 -19  -3   8  131.89   46.30
  -3  22   8  155.38   42.10
  -3  22   8  139.49   39.50
   6  17  -8   41.40   33.50
  17 -23  -8   65.79   23.40
   6  17  -8   74.59   35.80
   6  17  -8   39.30   24.80
 -17  23   8   49.90   43.70
 -17  23   8  109.29   52.99
  23  -6   8   91.19   20.10
   9  14  -8   51.39   32.40
   9  14  -8   54.19   38.30
 -14  23   8    7.80   50.19
 -14  23   8  108.89   41.20
  23  -9   8  145.79   24.70
  12  11  -8   96.89   43.90
  11 -23  -8  143.29   22.30
  23 -12   8   97.39   24.00
 -12 -11   8   64.09   45.30
 -11  23   8  205.08   49.50
 -11  23   8  109.99   43.70
  15   8  -8   90.39   20.20
  15   8  -8   81.39   46.70
  15   8  -8   94.39   23.20
  -8  23   8  207.98   48.10
 -15  -8   8  140.99   49.80
  23 -15   8  176.18   31.60
  -8  23   8  190.18   43.60
  18   5  -8   -9.40   29.70
  18   5  -8   -2.80   47.80
 -23  18  -8  -15.90   13.40
 -18  -5   8    5.10   32.10
  -5  23   8    7.80   36.50
  -5  23   8   30.00   42.40
  23 -18   8   26.40   28.80
   8  16  -8  184.58   31.40
  16 -24  -8  361.66   44.50
   8  16  -8  253.37   56.69
 -16  24   8  208.78   58.69
  24  -8   8  329.47   35.90
  11  13  -8   44.10   45.20
  13 -24  -8   31.60   19.70
  11  13  -8   72.29   43.10
  11  13  -8    8.10   28.50
 -13  24   8   59.29   49.10
  24 -11   8  133.89   26.60
 -13  24   8  156.98   50.39
  14  10  -8  139.69   50.39
  14  10  -8  166.28   41.50
  10 -24  -8  210.78   29.80
  14  10  -8  128.09   47.40
 -10  24   8  249.18   49.50
 -14 -10   8  143.49   43.60
  24 -14   8  202.98   30.30
 -10  24   8  157.68   51.89
 -24  17  -8  127.59   14.60
  17   7  -8   82.69   27.00
 -24  17  -8   94.49   18.30
   7 -24  -8  141.49   15.80
  24 -17   8   52.19   30.70
 -17  -7   8   63.09   28.10
  -7  24   8  164.48   51.49
  -7  24   8  162.98   40.50
   0   0  -9    7.00   11.70
   0   0  -9    8.40   17.50
   0   0  -9    5.60   13.40
   0   0   9    5.50   18.00
  -1   2  -9 1031.40   42.90
  -1  -1  -9 1089.79   40.20
  -1  -1  -9 1103.69   41.20
   2  -1  -9 1065.69   46.50
   2  -1  -9 1100.09   42.20
  -1   2  -9 1077.49   39.80
  -1  -1  -9 1055.29   37.40
   2  -1  -9 1078.09   43.80
  -1   2  -9 1064.79   44.60
  -2   1   9 1188.48   51.79
   1  -2   9 1209.58   48.40
   1   1   9 1199.98   46.20
   1   1  -9  774.82   35.10
  -2   1  -9  810.52   37.30
   1  -2  -9  820.72   35.10
   1  -2  -9  861.11   38.00
  -2   1  -9  857.21   35.40
  -2   1  -9  818.22   33.10
   1   1  -9  910.31   42.00
   1   1  -9  892.71   43.30
   1  -2  -9  860.91   39.70
  -1   2   9  879.41   49.99
   2  -1   9  944.51   40.90
  -1   2   9  945.41   44.40
  -1  -1   9  886.51   45.90
   4  -2  -9  872.71   45.90
  -2  -2  -9  925.11   31.40
  -2   4  -9  958.80   44.20
  -2  -2  -9  972.30   34.60
   4  -2  -9 1009.20   46.80
  -2   4  -9  940.71   40.70
  -2   4  -9 1016.80   42.00
   4  -2  -9 1031.10   44.10
   2   2   9 1069.29   52.39
  -4   2   9 1129.99   53.29
  -4   2   9 1026.50   54.09
   2   2   9 1158.08   43.90
   2  -4   9 1085.69   46.80
  -3   0  -9   23.00   10.70
   0   3  -9   10.60   16.60
   3  -3  -9    4.90   15.10
  -3   0  -9   35.10   12.90
  -3   0  -9   34.20   14.30
   0   3  -9   45.00   19.40
   0   3  -9   28.70   16.10
   3  -3  -9   12.10   18.30
   3  -3  -9   28.30   13.70
  -3   3   9   47.10   22.70
   0  -3   9   31.10   19.80
   3   0   9   18.20   16.60
  -3   3   9   28.80   21.30
   0  -3  -9   42.00   15.00
   3   0  -9    8.20   18.40
  -3   3  -9   -1.80   10.80
   0  -3  -9   26.00   11.10
  -3   3  -9   30.20   16.60
   3   0  -9   55.89   19.20
   0  -3  -9   34.20   15.30
  -3   3  -9   14.60   13.90
   3  -3   9   29.70   17.30
   0   3   9   31.70   18.00
   0   3   9   29.90   30.40
  -3   0   9   19.00   21.80
  -3   6  -9   35.10   20.20
  -3   6  -9   41.70   15.90
   6  -3  -9   61.59   16.60
  -3  -3  -9   61.59    8.00
  -3  -3  -9   42.40   10.20
   6  -3  -9   78.59   22.70
  -3   6  -9   77.19   17.60
   3   3   9   39.50   18.10
  -6   3   9   70.79   26.50
   3  -6   9   41.30   19.20
  -6   3   9   24.60   24.60
   3   3   9   30.20   22.30
  -1   5  -9  821.22   39.60
  -4  -1  -9  807.72   27.30
  -1   5  -9  807.82   43.40
  -1   5  -9  843.92   40.00
   5  -4  -9  687.13   42.90
   5  -4  -9  825.02   42.10
  -4  -1  -9  828.02   25.40
   5  -4  -9  817.62   45.10
   1  -5   9  775.92   43.60
  -5   4   9  798.42   50.49
  -5   4   9  779.62   48.90
   4   1   9  796.32   36.10
   2   2  -9 1152.28   46.40
   2   2  -9 1219.38   51.29
   2   2  -9 1171.88   48.50
   2  -4  -9 1140.49   45.30
  -4   2  -9 1150.98   40.50
   2  -4  -9 1199.18   45.40
  -4   2  -9 1133.49   37.60
   2  -4  -9 1190.78   41.50
  -4   2  -9 1117.59   38.50
  -2   4   9 1265.57   51.49
   4  -2   9 1218.78   44.80
  -2   4   9 1265.57   57.59
  -2  -2   9 1287.67   55.49
  -4   5  -9 1233.08   44.30
   5  -1  -9 1215.48   46.50
   5  -1  -9 1354.26   58.79
  -1  -4  -9 1177.88   38.00
  -4   5  -9 1197.68   46.50
  -1  -4  -9 1173.38   35.70
  -4   5  -9 1231.28   44.50
   5  -1  -9 1308.97   54.89
   1   4   9 1275.07   47.60
  -5   1   9 1284.67   59.69
   1   4   9 1303.97   56.69
   8  -4  -9  298.87   31.80
  -4   8  -9  314.27   36.60
  -4   8  -9  359.96   30.70
  -4   8  -9  276.07   30.20
   8  -4  -9  328.57   29.70
   8  -4  -9  298.57   40.10
   4   4   9  285.57   28.40
   4   4   9  324.27   37.20
  -8   4   9  377.06   41.60
  -8   4   9  358.96   42.20
   7  -5  -9  141.89   26.50
  -2   7  -9  143.09   22.60
   7  -5  -9  149.69   20.60
  -2   7  -9  142.99   25.00
  -2   7  -9  180.68   23.40
   7  -5  -9  163.98   23.90
  -7   5   9  154.58   29.50
  -7   5   9  175.78   31.80
   5   2   9  166.78   18.40
   5   2   9  146.39   24.30
   2  -7   9  179.68   26.40
   1   4  -9  676.63   37.80
  -5   1  -9  685.93   27.70
  -5   1  -9  626.64   24.20
   1   4  -9  660.43   42.90
  -5   1  -9  670.33   27.50
   4  -5  -9  716.73   40.90
   4  -5  -9  648.24   33.70
   4  -5  -9  693.53   37.80
   1   4  -9  688.43   39.30
   5  -1   9  629.54   32.20
  -4   5   9  664.03   45.10
  -1  -4   9  614.04   43.50
  -4   5   9  610.94   44.10
   4   1  -9 1045.00   44.80
   4   1  -9  996.50   46.60
   1  -5  -9 1018.90   35.80
   4   1  -9  991.40   49.30
  -5   4  -9  880.61   33.80
  -5   4  -9 1005.60   39.30
   1  -5  -9 1012.10   38.90
  -5   4  -9  992.70   37.10
  -4  -1   9 1024.90   54.79
  -1   5   9 1017.20   53.99
  -1   5   9 1120.69   47.30
  -5   7  -9  811.32   37.60
  -5   7  -9  855.71   42.50
   7  -2  -9  857.81   44.90
  -2  -5  -9  793.02   22.80
  -5   7  -9  903.71   39.00
   7  -2  -9  790.22   48.00
   7  -2  -9  697.53   37.30
  -7   2   9  794.62   85.09
   2   5   9  875.21   41.00
   2   5   9  857.31   47.80
  -5  10  -9  232.98   29.90
  10  -5  -9  282.97   29.10
  -5  10  -9  237.38   29.80
  -5  10  -9  224.98   24.80
  10  -5  -9  272.77   30.60
   5   5   9  285.17   25.30
   5   5   9  335.87   35.60
 -10   5   9  321.57   40.20
 -10   5   9  339.57   44.70
   9  -6  -9   60.19   20.40
  -3   9  -9   20.90   16.00
  -3   9  -9   50.09   17.90
  -3   9  -9   47.80   25.40
   9  -6  -9   67.39   17.60
   6   3   9   47.60   12.40
   6   3   9   57.69   21.10
  -9   6   9   55.59   30.20
  -9   6   9   37.00   25.30
   0   6  -9   27.00   15.60
   0   6  -9  -22.70   20.50
   6  -6  -9   -6.90   16.00
   6  -6  -9    9.90   20.90
   6  -6  -9    8.30   13.30
   0   6  -9   -1.50   16.50
   6   0   9    4.20   13.50
  -6   6   9   36.10   23.90
  -6   6   9   12.80   20.70
   0  -6   9    6.60   21.90
   3  -6  -9   54.59   14.30
  -6   3  -9   56.59   11.10
   3  -6  -9   50.69   18.20
  -6   3  -9   56.19   12.00
   3   3  -9   68.19   19.50
  -6   3  -9   78.69   15.10
   3   3  -9   88.99   19.80
  -3   6   9   96.79   22.30
  -3   6   9   71.09   25.00
  -3  -3   9   58.89   26.00
  -6   6  -9   33.90   17.30
   0  -6  -9   20.30   13.00
   6   0  -9   10.00   16.40
   6   0  -9   25.10   16.60
   6   0  -9   34.10   23.80
  -6   6  -9   40.30   14.40
   0  -6  -9   27.30   10.00
  -6   6  -9   42.40   14.00
  -6   0   9   24.00   26.90
   0   6   9   26.00   19.10
  -6   9  -9   25.30   21.40
  -6   9  -9   52.39   17.30
   9  -3  -9   36.20   22.80
   9  -3  -9   29.20   15.60
  -6   9  -9   28.10   20.10
   9  -3  -9   40.50   18.40
  -9   3   9   18.10   29.30
   3   6   9   28.20   18.70
   3   6   9   42.80   21.20
  12  -6  -9    3.80   19.10
  -6  12  -9   49.80   25.90
  -6  12  -9    7.10   19.00
  12  -6  -9  -27.30   23.10
  -6  12  -9   43.30   19.10
 -12   6   9   32.90   32.00
   6   6   9   46.80   21.10
   6   6   9   27.80   14.00
 -12   6   9   50.59   29.10
  11  -7  -9  191.28   24.30
  -4  11  -9  190.78   29.20
  -4  11  -9  240.98   32.70
  11  -7  -9  284.17   32.80
  -4  11  -9  206.28   24.70
   7   4   9  215.98   25.70
 -11   7   9  229.18   34.50
 -11   7   9  229.58   37.20
  -1   8  -9  360.36   34.50
   8  -7  -9  349.27   29.60
   8  -7  -9  324.17   39.90
  -1   8  -9  341.77   40.10
   8  -7  -9  325.57   33.80
  -1   8  -9  320.47   31.00
   1  -8   9  337.77   40.90
  -8   7   9  316.47   42.40
   2   5  -9  254.67   29.40
   2   5  -9  243.38   29.20
   5  -7  -9  244.68   24.40
   5  -7  -9  249.08   26.80
  -2  -5   9  250.67   32.70
  -5   7   9  296.37   40.10
  -5   7   9  314.77   40.90
   5   2  -9  860.31   44.30
   2  -7  -9  821.12   32.80
  -7   5  -9  805.32   30.50
  -7   5  -9  862.71   34.70
   5   2  -9  850.21   48.00
   2  -7  -9  838.52   36.80
  -7   5  -9  838.72   32.40
   5   2  -9  866.61   45.00
  -2   7   9  867.61   44.30
  -5  -2   9  868.41   55.49
  -2   7   9  864.21   50.89
  -7   8  -9 1204.78   44.00
  -7   8  -9 1255.07   47.90
   8  -1  -9 1261.57   55.99
   8  -1  -9 1038.80   46.90
   8  -1  -9 1253.77   55.89
  -7   8  -9 1242.18   43.60
  -8   1   9 1153.58   62.49
   1   7   9 1215.28   55.39
   1   7   9 1148.89   48.50
  -7  11  -9  500.35   42.10
  11  -4  -9  546.35   40.30
  -7  11  -9  546.65   34.30
  -7  11  -9  515.95   35.80
 -11   4   9  675.33   59.89
   4   7   9  582.74   33.30
   4   7   9  588.94   40.70
   7 -11   9  624.64   41.50
  -7  14  -9  176.58   31.90
  -7  14  -9  163.58   24.50
  -7  14  -9  146.59   30.40
   7   7   9  196.58   28.00
 -14   7   9  243.68   38.10
   7 -14   9  187.18   28.00
 -14   7   9  184.48   39.60
  -5  13  -9   79.79   22.70
  13  -8  -9   -2.90   21.40
  -5  13  -9   77.79   27.40
  -5  13  -9   70.19   20.90
   8   5   9  119.89   25.00
 -13   8   9   80.69   32.40
 -13   8   9   50.39   34.80
  10  -8  -9  184.78   23.80
  -2  10  -9  177.48   23.90
  -2  10  -9  180.28   30.80
  10  -8  -9  158.88   25.50
  -2  10  -9  170.98   25.20
 -10   8   9  181.18   37.00
 -10   8   9  181.38   32.30
   8   2   9  222.58   25.60
   1   7  -9  251.57   32.20
   7  -8  -9  258.77   26.20
   1   7  -9  260.27   31.00
   7  -8  -9  232.08   28.50
   1   7  -9  271.27   31.60
   7  -8  -9  248.08   31.10
  -7   8   9  218.98   30.00
  -7   8   9  264.47   33.40
  -1  -7   9  263.47   33.40
   4  -8  -9  276.77   31.90
  -8   4  -9  258.67   19.10
  -8   4  -9  271.47   17.60
   4   4  -9  309.77   32.40
   4  -8  -9  225.58   23.90
   4   4  -9  274.57   31.10
   4   4  -9  304.27   33.40
  -8   4  -9  290.37   15.90
  -4  -4   9  368.36   61.89
  -4   8   9  306.37   34.90
  -4   8   9  320.97   37.20
  -8   7  -9  885.91   35.40
   7   1  -9  927.11   48.00
   1  -8  -9  954.50   29.60
   7   1  -9  881.41   45.50
   1  -8  -9  919.91   32.70
  -8   7  -9  927.61   34.50
  -8   7  -9  865.71   37.60
   7   1  -9  947.81   52.09
   8  -7   9  801.62   41.80
  -1   8   9  909.81   45.60
  -1   8   9  839.72   51.39
  -7  -1   9  901.81   58.89
  -8  10  -9  410.76   31.60
  -8  10  -9  486.85   37.30
  10  -2  -9  563.24   46.50
  -8  10  -9  442.76   30.70
  10  -2  -9  444.06   44.10
 -10   2   9  468.85   54.89
   2   8   9  493.35   36.60
   2   8   9  418.46   40.40
   8 -10   9  460.65   36.60
  -8  13  -9  299.47   31.20
  -8  13  -9  312.27   39.00
  -8  13  -9  240.68   31.40
   5   8   9  333.77   32.70
 -13   5   9  254.97   42.30
 -13   5   9  363.06   42.50
   8 -13   9  270.47   31.50
   5   8   9  269.67   29.50
  -8  16  -9   68.79   23.60
  16  -8  -9   54.59   27.00
  -8  16  -9   -9.40   20.60
  16  -8  -9   -6.70   20.80
  -8  16  -9   76.89   31.50
   8   8   9    9.40   22.30
 -16   8   9   30.30   30.20
 -16   8   9   11.20   36.90
   8 -16   9   47.80   25.30
  15  -9  -9   63.09   21.70
  -6  15  -9   70.69   29.00
  -6  15  -9   26.00   21.80
 -15   9   9  -16.50   37.40
 -15   9   9   -0.40   30.00
   9   6   9   80.29   22.40
  -3  12  -9   47.70   19.60
  -3  12  -9   65.89   26.80
  12  -9  -9   13.60   19.10
  -3  12  -9   46.00   18.90
  12  -9  -9   25.50   16.10
 -12   9   9   51.69   34.10
 -12   9   9    3.40   24.00
   9   3   9   39.40   21.30
   0   9  -9   10.20   15.90
   0   9  -9  -30.40   15.90
   0   9  -9    8.50   24.00
   9  -9  -9   -3.20   13.80
   9  -9  -9    3.10   17.70
  -9   9   9  -11.60   23.10
  -9   9   9   23.60   27.60
   3   6  -9   21.90   18.90
   3   6  -9   -4.00   16.10
   3   6  -9   53.09   23.60
   6  -9  -9   20.60   19.60
   6  -9  -9   20.90   14.90
  -3  -6   9  -13.20   27.20
  -6   9   9   12.50   23.40
  -6   9   9    0.70   23.80
  -9   6  -9   53.09   10.60
   6   3  -9   71.89   20.40
   6   3  -9   56.69   21.50
   3  -9  -9   28.70   11.70
   6   3  -9   47.40   19.20
   3  -9  -9   35.40   16.40
  -9   6  -9   62.59   12.70
  -9   6  -9   35.60   12.90
  -6  -3   9   31.50   28.90
  -3   9   9   63.09   26.90
   9  -6   9   30.70   16.10
  -3   9   9   43.40   22.10
   9   0  -9   15.70   19.60
  -9   9  -9    7.20   13.70
   9   0  -9   25.70   17.30
  -9   9  -9   25.40   14.10
  -9   9  -9   14.00   16.80
   9   0  -9  -30.90   21.20
   9  -9   9   42.50   16.70
  -9   0   9   -1.80   29.60
   0   9   9   11.50   21.80
  12  -3  -9   12.90   21.80
  -9  12  -9   42.40   21.00
  -9  12  -9   46.10   17.40
  -9  12  -9   41.60   16.40
   3   9   9   27.20   19.50
   3   9   9   43.60   22.10
 -12   3   9   37.90   34.30
   9 -12   9   40.40   20.00
  15  -6  -9   54.59   25.30
  15  -6  -9   66.39   21.80
  -9  15  -9   59.59   22.60
  -9  15  -9   74.39   27.50
  -9  15  -9   99.49   20.60
 -15   6   9   61.39   39.30
   9 -15   9  119.79   28.40
   6   9   9  138.49   27.40
   6   9   9  113.69   19.60
 -15   6   9   93.19   32.70
  18  -9  -9  200.68   37.80
  -9  18  -9   60.79   29.10
  -9  18  -9  157.48   36.50
  -9  18  -9  119.69   27.70
  18  -9  -9  110.19   25.10
   9   9   9  154.68   28.20
   9 -18   9  161.58   31.80
 -18   9   9  132.29   41.20
 -18   9   9  235.48   40.80
  17 -10  -9   -7.10   26.20
  -7  17  -9   -8.80   32.10
  -7  17  -9  -11.70   22.20
  17 -10  -9   26.00   23.20
  -7  17  -9  -13.40   31.30
   7 -17   9  -17.20   23.60
 -17  10   9    4.60   29.80
  10   7   9    5.90   23.70
 -17  10   9  -21.50   37.90
  -4  14  -9  211.88   34.00
  -4  14  -9  223.78   29.60
 -14  10   9  167.78   34.90
 -14  10   9  275.77   45.00
  10   4   9  250.17   28.00
  -1  11  -9  353.36   37.20
  11 -10  -9  393.76   32.00
  11 -10  -9  354.06   38.30
  -1  11  -9  373.66   45.70
 -11  10   9  402.16   48.80
 -11  10   9  412.36   54.19
   2   8  -9  190.58   27.40
   8 -10  -9  261.77   27.80
   2   8  -9  210.78   29.70
  -2  -8   9  235.98   35.20
  -8  10   9  188.68   30.40
  -8  10   9  186.18   36.30
   5 -10  -9  388.56   27.00
   5   5  -9  357.76   42.00
   5 -10  -9  343.27   33.10
   5   5  -9  467.85   38.30
  -5  10   9  446.96   49.90
  -5  -5   9  529.05   52.99
  10  -5   9  389.06   35.90
  -5  10   9  419.06   43.10
   2 -10  -9  569.74   23.90
   2 -10  -9  595.84   27.90
   8   2  -9  532.45   42.30
 -10   8  -9  566.24   30.50
   8   2  -9  560.04   46.40
 -10   8  -9  599.94   27.60
 -10   8  -9  561.64   26.30
  -8  -2   9  584.34   56.99
  -2  10   9  634.84   44.30
  10  -8   9  586.84   39.10
  -2  10   9  695.13   50.19
 -10  11  -9  176.08   24.40
 -10  11  -9  205.68   27.20
 -10  11  -9  173.48   20.90
  11  -1  -9  220.48   32.40
 -11   1   9  150.48   39.50
  10 -11   9  142.79   25.80
   1  10   9  217.48   38.50
   1  10   9  180.98   27.50
 -10  14  -9  240.78   31.80
 -10  14  -9  271.67   30.60
 -10  14  -9  272.67   31.90
   4  10   9  241.68   31.60
 -14   4   9  265.07   43.70
   4  10   9  254.07   34.50
  10 -14   9  328.47   41.10
  17  -7  -9  232.58   31.10
 -10  17  -9  244.58   30.30
  17  -7  -9  248.58   37.30
 -10  17  -9  247.48   35.20
 -17   7   9  249.78   45.50
  10 -17   9  307.27   36.70
   7  10   9  271.87   31.20
 -17   7   9  292.07   41.80
   7  10   9  254.17   29.00
 -10  20  -9   37.60   27.40
  20 -10  -9   77.49   35.60
 -10  20  -9    3.80   27.10
 -10  20  -9   82.89   37.30
  20 -10  -9    9.40   23.10
  10 -20   9   96.79   30.80
 -20  10   9   -2.90   40.20
 -20  10   9  146.19   39.20
  10  10   9   21.70   26.10
  19 -11  -9  231.68   39.30
  -8  19  -9  298.47   45.50
  -8  19  -9  233.18   35.10
  19 -11  -9  372.56   46.20
   8 -19   9  203.38   35.50
  11   8   9  327.17   31.30
 -19  11   9  236.98   41.80
 -19  11   9  279.67   51.49
  -5  16  -9   41.10   30.70
  16 -11  -9   98.69   24.00
  -5  16  -9   74.79   25.80
  16 -11  -9  106.39   29.30
  -5  16  -9   73.19   23.70
  11   5   9   92.99   24.90
 -16  11   9   96.39   42.10
 -16  11   9  136.09   34.70
 -13  11   9  249.78   34.40
 -13  11   9  269.27   41.50
   1  10  -9  342.27   36.70
   1  10  -9  286.57   32.30
  10 -11  -9  313.07   31.70
 -10  11   9  269.97   36.50
 -10  11   9  265.37   39.20
   4   7  -9  198.88   30.00
   7 -11  -9  212.28   24.10
   4   7  -9  187.58   26.80
   7 -11  -9  166.58   25.70
  -7  11   9  188.28   36.30
  11  -4   9  169.38   21.80
  -4  -7   9  175.08   35.20
  -7  11   9  134.59   32.70
 -11   7  -9  374.26   18.20
   4 -11  -9  444.56   24.90
 -11   7  -9  381.76   17.60
   4 -11  -9  410.86   32.60
   7   4  -9  424.26   43.00
   7   4  -9  438.86   40.00
  -4  11   9  442.16   43.00
  -7  -4   9  581.54   56.39
  11  -7   9  470.15   36.10
  -4  11   9  452.85   49.10
 -11  10  -9  138.09   17.30
 -11  10  -9  180.18   23.80
  10   1  -9  103.19   27.30
 -11  10  -9  153.68   20.60
  11 -10   9  136.59   23.60
  -1  11   9  125.79   27.50
  -1  11   9  125.39   28.90
 -10  -1   9  119.79   35.80
 -11  13  -9  102.09   19.40
 -11  13  -9   81.49   24.00
  11 -13   9   75.49   22.90
 -13   2   9   62.19   37.40
   2  11   9   79.69   23.60
   2  11   9   91.79   27.20
  16  -5  -9   98.29   25.30
 -11  16  -9  116.69   29.90
 -11  16  -9  100.69   23.10
 -11  16  -9   82.79   22.00
  16  -5  -9   75.99   29.30
   5  11   9   79.79   23.30
 -16   5   9  100.39   40.50
  11 -16   9  115.99   29.20
   5  11   9  104.09   27.10
 -11  19  -9  315.77   39.90
  19  -8  -9  283.07   35.60
  19  -8  -9  266.17   41.10
 -11  19  -9  293.27   41.80
 -11  19  -9  326.57   35.80
   8  11   9  275.27   29.60
 -19   8   9  295.87   48.30
   8  11   9  321.47   32.50
   8  11   9  314.27   20.70
  11 -19   9  449.56   50.89
 -11  22  -9  396.06   49.99
  21 -12  -9  218.88   28.30
  21 -12  -9  140.79   23.50
  -9  21  -9  193.08   43.10
 -21  12   9  123.59   47.50
   9 -21   9  102.59   30.20
  12   9   9  187.58   29.20
 -21  12   9  115.09   43.90
  18 -12  -9  205.18   37.60
  18 -12  -9  149.79   28.30
  -6  18  -9  168.18   40.30
  -6  18  -9  131.89   29.00
  12   6   9  160.68   26.90
 -18  12   9  121.69   37.60
 -18  12   9  143.79   49.10
  15 -12  -9   27.90   23.90
  -3  15  -9   54.09   29.80
  -3  15  -9   44.70   23.90
  -3  15  -9   48.50   23.00
 -15  12   9   53.49   33.30
 -15  12   9   48.60   40.80
  12 -12  -9   28.80   17.40
   0  12  -9  -12.00   24.60
   0  12  -9   29.10   21.50
 -12  12   9  -14.80   25.90
 -12  12   9   32.80   34.40
   3   9  -9    5.20   19.10
   9 -12  -9    1.90   14.20
   3   9  -9  -11.90   23.60
  12  -3   9  -15.30   14.00
  -9  12   9  -20.20   25.20
  -9  12   9  -10.80   28.10
  -3  -9   9   28.60   30.40
   6 -12  -9   29.00   19.40
   6   6  -9   23.60   21.90
   6 -12  -9   -4.80   12.10
   6   6  -9   23.70   19.70
  12  -6   9   13.40   25.80
  -6  12   9   49.70   29.80
  -6  12   9   -3.30   24.00
  -6  -6   9   14.70   30.60
 -12   9  -9   14.00   12.40
   3 -12  -9   25.00   10.90
 -12   9  -9    2.70   10.20
   9   3  -9   12.10   20.30
   3 -12  -9   -0.80   12.80
   9   3  -9   15.90   26.60
 -12   9  -9  -22.60    8.60
  -3  12   9  -37.90   26.80
  -9  -3   9  -15.80   32.80
  -3  12   9    2.10   25.60
  12  -9   9   -3.40   17.70
  12   0  -9  -16.60   18.70
  12   0  -9    1.60   25.10
 -12  12  -9   -7.40   15.00
 -12  12  -9   -6.10   17.40
 -12  12  -9   10.10   14.40
   0  12   9   20.50   24.30
  12 -12   9   21.60   19.70
 -12   0   9   -5.60   32.70
   0  12   9   25.10   23.40
 -12  15  -9   27.80   18.70
 -12  15  -9   27.30   18.80
 -12  15  -9   -0.90   24.40
  12 -15   9   55.89   24.10
   3  12   9   10.90   26.60
 -15   3   9    7.40   34.10
   3  12   9   16.80   23.40
  18  -6  -9   69.39   32.10
 -12  18  -9  133.99   32.70
 -12  18  -9  155.58   27.20
  18  -6  -9   95.09   26.30
 -18   6   9   83.99   42.10
  12 -18   9  122.19   32.20
   6  12   9  118.39   24.50
   6  12   9  127.79   30.20
 -12  21  -9  272.77   44.40
  21  -9  -9  169.18   29.10
  12 -21   9  389.26   40.40
   9  12   9  343.17   23.00
 -21   9   9  290.87   55.09
   9  12   9  335.97   19.00
   9  12   9  353.36   35.50
  -7  20  -9   67.69   36.50
  20 -13  -9  -24.10   33.80
  -7  20  -9   90.19   41.90
  20 -13  -9   32.00   27.40
 -20  13   9   57.99   43.10
  13   7   9   76.69   26.40
 -20  13   9   79.49   39.60
  -4  17  -9   42.70   34.60
  -4  17  -9   86.69   26.80
  17 -13  -9   25.20   24.50
 -17  13   9   79.09   34.80
 -17  13   9  105.79   46.30
  -1  14  -9  288.97   33.70
  -1  14  -9  327.67   39.10
 -14  13   9  311.27   49.00
 -14  13   9  335.07   42.20
   2  11  -9  318.47   35.80
  11 -13  -9  347.77   31.90
   2  11  -9  313.67   45.70
  13  -2   9  343.77   29.80
 -11  13   9  449.06   48.60
 -11  13   9  394.16   43.80
   5   8  -9   20.90   20.30
   8 -13  -9   94.19   19.50
   5   8  -9   88.49   26.10
  -8  13   9   78.59   29.80
  -8  13   9  124.99   33.50
  -5  -8   9   85.79   35.40
  13  -5   9  105.59   20.40
   8   5  -9  221.78   30.90
   5 -13  -9  218.78   22.50
   5 -13  -9  244.08   29.90
   8   5  -9  241.08   45.30
  -5  13   9  203.28   36.00
  -8  -5   9  180.68   37.70
  13  -8   9  306.47   33.80
  -5  13   9  267.37   34.00
  11   2  -9   88.39   31.10
 -13  11  -9  143.99   17.10
 -13  11  -9  132.79   15.80
  11   2  -9  159.88   28.50
 -13  11  -9  136.39   17.40
  -2  13   9  132.89   30.00
  -2  13   9  140.19   29.90
 -11  -2   9   91.99   37.60
  13 -11   9  124.19   23.40
  14  -1  -9  127.89   30.70
 -13  14  -9  137.59   21.50
 -13  14  -9  171.68   26.10
 -13  14  -9  165.68   21.90
  14  -1  -9  141.89   26.40
  14  -1  -9  117.99   31.80
 -14   1   9  141.99   39.70
   1  13   9  197.28   31.00
   1  13   9  147.99   28.40
  13 -14   9  125.99   27.60
  17  -4  -9  -33.30   19.00
 -13  17  -9    4.00   20.60
 -13  17  -9   61.69   21.80
 -13  17  -9   32.30   29.40
  17  -4  -9   10.80   27.60
   4  13   9   65.89   25.90
  13 -17   9   61.79   27.80
 -17   4   9   21.70   35.80
   4  13   9   35.70   29.10
 -13  20  -9    8.10   30.50
  20  -7  -9  -67.59   28.10
 -13  20  -9   22.20   24.90
  20  -7  -9   18.70   19.80
 -13  20  -9   20.60   34.00
   7  13   9   24.40   15.60
   7  13   9   15.60   27.90
  13 -20   9  104.79   33.70
   7  13   9   60.29   23.70
 -20   7   9  -22.10   42.00
  -5  19  -9  165.58   44.20
  -5  19  -9  133.99   31.50
  -5  19  -9  107.09   30.80
  19 -14  -9   85.89   26.80
 -19  14   9  100.59   38.80
 -19  14   9  105.89   48.20
  14   5   9  143.09   25.50
  -2  16  -9   52.49   25.90
  -2  16  -9  139.49   34.90
  16 -14  -9  216.68   30.70
 -16  14   9  214.18   51.19
 -16  14   9  192.78   39.90
   1  13  -9  263.87   33.10
   1  13  -9  311.87   39.40
 -13  14   9  216.98   39.70
 -13  14   9  288.17   45.20
  14  -1   9  245.88   27.20
   4  10  -9  216.78   34.00
   4  10  -9  231.38   32.30
  10 -14  -9  200.88   24.20
  -4 -10   9  191.38   41.20
 -10  14   9  141.49   36.10
 -10  14   9  199.78   36.60
  14  -4   9  190.98   23.10
   7   7  -9  151.98   31.90
   7   7  -9  175.08   25.80
   7 -14  -9  168.28   19.80
  14  -7   9  164.38   32.90
  -7  -7   9  167.28   41.50
  -7  14   9  178.08   33.70
  -7  14   9  145.49   36.40
   4 -14  -9  399.66   22.30
 -14  10  -9  396.16   21.20
  10   4  -9  385.86   41.20
   4 -14  -9  406.86   26.30
  10   4  -9  317.17   38.70
  14 -10   9  373.46   35.70
  -4  14   9  448.56   51.59
  -4  14   9  452.55   50.59
 -10  -4   9  470.45   63.79
  13   1  -9  161.58   33.50
 -14  13  -9  125.89   18.20
 -14  13  -9  158.18   20.70
  13   1  -9  164.38   30.70
  13   1  -9  110.19   30.60
 -14  13  -9  141.39   19.10
 -13  -1   9  156.58   40.90
  -1  14   9  142.49   28.60
  -1  14   9  146.89   30.40
  14 -13   9  160.38   26.50
 -14  16  -9  136.39   23.00
  16  -2  -9  133.29   34.70
 -14  16  -9  120.19   27.10
 -14  16  -9  148.59   23.40
  14 -16   9  130.29   29.90
   2  14   9  127.69   32.00
 -16   2   9  134.69   44.40
   2  14   9  158.58   30.80
  19  -5  -9  106.99   27.30
  19  -5  -9  118.09   31.10
 -14  19  -9  111.09   27.50
 -14  19  -9  176.98   34.10
 -19   5   9  174.38   46.10
   5  14   9  146.49   29.60
  14 -19   9   99.89   31.00
  -6  21  -9   96.19   44.90
  -6  21  -9  108.49   34.40
 -21  15   9  109.19   51.49
  15   6   9  150.18   25.20
 -21  15   9  155.58   29.10
  -3  18  -9  111.09   39.10
  18 -15  -9  118.29   30.10
  -3  18  -9  109.19   29.90
  -3  18  -9   22.70   26.80
 -18  15   9   42.80   37.80
 -18  15   9   26.50   47.30
  15 -15  -9   15.80   24.30
   0  15  -9    9.30   24.80
   0  15  -9  -10.20   28.60
 -15  15   9   -0.80   31.10
 -15  15   9   40.50   42.60
  12 -15  -9   11.80   17.70
   3  12  -9   93.69   26.50
   3  12  -9   41.30   26.30
 -12  15   9   26.30   35.60
  15  -3   9   99.79   19.50
 -12  15   9   58.79   34.20
   6   9  -9   31.20   27.20
   9 -15  -9   50.19   17.20
  15  -6   9   26.80   17.40
  -9  15   9   68.59   32.10
  -6  -9   9    9.40   33.90
  -9  15   9   -1.20   33.80
   9   6  -9  118.29   25.80
   6 -15  -9   83.69   15.70
   9   6  -9   94.29   28.60
   6 -15  -9   95.39   19.90
  -9  -6   9  102.69   38.40
  15  -9   9  112.29   21.80
  -6  15   9   84.39   29.70
  -6  15   9  105.89   35.20
 -15  12  -9   22.50   11.70
  12   3  -9   28.40   29.50
 -15  12  -9    1.50   11.30
 -15  12  -9    6.60   12.80
  12   3  -9   79.99   26.00
  12   3  -9   44.90   27.20
  -3  15   9   48.00   30.80
  15 -12   9   37.50   19.60
 -12  -3   9   36.50   38.40
  -3  15   9   46.60   27.40
  15   0  -9   -3.40   30.70
 -15  15  -9  -11.40   15.80
 -15  15  -9   24.70   20.40
  15   0  -9  -39.10   21.60
  15   0  -9   14.50   28.90
 -15  15  -9   17.00   16.20
   0  15   9  -16.00   28.70
 -15   0   9   13.30   36.10
   0  15   9    0.80   27.50
  15 -15   9   49.50   24.10
  18  -3  -9   66.99   33.30
 -15  18  -9   70.99   22.00
 -15  18  -9   98.39   23.80
   3  15   9  106.29   30.50
 -18   3   9   71.79   43.30
  15 -18   9   59.89   28.00
 -15  21  -9  220.88   38.10
 -15  21  -9  186.68   38.90
 -15  21  -9  158.28   30.40
  21  -6  -9   57.69   57.49
  15 -21   9  132.09   23.90
 -21   6   9  199.88   46.80
   6  15   9  255.47   56.79
  -4  20  -9   72.49   41.30
  20 -16  -9  206.98   33.10
  -4  20  -9  164.28   30.20
  -4  20  -9  115.99   36.10
 -20  16   9  109.79   54.99
 -20  16   9  120.59   37.50
  -1  17  -9  118.69   30.90
  -1  17  -9  169.98   36.10
  17 -16  -9  145.39   28.90
 -17  16   9  173.18   49.60
 -17  16   9  185.28   44.50
   2  14  -9  178.58   31.40
   2  14  -9  167.68   35.80
   2  14  -9  102.59   29.40
 -14  16   9  196.08   47.90
  16  -2   9  250.77   30.30
 -14  16   9  247.48   43.60
  11 -16  -9   94.49   20.40
   5  11  -9   92.89   29.90
   5  11  -9  127.59   27.40
   5  11  -9  133.39   29.80
  16  -5   9  125.19   21.70
 -11  16   9  154.58   38.50
  -5 -11   9  113.89   39.70
 -11  16   9   82.39   36.00
   8   8  -9   88.89   24.10
   8   8  -9   53.59   28.40
   8 -16  -9   26.50   14.80
   8   8  -9   41.90   27.20
  16  -8   9   58.29   18.50
  -8  16   9    4.00   33.70
  -8  16   9   38.80   29.60
  -8  -8   9   37.10   38.40
   5 -16  -9  122.09   14.90
  11   5  -9  117.69   29.40
  11   5  -9   72.09   27.80
  11   5  -9   51.19   33.70
   5 -16  -9   97.89   18.00
  16 -11   9   91.59   23.60
 -11  -5   9  130.09   43.90
  -5  16   9  116.39   34.60
  -5  16   9  159.08   34.50
  14   2  -9  201.98   39.50
  14   2  -9  151.18   36.70
 -16  14  -9  160.48   17.90
 -16  14  -9  164.08   18.80
 -16  14  -9  185.18   20.50
  14   2  -9  164.18   31.60
 -14  -2   9  304.37   50.19
  -2  16   9  146.59   31.60
  16 -14   9  174.98   27.90
  -2  16   9  249.08   36.00
  17  -1  -9  160.78   38.50
 -16  17  -9  181.28   26.10
 -16  17  -9  210.58   27.30
  17  -1  -9  353.46   45.60
 -16  17  -9  183.28   25.80
   1  16   9  193.58   35.60
   1  16   9  277.67   37.10
 -17   1   9  160.78   43.40
  16 -17   9  228.78   35.90
 -16  20  -9   73.59   26.30
 -16  20  -9  102.59   31.90
 -16  20  -9  -14.90   22.30
  20  -4  -9   54.99   27.20
 -20   4   9   67.29   47.50
  16 -20   9   38.50   30.00
   4  16   9   96.99   33.00
   4  16   9  206.98   36.70
  -2  19  -9   33.30   23.20
  -2  19  -9  107.29   34.70
  -2  19  -9   96.79   38.80
  19 -17  -9    7.30   24.70
 -19  17   9   80.49   53.89
 -19  17   9   88.69   43.00
   1  16  -9   83.79   30.20
   1  16  -9   63.39   33.10
  16 -17  -9   70.49   23.80
   1  16  -9   69.59   30.30
  17  -1   9   73.69   17.40
 -16  17   9   92.39   50.69
 -16  17   9   71.09   37.80
   4  13  -9   55.49   34.50
   4  13  -9   74.09   27.30
   4  13  -9  112.19   31.20
 -13  17   9  103.49   37.80
 -13  17   9  101.89   41.90
  17  -4   9  154.28   22.20
  10 -17  -9    1.90   14.80
   7  10  -9   20.30   29.40
   7  10  -9    7.80   22.70
   7  10  -9   12.80   26.20
  17  -7   9    9.70   20.30
  -7 -10   9   27.60   38.20
 -10  17   9   23.50   36.70
 -10  17   9   13.90   31.60
  10   7  -9  277.17   38.00
  10   7  -9  212.08   30.50
   7 -17  -9  243.78   26.00
  10   7  -9  215.48   35.60
  -7  17   9  284.07   40.80
 -10  -7   9  206.28   45.60
  -7  17   9  257.57   40.90
  17 -10   9  286.17   29.60
  13   4  -9   21.60   23.40
  13   4  -9   37.10   29.10
  13   4  -9   77.39   34.50
 -17  13  -9   47.70   14.60
  -4  17   9   42.20   33.10
  17 -13   9   43.90   22.50
  -4  17   9   16.40   30.20
 -13  -4   9   61.49   40.20
 -17  16  -9  243.58   30.10
  16   1  -9  199.78   39.50
  16   1  -9  206.18   34.20
  16   1  -9  199.48   39.60
 -17  16  -9  220.88   28.60
 -17  16  -9  200.98   24.20
 -16  -1   9  256.67   48.20
  -1  17   9  268.07   40.40
  -1  17   9  423.36   55.59
  17 -16   9  210.78   32.40
 -17  19  -9  229.78   31.70
 -17  19  -9  227.58   28.00
 -17  19  -9  260.47   30.80
  17 -19   9  205.28   35.90
 -19   2   9  222.88   54.69
   2  17   9  162.68   39.20
   2  17   9  324.97   41.20
   0  18  -9   39.00   21.00
  18 -18  -9   39.60   26.40
   0  18  -9   46.80   32.50
   0  18  -9   -4.00   36.10
 -18  18   9  -47.00   51.19
  18   0   9   -7.50   15.80
 -18  18   9  -36.70   39.00
  15 -18  -9   -4.80   19.90
   3  15  -9   77.89   34.80
   3  15  -9   73.89   32.80
   3  15  -9   59.89   27.50
  18  -3   9   21.50   16.50
 -15  18   9   52.89   38.80
 -15  18   9    7.10   45.20
   6  12  -9  102.89   33.00
   6  12  -9  169.38   34.20
  12 -18  -9  123.59   21.10
   6  12  -9   94.49   30.20
  18  -6   9  151.08   23.10
 -12  18   9  181.48   41.60
 -12  18   9  132.19   40.80
   9   9  -9  146.79   30.00
   9   9  -9  153.48   38.50
   9 -18  -9  203.48   29.10
   9   9  -9   83.09   30.40
  18  -9   9  177.48   25.80
  -9  18   9  153.48   37.00
  -9  18   9  163.98   41.40
  -9  -9   9  195.38   48.00
  12   6  -9  210.18   41.30
   6 -18  -9  190.58   22.10
  12   6  -9  234.58   37.60
  12   6  -9  282.27   36.30
   6 -18  -9  213.18   21.70
 -12  -6   9  205.78   43.90
  18 -12   9  310.47   38.80
  -6  18   9  190.28   40.50
  -6  18   9  248.68   42.70
  15   3  -9   61.49   31.90
 -18  15  -9  143.99   18.20
  15   3  -9  113.79   38.10
 -18  15  -9  135.99   15.80
  15   3  -9  170.08   31.60
 -18  15  -9  129.89   16.20
 -15  -3   9  159.78   47.70
  -3  18   9  144.89   37.70
  -3  18   9  208.08   35.90
  18 -15   9  170.28   30.20
 -18  18  -9  -14.40   18.90
 -18  18  -9   46.70   21.60
  18   0  -9   32.70   24.30
 -18  18  -9   32.00   22.20
  18   0  -9  -31.00   23.50
  18 -18   9   28.60   30.20
 -18   0   9    0.00   48.50
   0  18   9   60.09   34.00
   2  17  -9   66.89   35.70
  17 -19  -9   48.40   25.40
   2  17  -9  110.09   34.80
   2  17  -9   -3.50   20.50
 -17  19   9  198.98   44.00
 -17  19   9  122.99   52.99
  19  -2   9  129.49   21.20
   5  14  -9   85.39   27.80
   5  14  -9   15.50   34.20
   5  14  -9   81.49   34.30
 -14  19   9   46.30   36.00
  19  -5   9   90.49   21.90
 -14  19   9  109.59   44.30
   8  11  -9  201.88   32.30
   8  11  -9  213.68   39.60
  11 -19  -9  323.57   33.20
   8  11  -9  278.27   41.50
 -11  19   9  245.38   50.19
 -11  19   9  291.37   46.60
  19  -8   9  297.97   37.30
  -8 -11   9  290.47   53.99
  11   8  -9  309.67   41.80
  11   8  -9  260.57   38.40
  11   8  -9  237.08   33.30
  -8  19   9  307.37   47.90
  19 -11   9  389.96   41.70
 -11  -8   9  323.27   51.09
  -8  19   9  362.56   47.70
  14   5  -9   50.29   37.40
  14   5  -9   65.39   34.70
  14   5  -9   37.10   26.10
  19 -14   9  142.69   29.00
  -5  19   9  103.09   39.50
 -14  -5   9  123.89   43.80
  -5  19   9  201.38   35.30
 -19  17  -9  201.98   22.90
 -19  17  -9  282.57   26.40
  17   2  -9  199.88   45.60
  17   2  -9  256.47   37.90
  17   2  -9  151.28   25.60
 -19  17  -9  224.48   29.00
  -2  19   9  308.97   45.90
  19 -17   9  292.37   39.40
 -17  -2   9  222.68   54.79
   4  16  -9   32.90   32.70
   4  16  -9   21.70   36.70
  16 -20  -9   10.10   22.60
   4  16  -9  -17.90   33.20
 -16  20   9  -56.99   43.30
  20  -4   9   12.80   18.70
 -16  20   9  -21.90   50.49
   7  13  -9   78.29   20.80
   7  13  -9   49.90   37.80
  13 -20  -9   -7.80   19.00
   7  13  -9   25.70   33.70
  20  -7   9   78.99   23.90
 -13  20   9   57.79   42.50
 -13  20   9   37.50   42.10
  10  10  -9  -13.40   21.50
  10  10  -9   60.79   36.50
  10  10  -9   43.50   32.30
  10 -20  -9   71.99   20.10
 -10  20   9  -29.90   39.90
 -10  20   9   15.00   37.30
 -10 -10   9   47.60   47.70
  20 -10   9   79.39   23.30
   7 -20  -9   65.79   16.00
   7 -20  -9   61.89   17.20
  13   7  -9   16.80   32.10
  13   7  -9   97.19   40.60
  20 -13   9   69.69   26.70
  -7  20   9  183.68   38.10
 -13  -7   9   66.39   44.40
  -7  20   9   72.49   42.90
  16   4  -9  -28.70   36.30
 -20  16  -9   74.49   10.50
 -20  16  -9   41.00   10.90
  16   4  -9   41.10   26.50
  -4  20   9  104.09   39.80
  20 -16   9   84.79   29.10
 -16  -4   9   19.90   46.90
  -4  20   9  -47.50   41.80
   6  15  -9   89.69   28.70
  15 -21  -9  139.09   26.30
   6  15  -9   79.29   34.20
  21  -6   9  159.78   25.80
 -15  21   9  114.89   42.50
 -15  21   9   95.49   50.69
   9  12  -9  116.49   41.90
   9  12  -9  222.98   41.80
   9  12  -9  165.48   33.50
  21  -9   9  233.68   30.60
  -9 -12   9  235.58   58.09
 -12  21   9  238.58   52.79
 -12  21   9  223.98   47.20
  12   9  -9  246.98   28.80
  12   9  -9  278.67   51.89
  12   9  -9  337.37   47.80
 -12  -9   9  418.26   57.99
  -9  21   9  668.93   70.69
  -9  21   9  466.05   56.89
  21 -12   9  394.66   45.90
  15   6  -9   70.49   30.10
  15   6  -9   87.49   42.50
 -15  -6   9  208.08   47.20
  -6  21   9  325.77   44.60
  21 -15   9  190.68   34.50
  11  11  -9  222.18   29.00
  11 -22  -9  334.57   35.10
  22 -11   9  331.77   35.90
   0   1 -10   11.10   19.40
  -1   0 -10   42.00   15.00
   1  -1 -10    1.60   13.70
   1  -1 -10   31.40   17.80
  -1   0 -10   35.70   18.80
   0   1 -10   34.60   17.30
   1  -1 -10   39.60   21.00
  -1   0 -10   28.70   15.70
   1   0  10   19.30   23.20
  -1   1  10   28.70   25.70
   0  -1  10   44.50   25.00
  -1   3 -10  -24.90   11.60
   3  -2 -10  -10.20   20.30
  -1   3 -10    2.80   19.20
  -2  -1 -10    8.60   11.70
  -2  -1 -10   -7.30   14.80
   3  -2 -10   -3.20   13.10
  -1   3 -10   18.70   18.30
  -2  -1 -10   16.60   15.90
   3  -2 -10   -2.70   17.50
   2   1  10  -22.20   19.80
  -3   2  10    1.30   23.50
   1  -3  10  -12.90   23.50
   0  -2 -10  110.29   18.10
   2   0 -10  143.19   26.70
   0  -2 -10  114.89   20.30
   2   0 -10   98.49   21.60
   2   0 -10  118.59   18.80
  -2   2 -10   88.79   21.60
  -2   2 -10  124.39   18.10
  -2   2 -10  126.89   19.50
  -2   0  10   99.89   27.20
   0   2  10   90.09   25.90
   2  -2  10   57.89   24.40
   5  -3 -10  490.95   33.60
  -2   5 -10  458.55   34.20
  -2   5 -10  465.45   41.90
  -2   5 -10  482.85   36.30
  -3  -2 -10  477.45   21.30
  -3  -2 -10  481.85   23.50
   5  -3 -10  457.55   38.00
   2  -5  10  410.06   44.60
   3   2  10  429.26   35.90
  -5   3  10  423.66   52.69
   2  -3 -10  -28.70   15.70
  -3   1 -10    5.40   15.40
   1   2 -10   38.70   20.50
   2  -3 -10   41.30   15.70
   1   2 -10    1.30   23.10
  -3   1 -10   33.70   17.00
   1   2 -10  -12.50   12.60
   2  -3 -10    8.90   19.20
  -3   1 -10   17.80   12.70
  -2   3  10   26.60   25.00
  -1  -2  10   19.20   23.30
   3  -1  10  -23.60   20.90
  -2   3  10   15.90   27.40
  -3   4 -10  185.38   23.40
   4  -1 -10  152.48   24.40
  -3   4 -10  142.99   19.00
  -1  -3 -10  145.09   19.20
  -3   4 -10  194.38   25.30
   4  -1 -10  179.38   22.30
  -1  -3 -10  177.78   21.10
  -4   1  10  192.48   31.00
   1   3  10  184.48   27.50
   1   3  10  157.38   31.20
   3  -4  10  201.98   29.30
  -3   7 -10  125.59   23.20
   7  -4 -10  155.38   33.10
   7  -4 -10  112.29   23.80
  -3   7 -10  151.78   22.90
   7  -4 -10  106.79   20.00
  -3   7 -10  132.99   27.00
  -7   4  10  118.39   31.80
   4   3  10  126.09   22.40
   4   3  10  118.09   28.20
  -7   4  10  133.19   31.40
   0   4 -10  393.16   46.00
  -4   0 -10  427.26   24.90
   4  -4 -10  406.06   39.90
   4  -4 -10  418.76   31.90
  -4   0 -10  390.36   21.00
   0   4 -10  450.75   38.10
   0   4 -10  425.26   34.20
  -4   4  10  430.46   50.39
   4   0  10  280.77   33.10
   0  -4  10  285.67   34.70
  -4   4  10  325.97   42.90
  -4   3 -10  296.47   26.90
  -4   3 -10  286.17   24.50
   3   1 -10  219.78   26.40
   1  -4 -10  282.17   24.70
   3   1 -10  336.47   39.10
   1  -4 -10  282.47   31.60
   3   1 -10  265.97   32.00
  -4   3 -10  289.87   31.30
   4  -3  10  287.17   35.80
  -1   4  10  321.97   38.50
  -3  -1  10  272.57   34.00
  -1   4  10  299.87   32.60
  -2  -4 -10   98.59   12.70
  -4   6 -10  121.29   23.50
  -2  -4 -10  110.39   12.70
  -4   6 -10  119.19   21.20
   6  -2 -10  156.68   23.70
   6  -2 -10  136.29   30.70
  -4   6 -10   92.89   29.60
   6  -2 -10  117.89   22.40
   2   4  10  137.99   30.50
  -6   2  10  107.99   31.40
   2   4  10  129.09   23.90
   9  -5 -10   28.80   21.60
   9  -5 -10   -2.80   28.80
   9  -5 -10  -10.10   16.50
  -4   9 -10   30.60   24.80
  -4   9 -10    4.40   18.70
  -4   9 -10    8.00   18.00
   5   4  10   42.20   24.40
  -9   5  10   51.99   28.50
  -9   5  10   43.60   33.60
   5   4  10   32.90   17.80
  -1   6 -10   18.80   18.40
   6  -5 -10   52.89   40.40
  -1   6 -10   17.80   24.80
   6  -5 -10   42.40   16.70
   6  -5 -10   40.50   20.90
  -1   6 -10    7.60   21.10
  -6   5  10   28.30   26.70
   1  -6  10   20.50   26.60
   5   1  10   29.60   18.70
  -6   5  10   -9.10   26.60
   2   3 -10  409.86   34.00
   3  -5 -10  326.27   35.50
   3  -5 -10  353.46   28.30
   2   3 -10  338.67   36.10
  -5   2 -10  316.47   26.40
  -5   2 -10  330.57   22.20
   3  -5 -10  280.97   33.80
  -5   2 -10  356.56   25.30
   2   3 -10  357.26   44.90
  -2  -3  10  285.17   34.70
  -3   5  10  320.67   39.50
  -3   5  10  338.37   36.60
  -5   5 -10  775.62   38.20
   0  -5 -10  789.92   33.60
   5   0 -10  815.32   47.80
  -5   5 -10  750.62   34.00
   5   0 -10  783.72   52.49
   5   0 -10  738.93   39.00
   0  -5 -10  795.92   31.10
  -5   5 -10  727.33   40.50
   0   5  10  837.82   57.79
  -5   0  10  834.72   55.19
   0   5  10  872.71   48.20
  -5   8 -10  104.89   21.10
  -5   8 -10  121.29   22.30
   8  -3 -10  113.99   32.20
   8  -3 -10  101.89   23.60
  -5   8 -10   86.29   25.40
   3   5  10  147.49   24.30
   3   5  10  156.08   29.50
  -8   3  10  146.69   33.90
  -5  11 -10  389.56   47.50
  -5  11 -10  369.66   46.60
  -5  11 -10  334.27   36.10
  11  -6 -10  313.07   39.00
 -11   6  10  301.47   44.80
 -11   6  10  362.36   43.60
   6   5  10  334.47   37.30
   6   5  10  327.67   23.50
  -2   8 -10  489.95   36.50
   8  -6 -10  447.46   35.40
  -2   8 -10  491.25   41.50
   8  -6 -10  393.46   47.50
  -2   8 -10  425.66   47.40
   8  -6 -10  470.05   41.00
  -8   6  10  601.54   55.49
  -8   6  10  556.44   53.89
   6   2  10  483.55   27.30
   1   5 -10   64.69   21.80
   5  -6 -10   20.90   20.00
   1   5 -10   25.00   18.00
   5  -6 -10   52.79   16.60
   1   5 -10   11.60   26.20
   5  -6 -10   37.10   22.30
  -5   6  10   20.60   25.00
  -5   6  10    0.00   27.90
  -1  -5  10   -9.30   25.10
  -6   4 -10   32.10   16.30
   2  -6 -10   27.60   13.90
   4   2 -10   51.49   18.60
   4   2 -10   46.20   21.30
   4   2 -10   -3.70   25.50
   2  -6 -10   36.00   18.20
  -6   4 -10   31.90   12.70
  -6   4 -10   19.20   13.50
  -2   6  10   26.60   26.50
  -2   6  10    7.70   27.50
  -4  -2  10   33.90   26.90
  -6   7 -10   49.40   21.60
   7  -1 -10   35.70   21.00
   7  -1 -10   54.39   27.20
  -1  -6 -10   49.00    8.20
  -6   7 -10   25.80   16.60
  -1  -6 -10   31.20    9.80
  -6   7 -10   74.89   17.70
   1   6  10   32.10   26.70
   1   6  10   71.79   23.80
  -7   1  10   17.50   30.80
  -6  10 -10  296.27   33.20
  10  -4 -10  335.57   39.90
  -6  10 -10  243.18   32.50
  -6  10 -10  327.37   33.40
   4   6  10  392.26   35.00
 -10   4  10  398.16   45.90
   4   6  10  362.86   45.00
  13  -7 -10  354.46   47.00
  -6  13 -10  294.87   37.30
  -6  13 -10  277.67   37.30
  13  -7 -10  298.97   37.60
 -13   7  10  283.27   43.10
 -13   7  10  324.97   49.99
  -3  10 -10  551.04   44.80
  -3  10 -10  715.03   53.39
  10  -7 -10  660.53   55.29
 -10   7  10  622.44   60.09
 -10   7  10  631.44   60.79
   7  -7 -10  777.72   46.30
   0   7 -10  781.52   47.00
   7  -7 -10  826.02   40.90
   0   7 -10  727.33   52.79
   0  -7  10  573.04   64.49
  -7   7  10  747.83   54.49
  -7   7  10  695.73   56.09
  -7   3 -10  133.19   14.00
   4  -7 -10  153.98   24.80
   4  -7 -10  162.08   20.70
  -7   3 -10  155.28   15.50
   3   4 -10  136.59   29.40
   3   4 -10  159.58   26.90
  -7   3 -10  143.49   13.50
  -4   7  10  192.98   32.80
  -3  -4  10  160.78   32.20
  -4   7  10  130.29   33.40
  -7   6 -10   92.79   15.40
   1  -7 -10   93.39   13.80
   6   1 -10   74.19   23.50
  -7   6 -10   88.39   19.40
   1  -7 -10   83.99   16.00
  -7   6 -10  104.09   18.20
   6   1 -10   77.39   29.30
  -1   7  10   83.69   27.00
  -6  -1  10   75.09   33.00
  -1   7  10   82.79   30.70
  -7   9 -10  163.98   35.30
  -7   9 -10  131.49   25.80
   9  -2 -10  147.79   33.30
  -7   9 -10  156.88   21.40
  -9   2  10  151.68   38.50
   2   7  10  156.88   26.70
   2   7  10  212.48   31.00
  -7  12 -10   48.60   21.10
  -7  12 -10   70.19   22.10
  12  -5 -10   81.79   33.60
  12  -5 -10   37.70   19.70
  -7  12 -10   46.00   28.30
   5   7  10   47.50   19.10
   5   7  10   33.70   28.90
 -12   5  10   55.29   40.20
  15  -8 -10  235.48   33.10
  -7  15 -10  202.68   29.90
  -7  15 -10  259.17   39.20
  15  -8 -10  236.58   38.90
 -15   8  10  214.68   51.99
 -15   8  10  225.08   43.60
   8   7  10  251.27   35.50
  -4  12 -10   79.69   31.50
  -4  12 -10   50.09   23.20
  12  -8 -10   69.59   33.60
 -12   8  10   93.19   38.50
 -12   8  10   54.29   35.50
   8   4  10  100.89   35.60
   9  -8 -10  233.18   26.70
   9  -8 -10  217.48   30.20
  -1   9 -10  216.08   30.40
   9  -8 -10  230.98   33.60
  -1   9 -10  249.88   36.10
  -9   8  10  202.78   36.70
  -9   8  10  193.18   37.30
   2   6 -10  436.06   49.20
   6  -8 -10  359.86   42.70
   6  -8 -10  382.96   32.00
   2   6 -10  338.97   38.10
  -6   8  10  406.16   49.90
  -6   8  10  394.36   43.50
  -2  -6  10  413.36   49.20
   5   3 -10   97.29   24.30
   3  -8 -10   77.39   19.10
   3  -8 -10   70.29   15.50
  -8   5 -10   69.69   14.70
  -8   5 -10   55.19   11.20
   5   3 -10   41.90   28.80
  -8   5 -10   80.09   13.20
  -3   8  10  111.39   29.80
  -3   8  10   87.59   32.50
  -5  -3  10  142.39   32.50
  -8   8 -10  391.66   29.50
  -8   8 -10  420.76   34.30
   8   0 -10  483.65   55.19
  -8   8 -10  447.16   30.50
   0   8  10  478.45   48.90
  -8   0  10  395.66   45.50
   0   8  10  409.56   42.40
  -8  11 -10  304.27   33.50
  -8  11 -10  446.76   42.10
  -8  11 -10  368.26   35.60
  11  -3 -10  362.06   38.60
  11  -3 -10  440.16   46.10
 -11   3  10  442.36   49.99
   3   8  10  544.05   51.09
   3   8  10  478.75   40.80
  -8  14 -10   26.80   29.70
  14  -6 -10   52.49   25.50
  -8  14 -10   18.10   19.60
  -8  14 -10   59.59   24.40
  14  -6 -10   67.99   27.80
 -14   6  10   34.00   44.50
   6   8  10   16.90   28.30
   6   8  10   30.60   17.50
  -8  17 -10  134.59   38.70
  -8  17 -10   44.10   28.10
  17  -9 -10   56.19   34.90
  17  -9 -10  110.39   30.50
  -8  17 -10   95.39   29.40
   9   8  10  157.48   33.40
 -17   9  10  107.09   41.00
 -17   9  10  132.79   54.39
  14  -9 -10  174.98   28.90
  -5  14 -10  170.18   30.20
  14  -9 -10  167.08   31.80
  -5  14 -10  200.98   29.80
  -5  14 -10  176.98   37.30
   9   5  10  243.68   33.20
 -14   9  10  225.28   44.90
 -14   9  10  166.78   46.80
  -2  11 -10  176.58   35.40
  -2  11 -10  189.98   28.20
 -11   9  10  175.38   38.80
 -11   9  10  201.48   38.40
   8  -9 -10  303.87   31.10
   1   8 -10  367.76   39.80
   8  -9 -10  252.47   44.00
   1   8 -10  282.27   37.50
  -8   9  10  311.67   39.90
  -1  -8  10  296.77   37.40
  -8   9  10  353.66   42.30
   5  -9 -10   87.89   18.80
   4   5 -10   69.79   23.10
   4   5 -10   57.89   29.90
   5  -9 -10   99.59   23.40
  -5   9  10   62.59   31.60
  -5   9  10  130.89   34.90
  -4  -5  10   90.69   32.10
   7   2 -10  132.49   33.90
  -9   7 -10  140.49   17.60
  -9   7 -10  134.59   18.60
  -9   7 -10  157.58   20.50
   2  -9 -10  126.49   14.70
   2  -9 -10  135.59   17.90
  -7  -2  10  109.19   36.50
  -2   9  10  120.59   32.50
  -2   9  10  120.69   30.90
  -9  10 -10   64.49   18.70
  -9  10 -10   80.69   19.60
  10  -1 -10   37.50   31.30
  -9  10 -10   63.09   21.40
   1   9  10   96.29   28.40
   1   9  10   64.39   27.00
 -10   1  10   65.19   39.60
  -9  13 -10  303.47   34.70
  -9  13 -10  348.37   35.60
  13  -4 -10  311.27   42.30
  13  -4 -10  380.26   40.40
  13  -4 -10  310.77   36.60
   9 -13  10  262.37   34.30
 -13   4  10  270.57   49.20
   4   9  10  334.67   38.70
   4   9  10  310.97   37.10
  -9  16 -10  206.88   36.50
  -9  16 -10  223.58   31.50
  16  -7 -10  122.69   35.70
   9 -16  10  212.98   35.90
 -16   7  10  212.88   55.09
   7   9  10  232.38   59.69
  16 -10 -10  705.03   52.99
  16 -10 -10  650.33   60.99
  -6  16 -10  642.84   52.09
  -6  16 -10  574.64   63.79
 -16  10  10  703.63   70.59
  10   6  10  652.83   53.89
 -16  10  10  689.23   84.19
  -3  13 -10  921.51   63.99
  -3  13 -10  830.22   50.19
  13 -10 -10  780.42   54.99
  -3  13 -10  895.61   52.19
  13 -10 -10  835.22   48.80
 -13  10  10  824.32   73.89
 -13  10  10  896.31   66.89
   0  10 -10  953.00   62.69
   0  10 -10 1040.10   55.99
   0  10 -10 1044.40   77.39
  10 -10 -10  969.30   58.49
 -10  10  10  990.10   66.29
 -10  10  10  999.30   64.99
   3   7 -10  831.92   59.79
   7 -10 -10  792.02   48.60
   7 -10 -10  868.71   41.30
   3   7 -10  807.72   50.69
  -7  10  10  896.21   59.29
  -3  -7  10  906.71   61.49
  -7  10  10  825.32   66.09
   6   4 -10  300.57   38.90
   4 -10 -10  258.97   25.10
   4 -10 -10  292.57   31.90
   6   4 -10  360.66   41.90
  -4  10  10  357.36   39.40
  -6  -4  10  436.06   47.20
  -4  10  10  420.46   45.60
 -10   9 -10  129.59   20.40
 -10   9 -10   94.99   17.30
   9   1 -10  133.79   26.90
 -10   9 -10   99.19   17.00
   9   1 -10   85.59   33.40
  -9  -1  10  145.19   43.00
  -1  10  10  179.98   30.10
  -1  10  10  146.39   32.10
  10  -9  10  123.79   25.50
  12  -2 -10  111.29   30.00
 -10  12 -10   93.39   20.80
 -10  12 -10   53.29   19.60
 -10  12 -10   86.99   24.40
  12  -2 -10  134.39   38.00
 -12   2  10   67.39   42.80
  10 -12  10   71.19   25.80
   2  10  10   73.69   33.30
   2  10  10  125.49   27.70
  15  -5 -10  157.88   29.00
 -10  15 -10  102.29   24.40
 -10  15 -10  153.08   31.10
  15  -5 -10   84.19   31.60
   5  10  10  172.88   25.30
 -15   5  10  149.39   51.59
  10 -15  10  134.69   31.30
   5  10  10  128.79   33.60
  18  -8 -10  182.08   31.80
  18  -8 -10   82.89   20.80
 -10  18 -10  230.08   39.90
 -10  18 -10  103.49   29.60
 -10  18 -10   54.39   28.90
  10 -18  10   65.69   21.80
 -18   8  10  127.99   58.39
  18 -11 -10  116.99   34.40
  -7  18 -10  162.08   32.00
  -7  18 -10  123.09   42.80
  18 -11 -10  101.59   22.80
  11   7  10  155.78   31.80
 -18  11  10  168.28   59.49
  15 -11 -10  192.18   30.80
  -4  15 -10  237.48   32.40
  -4  15 -10  251.97   44.10
  15 -11 -10  161.18   38.00
 -15  11  10  102.79   40.70
 -15  11  10  195.88   52.69
  -1  12 -10  334.67   39.50
  -1  12 -10  374.36   43.70
 -12  11  10  517.05   65.49
 -12  11  10  436.06   49.30
   2   9 -10  -18.40   22.00
   9 -11 -10   62.49   28.00
   2   9 -10   61.69   22.80
   2   9 -10   47.00   31.20
   9 -11 -10   40.10   18.50
  -9  11  10   28.20   29.40
  -9  11  10   31.20   32.30
  -2  -9  10   88.39   33.80
   5   6 -10  263.07   38.20
   6 -11 -10  289.37   28.50
   6 -11 -10  311.17   31.00
   5   6 -10  290.87   33.50
  -6  11  10  322.47   39.80
  -5  -6  10  298.07   44.00
  -6  11  10  289.67   43.20
 -11   8 -10  365.56   19.50
   3 -11 -10  361.46   23.20
 -11   8 -10  379.66   22.80
   8   3 -10  426.96   55.09
 -11   8 -10  412.56   21.30
   3 -11 -10  362.56   27.00
   8   3 -10  388.36   44.10
  -3  11  10  423.66   43.60
  11  -8  10  351.96   40.00
  -8  -3  10  481.55   65.29
  -3  11  10  429.16   50.99
  11   0 -10   53.19   27.80
 -11  11 -10   55.09   16.90
 -11  11 -10   68.29   17.60
 -11  11 -10   60.59   20.20
  11   0 -10   50.89   30.80
  11 -11  10   41.20   22.40
   0  11  10   41.90   29.80
 -11   0  10   79.19   43.20
   0  11  10   52.79   28.50
  14  -3 -10  173.18   33.40
  14  -3 -10  234.38   42.20
 -11  14 -10  224.18   26.60
 -11  14 -10  221.08   31.50
 -11  14 -10  265.87   33.10
  14  -3 -10  158.58   27.80
  11 -14  10  208.18   33.10
   3  11  10  234.58   30.20
 -14   3  10  196.68   49.80
   3  11  10  214.08   36.50
 -11  17 -10   27.50   25.30
 -11  17 -10   22.60   30.10
  17  -6 -10   55.49   20.40
  17  -6 -10  -17.50   31.70
   6  11  10   26.30   18.40
   6  11  10    5.80   33.30
 -17   6  10   64.59   53.29
  11 -17  10   71.29   31.60
  17 -12 -10   -1.00   24.80
  17 -12 -10   84.49   35.00
  -5  17 -10   60.09   42.10
  -5  17 -10   49.20   29.70
 -17  12  10   61.39   40.30
 -17  12  10   40.10   50.49
  -2  14 -10  327.47   38.50
  14 -12 -10  325.87   34.70
  -2  14 -10  358.76   44.80
 -14  12  10  253.77   47.60
 -14  12  10  414.16   49.60
   1  11 -10  670.83   62.19
   1  11 -10  690.23   48.00
 -11  12  10  676.83   62.39
 -11  12  10  712.93   64.39
   8 -12 -10  164.98   29.10
   4   8 -10   99.59   34.50
   8 -12 -10  169.18   22.50
   4   8 -10  167.88   29.00
  -8  12  10  180.68   42.40
  -4  -8  10  154.68   37.00
  -8  12  10  152.08   38.00
   7   5 -10   94.19   31.80
   5 -12 -10  104.29   20.70
   5 -12 -10  116.69   17.10
   7   5 -10  149.69   28.50
  -5  12  10   94.99   36.20
  -5  12  10   94.39   36.50
  12  -7  10   68.49   22.50
  -7  -5  10   77.39   37.70
  10   2 -10   91.29   29.80
 -12  10 -10  108.99   17.50
  10   2 -10   77.09   26.60
  10   2 -10  106.59   35.40
 -12  10 -10   90.89   15.10
 -10  -2  10  112.29   43.50
  -2  12  10   64.49   31.50
  12 -10  10   69.19   24.40
  -2  12  10  105.79   31.10
  13  -1 -10   23.10   33.50
 -12  13 -10   87.09   22.40
 -12  13 -10   49.10   19.60
 -12  13 -10   61.19   19.50
   1  12  10   88.29   30.40
  12 -13  10   88.09   29.90
   1  12  10  119.59   34.90
 -13   1  10   48.30   44.30
  16  -4 -10   58.69   26.20
 -12  16 -10   29.40   21.10
 -12  16 -10   50.09   29.30
  16  -4 -10   35.20   30.20
 -12  16 -10   64.39   24.90
   4  12  10   54.99   34.00
 -16   4  10   84.19   49.99
   4  12  10   32.60   25.80
  12 -16  10    0.60   29.10
  -3  16 -10  768.32   71.79
  -3  16 -10  770.12   60.49
  -3  16 -10  664.23   55.89
  16 -13 -10  671.33   50.09
 -16  13  10  526.35   67.39
 -16  13  10  665.73   81.79
   0  13 -10 1330.77   65.09
   0  13 -10 1405.06   77.49
  13 -13 -10 1430.36   62.79
 -13  13  10 1426.56   81.59
 -13  13  10 1382.96   80.69
  10 -13 -10  900.91   45.80
   3  10 -10  832.62   65.79
   3  10 -10  802.72   52.49
 -10  13  10  947.71   68.49
  -3 -10  10 1050.69   69.89
 -10  13  10  963.40   72.49
   6   7 -10  260.37   35.80
   7 -13 -10  310.37   30.10
   6   7 -10  255.07   39.00
  13  -6  10  256.07   29.10
  -6  -7  10  279.17   47.60
  -7  13  10  320.87   43.00
  -7  13  10  350.36   48.50
   4 -13 -10  320.77   27.30
   9   4 -10  373.06   42.80
   9   4 -10  328.37   39.60
   4 -13 -10  306.97   23.60
   9   4 -10  357.56   47.10
  -9  -4  10  326.57   49.20
  13  -9  10  310.57   41.10
  -4  13  10  405.66   45.60
 -13  12 -10   59.69   17.40
  12   1 -10   88.89   37.40
 -13  12 -10   86.89   17.60
 -13  12 -10   75.99   19.10
  12   1 -10   75.69   26.80
  12   1 -10   77.29   30.20
 -12  -1  10  104.39   46.80
  13 -12  10  137.19   28.90
  -1  13  10  102.79   33.10
  -1  13  10   75.29   32.30
  15  -2 -10   74.59   38.50
 -13  15 -10   54.69   24.90
 -13  15 -10   37.90   21.50
 -13  15 -10   32.00   20.90
  15  -2 -10   37.30   30.70
   2  13  10   15.30   32.90
  13 -15  10   97.59   31.50
 -15   2  10   88.59   50.99
   2  13  10   66.19   30.40
  -1  15 -10  159.88   43.80
  -1  15 -10  173.58   36.70
  15 -14 -10   84.69   27.50
  -1  15 -10   93.39   32.70
 -15  14  10   95.39   39.50
 -15  14  10  106.19   46.60
   2  12 -10  236.78   34.90
   2  12 -10  140.69   29.90
   2  12 -10  137.49   40.80
 -12  14  10  148.69   42.60
 -12  14  10  121.09   38.80
   5   9 -10   66.09   27.40
   9 -14 -10   57.79   18.40
   9 -14 -10   77.99   26.90
   5   9 -10   98.09   28.70
   5   9 -10   80.09   34.40
  -5  -9  10  108.79   42.20
  -9  14  10   58.19   42.40
  14  -5  10   71.69   23.00
  -9  14  10  117.69   40.60
   8   6 -10   -8.60   27.10
   6 -14 -10   37.50   20.80
   8   6 -10  -19.40   30.50
   8   6 -10    6.00   25.40
   6 -14 -10   34.30   15.00
  14  -8  10   32.20   21.80
  -6  14  10   14.80   36.00
  -6  14  10   33.60   34.00
  -8  -6  10   22.70   41.10
 -14  11 -10  255.97   20.60
 -14  11 -10  296.37   17.80
 -14  11 -10  226.38   18.30
  11   3 -10  218.58   33.80
  11   3 -10  298.57   42.30
  11   3 -10  326.37   42.30
 -11  -3  10  270.97   54.99
  -3  14  10  306.77   47.60
  -3  14  10  303.67   41.90
  14 -11  10  460.45   45.60
 -14  14 -10  127.49   22.10
  14   0 -10  111.09   35.30
  14   0 -10   99.69   39.50
  14   0 -10  171.18   31.90
 -14  14 -10  121.49   20.70
 -14  14 -10  118.19   22.50
   0  14  10  146.59   35.70
  14 -14  10  108.49   31.10
 -14   0  10  134.49   50.59
   0  14  10   80.59   38.30
  17  -3 -10   64.29   23.40
 -14  17 -10   42.50   21.70
  17  -3 -10    0.80   37.80
 -14  17 -10   33.60   24.50
   3  14  10   38.40   29.70
  14 -17  10    6.80   32.00
 -17   3  10  -51.19   53.79
   3  14  10   12.30   36.20
   1  14 -10  263.57   37.00
  14 -15 -10  305.17   35.50
   1  14 -10  224.68   45.30
   1  14 -10  290.67   38.40
 -14  15  10  222.28   52.29
 -14  15  10  302.67   48.40
   4  11 -10  506.65   54.29
   4  11 -10  434.66   47.90
   4  11 -10  404.36   46.50
  15  -4  10  408.26   40.10
 -11  15  10  461.75   53.89
 -11  15  10  455.95   51.49
   7   8 -10  260.67   37.60
   8 -15 -10  267.17   29.90
   7   8 -10  283.77   37.50
   7   8 -10  313.37   42.70
   8 -15 -10  276.77   29.70
  15  -7  10  346.67   40.70
  -8  15  10  297.97   46.80
  -8  15  10  299.47   48.80
  -7  -8  10  277.67   52.89
   5 -15 -10   87.29   15.10
  10   5 -10   71.79   31.90
   5 -15 -10  105.79   17.30
  10   5 -10  104.09   36.00
  10   5 -10  201.38   35.60
  15 -10  10  141.29   26.70
  -5  15  10   94.29   37.20
  -5  15  10  112.49   36.50
 -10  -5  10  133.69   48.60
  13   2 -10  100.69   37.30
 -15  13 -10   45.20   15.20
  13   2 -10  -14.20   23.80
  13   2 -10   46.90   34.50
 -15  13 -10   14.60   14.40
 -15  13 -10   20.60   14.30
  15 -13  10   56.59   28.40
  -2  15  10    5.20   36.30
  -2  15  10   15.90   38.20
 -13  -2  10   61.69   50.89
  16  -1 -10   39.20   37.70
 -15  16 -10   19.30   22.30
 -15  16 -10   40.60   38.30
 -15  16 -10   61.09   21.80
  15 -16  10   90.89   33.40
 -16   1  10   16.10   54.69
   1  15  10    7.10   33.00
   1  15  10   38.80   33.50
   0  16 -10  654.93   79.19
  16 -16 -10  653.13   54.59
   3  13 -10  748.33   60.69
   3  13 -10  827.22   71.09
   3  13 -10  625.04   52.49
 -13  16  10  809.12   75.59
 -13  16  10  676.33   74.09
  16  -3  10  806.62   55.99
   6  10 -10  506.35   54.09
   6  10 -10  523.95   63.69
   6  10 -10  453.85   49.99
  10 -16 -10  544.35   37.30
  16  -6  10  649.14   46.60
  -6 -10  10  559.84   76.19
 -10  16  10  677.93   74.79
 -10  16  10  690.73   76.99
   9   7 -10  133.49   34.10
   9   7 -10   78.19   36.70
   7 -16 -10  119.39   23.40
   7 -16 -10  123.39   19.30
   9   7 -10   84.89   31.60
  -7  16  10  168.58   42.00
  16  -9  10  180.28   29.70
  -7  16  10  168.48   44.40
  -9  -7  10  114.19   49.30
  12   4 -10   65.69   22.10
  12   4 -10   70.59   38.40
  12   4 -10   42.60   33.50
 -12  -4  10  117.59   50.79
  -4  16  10   32.80   39.10
  -4  16  10   21.90   35.90
  16 -12  10  109.89   28.70
 -16  15 -10   87.39   14.40
  15   1 -10  -26.80   38.30
 -16  15 -10   44.90   16.30
 -16  15 -10   68.49   19.10
  15   1 -10   99.09   29.70
  -1  16  10   85.49   41.50
  -1  16  10   94.79   39.20
  16 -15  10   74.79   33.70
 -15  -1  10   79.09   56.29
  12 -17 -10    3.00   21.70
   5  12 -10   21.90   32.10
   5  12 -10   -6.90   37.00
   5  12 -10  -21.90   19.80
  17  -5  10   51.49   23.90
 -12  17  10   47.00   43.30
 -12  17  10   14.80   47.00
   8   9 -10   41.10   20.00
   8   9 -10   24.70   30.10
   9 -17 -10   77.99   26.60
   8   9 -10   86.19   37.00
   9 -17 -10   57.09   21.00
  -9  17  10   50.29   45.80
  -8  -9  10   37.60   47.60
  -9  17  10   32.60   43.70
  17  -8  10   75.09   25.60
   6 -17 -10   58.09   14.70
  11   6 -10   64.99   38.00
  11   6 -10   48.00   34.30
   6 -17 -10   53.29   14.60
  17 -11  10   50.99   26.30
  -6  17  10   82.29   39.10
  -6  17  10   92.69   38.50
 -11  -6  10   64.59   51.19
  14   3 -10   31.60   38.50
  14   3 -10   61.69   26.40
 -17  14 -10   62.79   12.30
 -14  -3  10   60.59   54.49
  17 -14  10  -18.20   27.40
  -3  17  10   40.80   40.60
  -3  17  10   36.40   39.10
   7  11 -10  157.38   42.10
   7  11 -10  183.98   38.50
  11 -18 -10  232.18   26.50
  18  -7  10  283.37   33.40
 -11  18  10  224.98   53.29
  -7 -11  10  209.98   53.09
 -11  18  10  262.27   52.39
   8 -18 -10  127.09   23.50
  10   8 -10  123.89   41.40
  10   8 -10  147.69   35.60
   8 -18 -10  152.88   22.50
  18 -10  10  144.39   29.30
 -10  -8  10   44.70   52.89
  -8  18  10  188.68   48.50
  -8  18  10  143.19   45.30
  -1   1 -11  -24.70   20.30
  -1   1 -11    7.60   18.70
   1   0 -11   -8.60   23.10
   0  -1 -11   -2.20   20.30
   0  -1 -11   -6.40   15.40
   1   0 -11   -9.40   15.50
   0  -1 -11   13.20   18.70
   0   1  11   30.20   28.30
  -1   0  11  -31.70   26.20
   1  -1  11   18.60   27.80
  -2   0 -11  -20.20   13.80
   2  -2 -11    7.60   16.20
   0   2 -11    8.40   24.10
   2  -2 -11    3.30   23.20
   0   2 -11   34.80   18.20
   2  -2 -11  -20.40   20.60
  -2   0 -11   -9.40   16.20
  -2   0 -11   -9.70   16.50
   0  -2  11  -35.60   27.10
  -2   2  11    3.40   28.40
   2   0  11   -9.20   26.20
   3  -1 -11   -3.80   17.40
   3  -1 -11   -2.50   19.10
  -2   3 -11   36.80   22.50
  -2   3 -11    7.60   17.50
   3  -1 -11    2.30   26.00
  -1  -2 -11   41.50   14.60
  -2   3 -11   18.60   16.70
  -1  -2 -11   19.50   17.00
  -3   1  11   60.49   32.70
   1   2  11   18.10   28.50
   2  -3  11   17.60   28.00
   4  -3 -11   -5.30   21.40
  -3  -1 -11    7.20   11.60
   4  -3 -11   25.40   31.70
   4  -3 -11   16.80   17.50
  -1   4 -11  -50.79   41.80
  -3  -1 -11   10.60   13.90
  -4   3  11   28.00   32.80
   1  -4  11    1.00   27.50
   3   1  11  -31.30   24.50
   2   1 -11   -8.90   25.70
  -3   2 -11   16.70   18.50
  -3   2 -11   19.20   17.20
   1  -3 -11   21.30   15.90
   1  -3 -11   15.20   19.80
   2   1 -11   15.70   17.90
   1  -3 -11    8.00   20.20
  -3   2 -11   33.30   14.60
   2   1 -11   24.80   19.70
  -2  -1  11   36.40   32.80
  -1   3  11  -11.50   28.40
   3  -2  11   21.00   27.30
  -3   5 -11   41.10   23.60
  -2  -3 -11   49.30   11.60
  -2  -3 -11   28.70   13.10
  -3   5 -11   74.39   21.90
  -3   5 -11   25.00   16.50
   5  -2 -11   37.70   22.50
   5  -2 -11   37.00   29.60
   5  -2 -11  -21.30   17.30
  -5   2  11   42.00   36.40
   2   3  11   39.60   26.60
  -2   6 -11   92.39   24.80
  -2   6 -11  113.29   29.80
  -2   6 -11  102.59   23.10
   6  -4 -11   75.99   29.20
   6  -4 -11   76.99   25.40
  -6   4  11   70.69   37.50
   4   2  11   77.99   24.90
  -4   1 -11  -13.70   15.90
   3  -4 -11  -12.40   22.50
  -4   1 -11   17.60   12.70
   3  -4 -11    8.70   20.60
   1   3 -11   91.89   27.40
  -4   1 -11   10.40   15.70
   3  -4 -11   40.50   16.90
   1   3 -11  -28.50   15.40
   1   3 -11   17.30   27.70
  -3   4  11  -21.30   30.30
  -1  -3  11  -35.30   31.60
   4  -1  11   -1.70   24.10
   4   0 -11   11.40   20.20
   0  -4 -11   -7.80   13.50
   4   0 -11   39.20   28.00
   0  -4 -11  -14.20   16.20
  -4   4 -11    6.70   15.20
  -4   4 -11  -25.80   19.60
   4   0 -11   20.50   18.10
  -4   4 -11   -0.80   15.50
   0   4  11   15.30   28.70
  -4   0  11  -18.70   33.30
  -4   7 -11  129.39   25.10
  -4   7 -11  132.59   24.00
   7  -3 -11  102.49   32.00
  -4   7 -11  108.69   28.40
   3   4  11  115.49   26.90
  -7   3  11   98.69   40.50
  -3   8 -11  139.79   26.80
  -3   8 -11  114.89   30.90
   8  -5 -11   79.49   32.80
  -8   5  11  158.58   42.00
   5   3  11  134.49   22.70
   0   5 -11   -7.10   27.80
   0   5 -11   14.90   23.00
   5  -5 -11  -25.20   21.50
   0   5 -11   51.89   21.50
   5  -5 -11    3.30   17.50
  -5   5  11  -17.40   33.10
  -5   5  11    2.70   35.60
   0  -5  11   12.90   31.50
   2  -5 -11   30.00   19.90
   2  -5 -11   58.19   17.80
  -5   3 -11   27.70   14.90
  -5   3 -11   51.39   17.40
   3   2 -11  -15.00   18.70
  -5   3 -11   42.40   17.50
   3   2 -11   44.30   29.60
  -3  -2  11   64.19   35.80
  -2   5  11   18.90   31.20
  -2   5  11   49.90   35.60
  -1  -5 -11  136.89   13.60
  -5   6 -11  114.89   24.90
  -5   6 -11  178.28   25.40
   6  -1 -11   48.10   24.20
   6  -1 -11  126.19   34.20
  -1  -5 -11  118.99   15.40
  -6   1  11  104.09   41.80
   1   5  11  157.28   36.30
   1   5  11  123.89   30.90
  -5   9 -11  522.75   69.99
  -5   9 -11  489.85   48.20
   9  -4 -11  458.75   41.90
   9  -4 -11  493.35   62.99
  -5   9 -11  491.15   41.10
  -9   4  11  530.85   53.89
   4   5  11  500.25   59.99
   4   5  11  522.15   40.80
  10  -6 -11   92.09   36.50
  10  -6 -11   62.99   24.00
  10  -6 -11   51.89   30.70
  -4  10 -11   18.40   24.00
  -4  10 -11  106.29   33.20
 -10   6  11   63.39   39.60
  -1   7 -11  207.58   36.00
  -1   7 -11  210.08   30.40
   7  -6 -11  223.88   32.20
   7  -6 -11  207.98   34.40
  -7   6  11  217.28   41.90
  -7   6  11  239.08   42.90
  -6   2 -11  121.99   11.70
   4  -6 -11  141.89   26.10
  -6   2 -11  112.89   12.30
   2   4 -11  162.18   28.80
   2   4 -11  113.59   32.40
   4  -6 -11  105.99   20.20
  -4   6  11  170.48   37.80
  -4   6  11  158.58   43.20
  -2  -4  11  129.99   39.10
   5   1 -11   49.70   24.80
  -6   5 -11   70.29   17.20
  -6   5 -11   83.09   19.90
  -6   5 -11   69.89   16.60
   1  -6 -11   52.39   17.80
   1  -6 -11   79.79   15.20
   5   1 -11   58.49   33.00
  -1   6  11   71.99   31.50
  -1   6  11   76.29   37.20
  -5  -1  11   84.29   39.00
  -6   8 -11  262.87   33.50
  -6   8 -11  328.27   36.10
   8  -2 -11  296.77   42.40
   8  -2 -11  282.57   37.40
  -6   8 -11  351.46   41.50
   2   6  11  264.17   32.80
  -8   2  11  357.86   48.50
   2   6  11  279.77   39.50
  -6  11 -11  475.25   43.80
  11  -5 -11  478.15   50.09
  11  -5 -11  447.66   46.10
  -6  11 -11  535.55   51.19
  11  -5 -11  544.75   54.19
   5   6  11  596.64   61.39
 -11   5  11  574.84   68.39
   5   6  11  583.04   32.90
  12  -7 -11  467.05   53.89
  12  -7 -11  478.15   47.30
  12  -7 -11  498.05   53.19
  -5  12 -11  464.55   45.80
  -5  12 -11  476.55   57.49
  -5  12 -11  464.95   46.90
 -12   7  11  529.55   69.79
 -12   7  11  493.55   54.79
   7   5  11  567.84   61.09
   9  -7 -11  439.86   57.79
  -2   9 -11  392.06   43.30
  -2   9 -11  529.75   56.49
  -9   7  11  393.56   49.20
  -9   7  11  468.25   55.39
   1   6 -11  241.58   32.00
   1   6 -11  195.58   36.70
   6  -7 -11  207.28   24.70
  -6   7  11  212.38   41.50
  -6   7  11  233.48   47.30
  -1  -6  11  232.38   41.10
   4   3 -11   90.29   35.00
  -7   4 -11   81.29   13.00
   4   3 -11   15.30   23.50
   3  -7 -11   93.29   23.00
  -7   4 -11   93.69   16.80
  -7   4 -11   80.69   14.80
   3  -7 -11   91.09   19.10
  -3   7  11   82.99   34.80
  -3   7  11   78.29   38.90
  -4  -3  11  142.09   39.90
   7   0 -11  -19.50   17.10
  -7   7 -11   70.29   21.10
  -7   7 -11   21.60   14.50
   7   0 -11   14.10   32.90
  -7   7 -11   24.10   20.60
  -7   0  11   -9.40   36.40
   0   7  11   14.40   28.20
   0   7  11   23.90   33.00
  -7  10 -11   32.30   21.10
  -7  10 -11   69.49   25.50
  -7  10 -11   62.19   22.80
  10  -3 -11   69.99   23.10
  10  -3 -11   -9.80   38.10
  10  -3 -11    3.20   26.20
   3   7  11   39.20   25.60
 -10   3  11   46.70   38.90
   3   7  11   60.09   35.80
  -7  13 -11    3.10   23.30
  -7  13 -11   58.69   33.00
  13  -6 -11    3.90   24.00
  13  -6 -11   26.30   33.20
  13  -6 -11   39.90   42.30
   6   7  11   16.50   36.50
 -13   6  11   14.40   42.60
  11  -8 -11  137.99   27.70
  11  -8 -11  145.49   38.70
  -3  11 -11  132.89   29.00
  11  -8 -11  156.98   34.20
  -3  11 -11  132.99   35.30
  -3  11 -11  154.88   29.40
 -11   8  11  167.68   46.50
 -11   8  11  141.99   46.10
   0   8 -11    0.70   31.30
   0   8 -11    5.20   23.20
   0   8 -11    2.60   23.70
   8  -8 -11  -54.89   28.70
   8  -8 -11    7.90   18.90
  -8   8  11    8.90   40.30
  -8   8  11   -1.00   38.80
   5  -8 -11  154.68   22.10
   3   5 -11  127.49   36.20
   5  -8 -11  223.68   28.80
   3   5 -11  205.18   30.70
  -5   8  11  157.78   38.00
  -5   8  11  197.88   43.60
  -3  -5  11  227.68   43.00
  -8   6 -11  430.96   28.70
   6   2 -11  453.35   47.80
   2  -8 -11  418.76   26.20
  -8   6 -11  428.76   26.50
   2  -8 -11  405.36   28.70
  -8   6 -11  402.56   28.70
   6   2 -11  351.36   33.80
  -2   8  11  452.25   57.69
  -2   8  11  478.65   62.99
  -6  -2  11  490.45   66.09
   9  -1 -11  544.75   49.00
   9  -1 -11  530.45   44.50
  -8   9 -11  604.74   42.50
   9  -1 -11  608.64   67.29
  -8   9 -11  611.54   39.90
  -9   1  11  519.55   65.59
   1   8  11  706.93   64.89
   1   8  11  643.44   52.69
  -8  12 -11  555.94   43.30
  12  -4 -11  367.46   46.00
  -8  12 -11  560.14   48.60
  12  -4 -11  458.55   54.59
  12  -4 -11  531.85   55.59
  -8  12 -11  477.05   47.40
   4   8  11  467.55   36.70
   4   8  11  549.35   61.89
 -12   4  11  538.55   72.29
  -4  13 -11   14.10   26.80
  -4  13 -11   40.50   27.60
  13  -9 -11   14.50   32.70
  13  -9 -11   -0.30   24.80
  13  -9 -11   22.80   38.00
  -4  13 -11   59.99   37.50
 -13   9  11  -38.00   38.90
 -13   9  11   50.19   26.90
  -1  10 -11  228.98   39.70
  10  -9 -11  143.39   36.80
  -1  10 -11  196.58   30.50
 -10   9  11  180.98   47.50
 -10   9  11  160.98   44.40
   7  -9 -11  458.95   61.69
   2   7 -11  452.75   46.80
   2   7 -11  377.96   45.10
   7  -9 -11  424.56   36.30
  -7   9  11  424.26   49.20
  -7   9  11  458.75   53.49
  -2  -7  11  504.85   53.79
   5   4 -11  330.67   44.00
   4  -9 -11  337.67   29.40
   4  -9 -11  413.06   36.70
   5   4 -11  373.96   45.50
  -5  -4  11  458.95   53.09
  -4   9  11  491.35   54.49
  -4   9  11  407.56   46.40
  -9   8 -11  544.25   33.90
   8   1 -11  503.75   52.09
  -9   8 -11  551.24   34.50
   8   1 -11  679.13   59.39
  -9   8 -11  500.05   31.80
  -1   9  11  594.54   56.49
  -8  -1  11  670.93   68.29
  -1   9  11  550.84   59.09
  11  -2 -11  227.88   50.49
  11  -2 -11  271.07   37.60
  -9  11 -11  314.57   41.60
  -9  11 -11  359.26   37.20
  -9  11 -11  294.77   37.10
  11  -2 -11  233.08   32.80
 -11   2  11  429.46   55.89
   2   9  11  361.76   47.60
   2   9  11  359.56   46.10
  12 -10 -11  152.88   27.80
  -2  12 -11  143.19   40.20
  -2  12 -11   56.19   29.10
  12 -10 -11  197.88   41.00
 -12  10  11   93.29   49.40
 -12  10  11   99.59   44.20
   9 -10 -11  152.88   32.80
   1   9 -11   93.59   28.30
   1   9 -11  124.39   38.90
  -9  10  11  186.08   47.50
  -9  10  11  115.89   43.80
   4   6 -11    6.50   25.10
   4   6 -11   -4.40   36.10
   6 -10 -11   15.40   18.20
   6 -10 -11   10.10   23.40
  -6  10  11   47.20   42.10
  -6  10  11   -6.40   33.90
  -4  -6  11   39.80   41.80
   7   3 -11   22.80   25.60
   7   3 -11   52.29   29.00
   7   3 -11   17.60   37.80
   3 -10 -11   32.00   15.50
   3 -10 -11   30.10   13.90
 -10   7 -11   34.40   12.40
  -3  10  11   53.19   34.80
  -7  -3  11   25.50   37.00
  -3  10  11   35.80   38.10
 -10  10 -11  -27.30   14.90
  10   0 -11    7.20   41.20
 -10  10 -11   29.30   18.60
  10   0 -11   82.09   31.20
  10   0 -11  -23.80   20.40
 -10  10 -11    7.70   18.90
   0  10  11   35.00   34.70
   0  10  11   17.40   32.50
 -10   0  11   41.80   42.10
  11 -11 -11   12.60   31.90
  11 -11 -11  -20.40   22.40
   0  11 -11  -23.90   25.90
   0  11 -11  -14.80   39.40
 -11  11  11  -34.30   37.00
 -11  11  11  -15.70   43.00
   8 -11 -11   93.79   32.20
   3   8 -11   95.89   38.60
   8 -11 -11  119.09   24.20
   3   8 -11  166.78   33.70
   3   8 -11   65.99   39.50
  -8  11  11   90.59   42.40
  -3  -8  11  123.59   44.10
  -8  11  11  146.09   45.10
   6   5 -11  560.84   55.89
   6   5 -11  617.24   55.09
   5 -11 -11  529.65   33.50
   6   5 -11  513.85   55.29
   5 -11 -11  553.14   38.30
  -5  11  11  599.14   70.99
  -6  -5  11  478.25   54.69
  -5  11  11  497.95   65.89
 -11   9 -11  584.74   25.70
   9   2 -11  567.94   58.19
 -11   9 -11  557.64   23.60
 -11   9 -11  475.35   23.40
   9   2 -11  579.64   70.39
   9   2 -11  479.35   49.50
  -2  11  11  584.94   62.79
  -2  11  11  546.05   47.60
  -9  -2  11  488.55   54.69
 -11  12 -11  759.52   43.70
  12  -1 -11  701.03   82.59
  12  -1 -11  708.23   64.69
 -11  12 -11  772.62   39.80
 -12   1  11  756.92   82.59
   1  11  11  864.61   72.39
   1  11  11  820.32   56.89
  10 -12 -11  140.59   34.40
   2  10 -11   73.99   31.20
   2  10 -11  117.29   33.60
   2  10 -11  133.89   43.00
 -10  12  11  171.78   50.39
 -10  12  11  127.89   48.90
   5   7 -11  288.47   47.10
   5   7 -11  406.46   52.69
   7 -12 -11  378.96   43.20
   7 -12 -11  323.87   33.40
   5   7 -11  367.46   43.20
  -7  12  11  365.36   48.30
  -5  -7  11  346.17   52.59
  -7  12  11  339.37   52.19
   4 -12 -11  406.96   24.00
   4 -12 -11  456.15   26.10
   8   4 -11  382.16   47.00
   8   4 -11  274.67   37.80
   8   4 -11  360.26   48.70
  -4  12  11  421.96   48.40
  -8  -4  11  474.75   54.09
  -4  12  11  375.66   48.00
  11   1 -11  676.73   79.19
 -12  11 -11  535.55   27.50
 -12  11 -11  610.44   24.70
  11   1 -11  576.34   66.69
 -12  11 -11  571.14   25.40
 -11  -1  11  635.44   81.69
  -1  12  11  713.43   63.39
  -1  12  11  671.83   75.29
   4   9 -11  -46.10   42.60
   9 -13 -11   26.40   20.40
   4   9 -11   21.60   31.20
   4   9 -11   -3.80   26.00
   9 -13 -11  -12.00   26.70
  -9  13  11  -13.20   45.50
  -9  13  11   25.60   40.00
  -4  -9  11   -8.20   43.80
   6 -13 -11   39.00   20.50
   7   6 -11  -39.60   26.70
   7   6 -11   32.20   31.90
   6 -13 -11   44.70   17.90
   7   6 -11   22.80   43.40
  -6  13  11   83.19   39.90
  -6  13  11   52.99   43.60
  -7  -6  11   52.99   41.10
   0   0 -12 1068.69   47.70
   0   0 -12 1080.39   52.29
   0   0 -12 1056.79   53.29
   0   0  12 1260.77   74.39
  -1  -1 -12  121.19   20.60
  -1   2 -12  145.79   27.80
  -1   2 -12  141.29   22.90
   2  -1 -12  150.58   24.30
  -1  -1 -12  140.19   20.60
   2  -1 -12  140.89   28.00
  -1   2 -12  146.79   28.30
   2  -1 -12  107.29   30.30
   1  -2  12  186.68   40.40
  -2   1  12  228.38   44.40
   1   1  12  181.28   37.70
   1   1 -12  288.17   35.90
   1  -2 -12  329.67   41.80
   1  -2 -12  329.67   34.20
  -2   1 -12  341.57   33.40
   1   1 -12  307.47   34.40
   1  -2 -12  295.27   39.00
  -2   1 -12  303.57   34.60
  -2   1 -12  308.57   32.10
   1   1 -12  313.17   35.90
  -1   2  12  495.45   60.19
   2  -1  12  367.96   41.20
  -1  -1  12  384.26   48.40
  -3   0 -12  659.73   27.50
   3  -3 -12  767.72   43.40
   0  -3 -12  663.53   34.70
   0   0   0    0.00    0.00

_computing_structure_solution     'SHELXT 2014/5 (Sheldrick, 2014)'
;
_shelx_hkl_checksum              62282
_olex2_submission_special_instructions 'No special instructions were received'
loop_
_space_group_symop_operation_xyz
'x, y, z'
'-y, x-y, z'
'-x+y, -x, z'
'x+2/3, y+1/3, z+1/3'
'-y+2/3, x-y+1/3, z+1/3'
'-x+y+2/3, -x+1/3, z+1/3'
'x+1/3, y+2/3, z+2/3'
'-y+1/3, x-y+2/3, z+2/3'
'-x+y+1/3, -x+2/3, z+2/3'
loop_
_atom_site_label
_atom_site_type_symbol
_atom_site_fract_x
_atom_site_fract_y
_atom_site_fract_z
_atom_site_U_iso_or_equiv
_atom_site_adp_type
_atom_site_occupancy
_atom_site_site_symmetry_order
_atom_site_calc_flag
_atom_site_refinement_flags_posn
_atom_site_refinement_flags_adp
_atom_site_refinement_flags_occupancy
_atom_site_disorder_assembly
_atom_site_disorder_group
Zn01 Zn 0.64587(5) 0.67294(5) 0.48091(11) 0.0139(4) Uani 1 1 d . . . . .
Zn02 Zn 0.32730(6) 0.35287(5) -0.01570(11) 0.0147(4) Uani 1 1 d . . . . .
Cl2 Cl 0.5501(4) 0.4906(3) 0.2330(13) 0.100(4) Uani 0.737(16) 1 d . . P A 1
O4 O 0.3287(4) 0.4027(4) 0.8431(8) 0.0211(18) Uani 1 1 d . U . . .
O1 O 0.5945(4) 0.6704(4) 0.3427(8) 0.0208(19) Uani 1 1 d . . . . .
Cl1 Cl 0.4863(3) 0.4252(3) -0.0021(16) 0.125(6) Uani 0.737(16) 1 d . . P A 1
O2 O 0.5811(4) 0.6171(4) 0.1665(8) 0.0203(19) Uani 1 1 d . . . . .
O3 O 0.4581(4) 0.5491(4) 0.4138(9) 0.033(2) Uani 1 1 d . . . . .
O5 O 0.3859(4) 0.4195(3) 0.6696(8) 0.0212(18) Uani 1 1 d . U . . .
N4 N 0.5974(4) 0.6441(4) 0.6345(9) 0.016(2) Uani 1 1 d . . . . .
N6 N 0.4263(4) 0.5325(4) 0.7065(10) 0.020(2) Uani 1 1 d . . . . .
H6 H 0.4363 0.5407 0.6235 0.024 Uiso 1 1 calc R . . . .
N2 N 0.3568(5) 0.4033(5) 0.1354(9) 0.018(2) Uani 1 1 d . . . . .
C3 C 0.4074(5) 0.4793(5) 0.2552(11) 0.014(2) Uani 1 1 d . U . . .
O6 O 0.4531(4) 0.5471(5) 0.9198(9) 0.039(3) Uani 1 1 d . . . . .
N3 N 0.4669(4) 0.5757(4) 0.2012(10) 0.020(2) Uani 1 1 d . . . . .
H3 H 0.4555 0.5646 0.1200 0.024 Uiso 1 1 calc R . . . .
N5 N 0.6148(4) 0.6474(4) 0.7640(9) 0.018(2) Uani 1 1 d . . . . .
C10 C 0.5224(5) 0.5947(5) 0.7589(11) 0.018(3) Uani 1 1 d . . . . .
C6 C 0.5649(5) 0.6403(5) 0.2486(11) 0.018(3) Uani 1 1 d . . . . .
C5 C 0.5089(5) 0.6358(5) 0.2237(13) 0.020(3) Uani 1 1 d . . . . .
H5 H 0.5128 0.6540 0.1362 0.024 Uiso 1 1 calc R . . . .
N1 N 0.3568(4) 0.3877(5) 0.2651(10) 0.019(2) Uani 1 1 d . . . . .
C13 C 0.3618(5) 0.4347(5) 0.7517(11) 0.017(2) Uani 1 1 d . U . . .
C4 C 0.4458(5) 0.5379(5) 0.2990(11) 0.018(3) Uani 1 1 d . . . . .
C2 C 0.3872(5) 0.4592(5) 0.1314(11) 0.018(2) Uani 1 1 d . U . . .
H2 H 0.3938 0.4814 0.0548 0.022 Uiso 1 1 calc R . . . .
C12 C 0.3681(5) 0.4926(5) 0.7384(12) 0.017(2) Uani 1 1 d . . . . .
H12 H 0.3580 0.5033 0.8238 0.021 Uiso 1 1 calc R . . . .
C8 C 0.5425(5) 0.6127(5) 0.6307(12) 0.019(3) Uani 1 1 d . . . . .
H8 H 0.5202 0.6037 0.5534 0.022 Uiso 1 1 calc R . . . .
Cl3 Cl 0.5939(8) 0.7502(6) 0.941(3) 0.187(9) Uani 0.63(2) 1 d D . P B 2
C11 C 0.4635(5) 0.5563(5) 0.7997(11) 0.017(2) Uani 1 1 d . . . . .
C1 C 0.3858(6) 0.4312(5) 0.3352(11) 0.021(3) Uani 1 1 d . U . . .
H1 H 0.3919 0.4312 0.4274 0.025 Uiso 1 1 calc R . . . .
C9 C 0.5694(6) 0.6180(5) 0.8355(12) 0.023(3) Uani 1 1 d . . . . .
H9 H 0.5694 0.6135 0.9284 0.027 Uiso 1 1 calc R . . . .
C14 C 0.3300(6) 0.4919(7) 0.6305(15) 0.036(4) Uani 1 1 d . . . . .
H14A H 0.3357 0.5294 0.6189 0.054 Uiso 1 1 calc GR . . . .
H14B H 0.2912 0.4663 0.6550 0.054 Uiso 1 1 calc GR . . . .
H14C H 0.3386 0.4794 0.5477 0.054 Uiso 1 1 calc GR . . . .
Cl4 Cl 0.5272(8) 0.7922(7) 1.011(3) 0.187(9) Uani 0.63(2) 1 d D . P B 2
C7 C 0.4908(7) 0.6656(8) 0.3154(18) 0.048(4) Uani 1 1 d . . . . .
H7A H 0.4542 0.6594 0.2883 0.072 Uiso 1 1 calc GR . . . .
H7B H 0.5179 0.7056 0.3132 0.072 Uiso 1 1 calc GR . . . .
H7C H 0.4884 0.6516 0.4053 0.072 Uiso 1 1 calc GR . . . .
C15 C 0.5315(9) 0.4910(10) 0.067(4) 0.066(10) Uani 0.737(16) 1 d . . P A 1
H15A H 0.5137 0.5142 0.0594 0.079 Uiso 0.737(16) 1 calc R . P A 1
H15B H 0.5660 0.5091 0.0131 0.079 Uiso 0.737(16) 1 calc R . P A 1
C16 C 0.5970(14) 0.8116(14) 0.984(9) 0.187(9) Uani 0.63(2) 1 d D . P B 2
H16A H 0.6135 0.8395 0.9129 0.224 Uiso 0.63(2) 1 calc R . P B 2
H16B H 0.6193 0.8272 1.0658 0.224 Uiso 0.63(2) 1 calc R . P B 2
loop_
_atom_site_aniso_label
_atom_site_aniso_U_11
_atom_site_aniso_U_22
_atom_site_aniso_U_33
_atom_site_aniso_U_23
_atom_site_aniso_U_13
_atom_site_aniso_U_12
Zn01 0.0167(7) 0.0174(7) 0.0071(7) -0.0010(5) 0.0000(5) 0.0080(6)
Zn02 0.0173(7) 0.0175(7) 0.0072(7) -0.0007(5) 0.0004(5) 0.0071(6)
Cl2 0.070(6) 0.041(4) 0.175(11) 0.041(5) -0.015(6) 0.016(4)
O4 0.023(5) 0.026(5) 0.013(4) 0.004(3) 0.003(3) 0.011(4)
O1 0.027(5) 0.019(4) 0.016(4) -0.006(4) -0.006(4) 0.010(4)
Cl1 0.047(5) 0.034(4) 0.268(16) -0.048(6) 0.033(7) 0.001(3)
O2 0.019(4) 0.027(5) 0.014(4) -0.006(4) 0.001(3) 0.011(4)
O3 0.039(6) 0.025(5) 0.016(5) -0.005(4) -0.011(4) 0.002(4)
O5 0.030(5) 0.017(4) 0.016(4) -0.001(3) 0.002(3) 0.012(4)
N4 0.021(5) 0.016(5) 0.009(5) -0.001(4) 0.001(4) 0.008(4)
N6 0.021(5) 0.021(6) 0.013(5) 0.005(4) 0.002(4) 0.009(5)
N2 0.024(6) 0.018(5) 0.011(5) -0.003(4) -0.002(4) 0.009(5)
C3 0.018(6) 0.013(5) 0.013(5) -0.002(4) -0.004(4) 0.008(5)
O6 0.027(5) 0.044(6) 0.010(5) 0.001(4) 0.004(4) -0.008(5)
N3 0.022(6) 0.014(5) 0.016(5) -0.004(4) 0.002(4) 0.004(5)
N5 0.015(5) 0.025(6) 0.006(4) -0.003(4) 0.000(4) 0.004(4)
C10 0.022(6) 0.016(6) 0.012(6) 0.001(4) 0.006(5) 0.006(5)
C6 0.027(7) 0.014(6) 0.012(6) 0.004(5) -0.002(5) 0.009(5)
C5 0.017(6) 0.013(6) 0.028(7) -0.001(5) 0.003(5) 0.006(5)
N1 0.024(6) 0.030(6) 0.009(5) 0.008(4) 0.002(4) 0.018(5)
C13 0.017(6) 0.022(6) 0.007(5) 0.004(4) -0.002(4) 0.006(5)
C4 0.017(6) 0.023(7) 0.009(6) 0.003(5) 0.003(5) 0.007(5)
C2 0.019(6) 0.016(6) 0.013(5) 0.001(4) -0.003(4) 0.004(5)
C12 0.017(6) 0.022(6) 0.014(6) 0.000(5) 0.004(5) 0.011(5)
C8 0.015(6) 0.027(7) 0.015(6) 0.005(5) 0.000(5) 0.011(5)
Cl3 0.128(9) 0.074(7) 0.37(2) 0.030(10) -0.026(12) 0.061(7)
C11 0.016(6) 0.019(6) 0.010(6) 0.000(5) -0.002(4) 0.005(5)
C1 0.031(7) 0.021(6) 0.008(5) 0.000(4) -0.005(5) 0.011(6)
C9 0.027(7) 0.029(7) 0.007(6) 0.005(5) -0.002(5) 0.010(6)
C14 0.020(7) 0.033(8) 0.042(9) 0.017(7) -0.001(6) 0.004(7)
Cl4 0.128(9) 0.074(7) 0.37(2) 0.030(10) -0.026(12) 0.061(7)
C7 0.039(10) 0.045(10) 0.053(11) -0.009(8) -0.006(8) 0.016(8)
C15 0.018(11) 0.027(12) 0.14(3) -0.011(14) 0.025(14) 0.005(10)
C16 0.128(9) 0.074(7) 0.37(2) 0.030(10) -0.026(12) 0.061(7)
loop_
_atom_type_symbol
_atom_type_description
_atom_type_scat_dispersion_real
_atom_type_scat_dispersion_imag
_atom_type_scat_source
C C 0.0033 0.0016 'International Tables Vol C Tables 4.2.6.8 and 6.1.1.4'
H H 0.0000 0.0000 'International Tables Vol C Tables 4.2.6.8 and 6.1.1.4'
Cl Cl 0.1484 0.1585 'International Tables Vol C Tables 4.2.6.8 and 6.1.1.4'
N N 0.0061 0.0033 'International Tables Vol C Tables 4.2.6.8 and 6.1.1.4'
O O 0.0106 0.0060 'International Tables Vol C Tables 4.2.6.8 and 6.1.1.4'
Zn Zn 0.2839 1.4301 'International Tables Vol C Tables 4.2.6.8 and 6.1.1.4'
loop_
_geom_angle_atom_site_label_1
_geom_angle_atom_site_label_2
_geom_angle_atom_site_label_3
_geom_angle
_geom_angle_site_symmetry_1
_geom_angle_site_symmetry_3
_geom_angle_publ_flag
O2 Zn01 O1 105.6(4) 6_565 . ?
N4 Zn01 O1 102.4(4) . . ?
N4 Zn01 O2 112.5(4) . 6_565 ?
N4 Zn01 N5 116.4(4) . 8_654 ?
N5 Zn01 O1 113.2(4) 8_654 . ?
N5 Zn01 O2 106.4(4) 8_654 6_565 ?
O4 Zn02 N1 112.8(4) 1_554 9_554 ?
O5 Zn02 O4 102.3(4) 5_554 1_554 ?
O5 Zn02 N1 107.6(4) 5_554 9_554 ?
N2 Zn02 O4 102.2(4) . 1_554 ?
N2 Zn02 O5 111.8(4) . 5_554 ?
N2 Zn02 N1 118.8(4) . 9_554 ?
C13 O4 Zn02 139.4(8) . 1_556 ?
C6 O1 Zn01 141.0(8) . . ?
C6 O2 Zn01 121.8(8) . 8_654 ?
C13 O5 Zn02 118.3(8) . 9 ?
N5 N4 Zn01 125.7(8) . . ?
C8 N4 Zn01 125.3(8) . . ?
C8 N4 N5 108.6(10) . . ?
C12 N6 H6 119.5 . . ?
C11 N6 H6 119.5 . . ?
C11 N6 C12 121.0(10) . . ?
N1 N2 Zn02 125.8(8) . . ?
C2 N2 Zn02 126.7(8) . . ?
C2 N2 N1 106.9(10) . . ?
C2 C3 C4 129.4(11) . . ?
C2 C3 C1 104.3(10) . . ?
C1 C3 C4 126.2(10) . . ?
C5 N3 H3 118.4 . . ?
C4 N3 H3 118.4 . . ?
C4 N3 C5 123.2(10) . . ?
N4 N5 Zn01 122.4(7) . 6_565 ?
C9 N5 Zn01 130.9(8) . 6_565 ?
C9 N5 N4 106.6(10) . . ?
C8 C10 C11 127.5(11) . . ?
C9 C10 C8 104.0(11) . . ?
C9 C10 C11 128.4(11) . . ?
O1 C6 O2 123.8(12) . . ?
O1 C6 C5 118.7(11) . . ?
O2 C6 C5 117.3(11) . . ?
N3 C5 C6 108.1(10) . . ?
N3 C5 H5 104.8 . . ?
C6 C5 H5 104.8 . . ?
C7 C5 N3 115.1(12) . . ?
C7 C5 C6 117.8(12) . . ?
C7 C5 H5 104.8 . . ?
N2 N1 Zn02 120.5(8) . 5 ?
C1 N1 Zn02 130.2(8) . 5 ?
C1 N1 N2 109.2(10) . . ?
O4 C13 C12 117.0(11) . . ?
O5 C13 O4 123.5(12) . . ?
O5 C13 C12 119.3(10) . . ?
O3 C4 C3 121.3(11) . . ?
O3 C4 N3 123.5(12) . . ?
N3 C4 C3 115.1(10) . . ?
N2 C2 C3 109.5(11) . . ?
N2 C2 H2 125.2 . . ?
C3 C2 H2 125.2 . . ?
N6 C12 C13 108.5(10) . . ?
N6 C12 H12 109.4 . . ?
N6 C12 C14 110.4(10) . . ?
C13 C12 H12 109.4 . . ?
C14 C12 C13 109.6(11) . . ?
C14 C12 H12 109.4 . . ?
N4 C8 C10 109.2(11) . . ?
N4 C8 H8 125.4 . . ?
C10 C8 H8 125.4 . . ?
N6 C11 C10 117.7(10) . . ?
O6 C11 N6 123.9(11) . . ?
O6 C11 C10 118.3(11) . . ?
C3 C1 H1 125.0 . . ?
N1 C1 C3 110.0(10) . . ?
N1 C1 H1 125.0 . . ?
N5 C9 C10 111.6(10) . . ?
N5 C9 H9 124.2 . . ?
C10 C9 H9 124.2 . . ?
C12 C14 H14A 109.5 . . ?
C12 C14 H14B 109.5 . . ?
C12 C14 H14C 109.5 . . ?
H14A C14 H14B 109.5 . . ?
H14A C14 H14C 109.5 . . ?
H14B C14 H14C 109.5 . . ?
C5 C7 H7A 109.5 . . ?
C5 C7 H7B 109.5 . . ?
C5 C7 H7C 109.5 . . ?
H7A C7 H7B 109.5 . . ?
H7A C7 H7C 109.5 . . ?
H7B C7 H7C 109.5 . . ?
Cl2 C15 H15A 108.4 . . ?
Cl2 C15 H15B 108.4 . . ?
Cl1 C15 Cl2 115.5(17) . . ?
Cl1 C15 H15A 108.4 . . ?
Cl1 C15 H15B 108.4 . . ?
H15A C15 H15B 107.5 . . ?
Cl3 C16 Cl4 104(2) . . ?
Cl3 C16 H16A 111.1 . . ?
Cl3 C16 H16B 111.1 . . ?
Cl4 C16 H16A 111.1 . . ?
Cl4 C16 H16B 111.1 . . ?
H16A C16 H16B 109.0 . . ?
loop_
_geom_bond_atom_site_label_1
_geom_bond_atom_site_label_2
_geom_bond_distance
_geom_bond_site_symmetry_2
_geom_bond_publ_flag
Zn01 O1 1.975(8) . ?
Zn01 O2 1.974(9) 6_565 ?
Zn01 N4 1.948(10) . ?
Zn01 N5 1.964(10) 8_654 ?
Zn02 O4 1.976(8) 1_554 ?
Zn02 O5 1.967(8) 5_554 ?
Zn02 N2 1.956(10) . ?
Zn02 N1 1.994(11) 9_554 ?
Cl2 C15 1.76(4) . ?
O4 Zn02 1.976(8) 1_556 ?
O4 C13 1.293(14) . ?
O1 C6 1.263(15) . ?
Cl1 C15 1.76(3) . ?
O2 Zn01 1.974(9) 8_654 ?
O2 C6 1.264(15) . ?
O3 C4 1.208(15) . ?
O5 Zn02 1.967(8) 9 ?
O5 C13 1.266(15) . ?
N4 N5 1.386(14) . ?
N4 C8 1.323(16) . ?
N6 H6 0.8800 . ?
N6 C12 1.465(16) . ?
N6 C11 1.309(16) . ?
N2 N1 1.385(14) . ?
N2 C2 1.345(17) . ?
C3 C4 1.498(17) . ?
C3 C2 1.373(16) . ?
C3 C1 1.412(17) . ?
O6 C11 1.247(15) . ?
N3 H3 0.8800 . ?
N3 C5 1.498(15) . ?
N3 C4 1.345(16) . ?
N5 Zn01 1.964(10) 6_565 ?
N5 C9 1.322(16) . ?
C10 C8 1.403(16) . ?
C10 C11 1.495(17) . ?
C10 C9 1.371(18) . ?
C6 C5 1.517(18) . ?
C5 H5 1.0000 . ?
C5 C7 1.49(2) . ?
N1 Zn02 1.994(11) 5 ?
N1 C1 1.280(17) . ?
C13 C12 1.532(17) . ?
C2 H2 0.9500 . ?
C12 H12 1.0000 . ?
C12 C14 1.512(18) . ?
C8 H8 0.9500 . ?
Cl3 C16 1.72(3) . ?
C1 H1 0.9500 . ?
C9 H9 0.9500 . ?
C14 H14A 0.9800 . ?
C14 H14B 0.9800 . ?
C14 H14C 0.9800 . ?
Cl4 C16 1.75(3) . ?
C7 H7A 0.9800 . ?
C7 H7B 0.9800 . ?
C7 H7C 0.9800 . ?
C15 H15A 0.9900 . ?
C15 H15B 0.9900 . ?
C16 H16A 0.9900 . ?
C16 H16B 0.9900 . ?
