#------------------------------------------------------------------------------
#$Date: 2020-08-22 02:05:12 +0300 (Sat, 22 Aug 2020) $
#$Revision: 255554 $
#$URL: file:///home/coder/svn-repositories/cod/cif/4/13/52/4135200.cif $
#------------------------------------------------------------------------------
#
# This file is available in the Crystallography Open Database (COD),
# http://www.crystallography.net/
#
# All data on this site have been placed in the public domain by the
# contributors.
#
data_4135200
loop_
_publ_author_name
'Yan, Yong'
'Carrington, Elliot J.'
'P\'etuya, R\'emi'
'Whitehead, George F. S.'
'Verma, Ajay'
'Hylton, Rebecca K.'
'Tang, Chiu C.'
'Berry, Neil G.'
'Darling, George R.'
'Dyer, Matthew S.'
'Antypov, Dmytro'
'Katsoulidis, Alexandros P.'
'Rosseinsky, Matthew J.'
_publ_section_title
;
 Amino Acid Residues Determine the Response of Flexible Metal-Organic
 Frameworks to Guests.
;
_journal_name_full               'Journal of the American Chemical Society'
_journal_paper_doi               10.1021/jacs.0c03853
_journal_year                    2020
_chemical_formula_moiety         'C6 H5 N3 O3 Zn, 0.6(C8 H10)'
_chemical_formula_sum            'C10.82 H11.03 N3 O3 Zn'
_chemical_formula_weight         296.47
_space_group_crystal_system      trigonal
_space_group_IT_number           161
_space_group_name_Hall           'R 3 -2"c'
_space_group_name_H-M_alt        'R 3 c :H'
_atom_sites_solution_hydrogens   geom
_atom_sites_solution_primary     direct
_audit_creation_date             2018-06-20
_audit_creation_method
;
Olex2 1.2
(compiled 2018.05.29 svn.r3508 for OlexSys, GUI svn.r5506)
;
_cell_angle_alpha                90
_cell_angle_beta                 90
_cell_angle_gamma                120
_cell_formula_units_Z            18
_cell_length_a                   26.4227(7)
_cell_length_b                   26.4227(7)
_cell_length_c                   10.1231(2)
_cell_measurement_reflns_used    8936
_cell_measurement_temperature    100
_cell_measurement_theta_max      24.9660
_cell_measurement_theta_min      2.6410
_cell_volume                     6120.7(3)
_computing_cell_refinement       'CrysAlisPro 1.171.38.46 (Rigaku OD, 2015)'
_computing_data_collection       'CrysAlisPro 1.171.38.46 (Rigaku OD, 2015)'
_computing_data_reduction        'CrysAlisPro 1.171.38.46 (Rigaku OD, 2015)'
_computing_molecular_graphics    'Olex2 (Dolomanov et al., 2009)'
_computing_publication_material  'Olex2 (Dolomanov et al., 2009)'
_computing_structure_refinement  'ShelXL (Sheldrick, 2015)'
_computing_structure_solution    'ShelXS (Sheldrick, 2008)'
_diffrn_ambient_temperature      100
_diffrn_detector                 'CCD plate'
_diffrn_measured_fraction_theta_full 0.999
_diffrn_measured_fraction_theta_max 0.999
_diffrn_measurement_details
;
List of Runs (angles in degrees, time in seconds):

  # Type    Start    End  Width  t~exp~   \w     \q     \k     \f   Frames
--------------------------------------------------------------------------
  1  \w   -110.00  15.00   1.00   20.00    --  -20.00 -68.00   0.00  125
  2  \w   -110.00  15.00   1.00   20.00    --  -20.00 -68.00 120.00  125
  3  \w   -110.00  15.00   1.00   20.00    --  -20.00 -68.00 240.00  125
  4  \w   -110.00  15.00   1.00   20.00    --  -20.00 -30.00  90.00  125
;
_diffrn_measurement_device
'Rigaku Mo Rotating Anode Source With Saturn Detector'
_diffrn_measurement_device_type
'Rigaku Mo Rotating Anode Source With Saturn Detector'
_diffrn_measurement_method       '\w scans'
_diffrn_orient_matrix_type
'CrysAlisPro convention (1999,Acta A55,543-557)'
_diffrn_orient_matrix_UB_11      -0.0046220000
_diffrn_orient_matrix_UB_12      0.0242366000
_diffrn_orient_matrix_UB_13      -0.0010832000
_diffrn_orient_matrix_UB_21      0.0288609000
_diffrn_orient_matrix_UB_22      0.0183277000
_diffrn_orient_matrix_UB_23      0.0234044000
_diffrn_orient_matrix_UB_31      0.0103059000
_diffrn_orient_matrix_UB_32      0.0061177000
_diffrn_orient_matrix_UB_33      -0.0660266000
_diffrn_radiation_monochromator  graphite
_diffrn_radiation_probe          x-ray
_diffrn_radiation_type           MoK\a
_diffrn_radiation_wavelength     0.71073
_diffrn_reflns_av_R_equivalents  0.0579
_diffrn_reflns_av_unetI/netI     0.0309
_diffrn_reflns_Laue_measured_fraction_full 0.999
_diffrn_reflns_Laue_measured_fraction_max 0.999
_diffrn_reflns_limit_h_max       30
_diffrn_reflns_limit_h_min       -31
_diffrn_reflns_limit_k_max       31
_diffrn_reflns_limit_k_min       -31
_diffrn_reflns_limit_l_max       12
_diffrn_reflns_limit_l_min       -10
_diffrn_reflns_number            20223
_diffrn_reflns_point_group_measured_fraction_full 0.950
_diffrn_reflns_point_group_measured_fraction_max 0.950
_diffrn_reflns_theta_full        25.016
_diffrn_reflns_theta_max         25.016
_diffrn_reflns_theta_min         2.670
_diffrn_source                   'fine-focus sealed X-ray tube'
_diffrn_source_type              'Enhance (Mo) X-ray Source'
_exptl_absorpt_coefficient_mu    1.808
_exptl_absorpt_correction_T_max  1.00000
_exptl_absorpt_correction_T_min  0.75329
_exptl_absorpt_correction_type   multi-scan
_exptl_absorpt_process_details
;
CrysAlisPro 1.171.38.46 (Rigaku Oxford Diffraction, 2015)
Empirical absorption correction using spherical harmonics,
 implemented in SCALE3 ABSPACK scaling algorithm.
;
_exptl_crystal_colour            white
_exptl_crystal_colour_primary    white
_exptl_crystal_density_diffrn    1.448
_exptl_crystal_description       block
_exptl_crystal_F_000             2717
_exptl_crystal_preparation       'Solvent Exchanged in ortho-xylene'
_exptl_crystal_size_max          0.25
_exptl_crystal_size_mid          0.025
_exptl_crystal_size_min          0.02
_refine_diff_density_max         1.288
_refine_diff_density_min         -0.423
_refine_diff_density_rms         0.147
_refine_ls_abs_structure_details
;
 Flack x determined using 949 quotients [(I+)-(I-)]/[(I+)+(I-)]
 (Parsons, Flack and Wagner, Acta Cryst. B69 (2013) 249-259).
;
_refine_ls_abs_structure_Flack   0.022(13)
_refine_ls_extinction_method     none
_refine_ls_goodness_of_fit_ref   1.083
_refine_ls_hydrogen_treatment    constr
_refine_ls_matrix_type           full
_refine_ls_number_parameters     139
_refine_ls_number_reflns         2284
_refine_ls_number_restraints     45
_refine_ls_restrained_S_all      1.076
_refine_ls_R_factor_all          0.0617
_refine_ls_R_factor_gt           0.0585
_refine_ls_shift/su_max          0.001
_refine_ls_shift/su_mean         0.000
_refine_ls_structure_factor_coef Fsqd
_refine_ls_weighting_details
'w=1/[\s^2^(Fo^2^)+(0.1216P)^2^+16.3712P] where P=(Fo^2^+2Fc^2^)/3'
_refine_ls_weighting_scheme      calc
_refine_ls_wR_factor_gt          0.1565
_refine_ls_wR_factor_ref         0.1596
_reflns_Friedel_coverage         0.889
_reflns_Friedel_fraction_full    0.900
_reflns_Friedel_fraction_max     0.900
_reflns_number_gt                2156
_reflns_number_total             2284
_reflns_threshold_expression     'I > 2\s(I)'
_cod_data_source_file            ZnGlyPyr_O-xylene_100K.cif
_cod_data_source_block           ZnGlyPyr_O-xylene_100K
_cod_original_cell_volume        6120.7(4)
_cod_original_sg_symbol_H-M      'R 3 c'
_cod_database_code               4135200
_shelx_shelxl_version_number     2014/7
_chemical_oxdiff_formula         'C6 H5 N3 O3 Zn'
_shelx_space_group_comment
;
The symmetry employed for this shelxl refinement is uniquely defined
by the following loop, which should always be used as a source of
symmetry information in preference to the above space-group names.
They are only intended as comments.
;
_reflns_odcompleteness_completeness 99.92
_reflns_odcompleteness_iscentric 1
_reflns_odcompleteness_theta     24.96
_olex2_refinement_description
;
1. Fixed Uiso
 At 1.2 times of:
  All C(H) groups, All C(H,H) groups, All N(H) groups
 At 1.5 times of:
  All C(H,H,H) groups
2. Restrained distances
 C13-C7
 1.5 with sigma of 0.02
 C8-C14
 1.5 with sigma of 0.02
 C14-C9 \\sim C14-C7
 with sigma of 0.02
3. Restrained planarity
 C14, C8, C7, C13, C9, C12
 with sigma of 0.1
4. Rigid bond restraints
 N1, N2, C2, C1, C3
 with sigma for 1-2 distances of 0.01 and sigma for 1-3 distances of 0.01
 O3, C4
 with sigma for 1-2 distances of 0.01 and sigma for 1-3 distances of 0.01
5. Uiso/Uaniso restraints and constraints
N1 \\sim N2 \\sim C2 \\sim C1 \\sim C3: within 2A with sigma of 0.04 and sigma
for terminal atoms of 0.08
O3 \\sim C4: within 2A with sigma of 0.04 and sigma for terminal atoms of 0.08
C14 \\sim C8 \\sim C7 \\sim C13 \\sim C12 \\sim C11 \\sim C10 \\sim C9: within
2A with sigma of 0.04 and sigma for terminal atoms of 0.08
6. Others
 Sof(C9)=Sof(H9)=Sof(C8)=Sof(C7)=Sof(C12)=Sof(H12)=Sof(C11)=Sof(H11)=Sof(C10)=
 Sof(H10)=Sof(C14)=Sof(H14A)=Sof(H14B)=Sof(H14C)=Sof(C13)=Sof(H13A)=Sof(H13B)=
 Sof(H13C)=FVAR(1)
7.a Secondary CH2 refined with riding coordinates:
 C5(H5A,H5B)
7.b Me refined with riding coordinates:
 C14(H14A,H14B,H14C), C13(H13A,H13B,H13C)
7.c Aromatic/amide H refined with riding coordinates:
 N3(H3), C1(H1), C3(H3A), C9(H9), C12(H12), C11(H11), C10(H10)
7.d Fitted hexagon refined as free rotating group:
 C9(C8,C7,C12,C11,C10)
;
_shelx_res_file
;
    yy_zn_gly_pyz_o-xylene.res created by SHELXL-2014/7

TITL YY_Zn_Gly_Pyz_O-xylene in R3c #161
REM reset to R3c #161
CELL 0.71073 26.4227 26.4227 10.123104 90 90 120
ZERR 18 0.000713 0.000713 0.000241 0 0 0
LATT -3
SYMM -Y,+X-Y,+Z
SYMM +Y-X,-X,+Z
SYMM +Y-X,+Y,0.5+Z
SYMM +X,+X-Y,0.5+Z
SYMM -Y,-X,0.5+Z
SFAC C H N O Zn
UNIT 194.77 198.47 54 54 18
DFIX 1.5 C13 C7
DFIX 1.5 C8 C14
SADI C14 C9 C14 C7
FLAT C14 C8 C7 C13 C9 C12
DELU N1 N2 C2 C1 C3
DELU O3 C4
SIMU N1 N2 C2 C1 C3
SIMU O3 C4
SIMU C14 C8 C7 C13 C12 C11 C10 C9

L.S. 16
PLAN  20
TEMP -173.15
BOND
fmap 2
acta
REM <olex2.extras>
REM <HklSrc "%.\\YY_Zn_Gly_Pyz_O-xylene.hkl">
REM </olex2.extras>

WGHT    0.121600   16.371199
FVAR       0.81904   0.60390
ZN1   5   -0.656604   -1.018537    0.290526    11.00000    0.02537    0.02393 =
         0.00901   -0.00019    0.00036    0.01193
O2    4   -0.651297   -1.067840    0.428324    11.00000    0.02624    0.03158 =
         0.01532    0.00183    0.00021    0.01415
N1    3   -0.685294   -1.071399    0.138013    11.00000    0.03108    0.02504 =
         0.00954   -0.00188    0.00048    0.01297
N3    3   -0.792962   -1.253696    0.066215    11.00000    0.02581    0.02641 =
         0.01116   -0.00099   -0.00209    0.01073
AFIX  43
H3    2   -0.781670   -1.245145    0.148967    11.00000   -1.20000
AFIX   0
O3    4   -0.777247   -1.224905   -0.146495    11.00000    0.04074    0.02799 =
         0.01054    0.00025   -0.00393    0.01027
N2    3   -0.704186   -0.983522    0.344680    11.00000    0.03496    0.03113 =
         0.01100    0.00143    0.00042    0.02111
O1    4   -0.575902   -0.954684    0.267274    11.00000    0.02475    0.02473 =
         0.01465    0.00448   -0.00391    0.00892
C2    1   -0.731831   -1.151905    0.014618    11.00000    0.02324    0.02416 =
         0.02246   -0.00169   -0.00365    0.01291
C4    1   -0.768275   -1.212352   -0.029334    11.00000    0.01796    0.02696 =
         0.01416   -0.00227   -0.00316    0.01064
C5    1   -0.837724   -1.311531    0.030429    11.00000    0.02570    0.01994 =
         0.01361   -0.00004    0.00001    0.00636
AFIX  23
H5A   2   -0.839788   -1.339566    0.098066    11.00000   -1.20000
H5B   2   -0.827495   -1.322387   -0.054964    11.00000   -1.20000
AFIX   0
C1    1   -0.714549   -1.128784    0.142049    11.00000    0.03008    0.03024 =
         0.00642    0.00347    0.00271    0.01541
AFIX  43
H1    2   -0.722833   -1.151434    0.220295    11.00000   -1.20000
AFIX   0
C6    1   -0.896394   -1.315803    0.018656    11.00000    0.02912    0.01702 =
         0.01159    0.00781   -0.00166    0.00936
C3    1   -0.710325   -1.102659   -0.062950    11.00000    0.02740    0.02504 =
         0.01866   -0.00770   -0.00951    0.00890
AFIX  43
H3A   2   -0.714149   -1.102966   -0.156302    11.00000   -1.20000
AFIX  66

C9    1   -0.595140   -1.141228    0.138217    21.00000    0.12752
AFIX  43
H9    2   -0.588129   -1.127210    0.226550    21.00000   -1.20000
AFIX  65
C8    1   -0.572954   -1.102047    0.033507    21.00000    0.12020
C7    1   -0.583211   -1.122558   -0.095738    21.00000    0.09348
C12   1   -0.615655   -1.182249   -0.120274    21.00000    0.16121
AFIX  43
H12   2   -0.622666   -1.196267   -0.208608    21.00000   -1.20000
AFIX  65
C11   1   -0.637842   -1.221430   -0.015566    21.00000    0.14454
AFIX  43
H11   2   -0.660016   -1.262226   -0.032337    21.00000   -1.20000
AFIX  65
C10   1   -0.627585   -1.200920    0.113679    21.00000    0.15018
AFIX  43
H10   2   -0.642749   -1.227699    0.185243    21.00000   -1.20000
AFIX   0
C14   1   -0.536947   -1.038170    0.057326    21.00000    0.17588
AFIX  33
H14A  2   -0.525269   -1.017591   -0.027497    21.00000   -1.50000
H14B  2   -0.559820   -1.024810    0.107420    21.00000   -1.50000
H14C  2   -0.501996   -1.029964    0.107769    21.00000   -1.50000
AFIX   0
C13   1   -0.551294   -1.075721   -0.201103    21.00000    0.13659
AFIX  33
H13A  2   -0.560916   -1.093838   -0.288810    21.00000   -1.50000
H13B  2   -0.563472   -1.046320   -0.195342    21.00000   -1.50000
H13C  2   -0.509033   -1.056978   -0.186707    21.00000   -1.50000
AFIX   0
HKLF 4

REM  YY_Zn_Gly_Pyz_O-xylene in R3c #161
REM R1 =  0.0585 for    2156 Fo > 4sig(Fo)  and  0.0617 for all    2284 data
REM    139 parameters refined using     45 restraints

END

WGHT      0.1217     16.2205

REM Highest difference peak  1.288,  deepest hole -0.423,  1-sigma level  0.147
Q1    1  -0.6874 -1.0497  0.2938  11.00000  0.05    0.91
Q2    1  -0.5373 -1.0912 -0.3159  11.00000  0.05    0.90
Q3    1  -0.6830 -1.0144  0.2958  11.00000  0.05    0.87
Q4    1  -0.6026 -1.1768  0.2218  11.00000  0.05    0.83
Q5    1  -0.6334 -0.9785  0.2796  11.00000  0.05    0.79
Q6    1  -0.6187 -0.9909  0.2974  11.00000  0.05    0.71
Q7    1  -0.6093 -1.1610 -0.0089  11.00000  0.05    0.66
Q8    1  -0.6247 -1.2287 -0.1724  11.00000  0.05    0.59
Q9    1  -0.5527 -1.0573 -0.1180  11.00000  0.05    0.47
Q10   1  -0.8106 -1.2153  0.2048  11.00000  0.05    0.46
Q11   1  -0.8022 -1.2533 -0.1351  11.00000  0.05    0.44
Q12   1  -0.7778 -1.1891 -0.1325  11.00000  0.05    0.42
Q13   1  -0.5479 -1.0526 -0.0033  11.00000  0.05    0.42
Q14   1  -0.5457 -1.0510 -0.1774  11.00000  0.05    0.41
Q15   1  -0.5215 -0.9347  0.3406  11.00000  0.05    0.37
Q16   1  -0.8520 -1.2857  0.0339  11.00000  0.05    0.36
Q17   1  -0.6383 -1.2147  0.0626  11.00000  0.05    0.34
Q18   1  -0.6983 -1.1952 -0.0837  11.00000  0.05    0.34
Q19   1  -0.7636 -1.2759  0.2227  11.00000  0.05    0.32
Q20   1  -0.5248 -1.0160 -0.1717  11.00000  0.05    0.32
;
_shelx_res_checksum              321
_shelx_hkl_file
;
   0   0   3-209.226 196.326   1
   0   0   3-60.7297 266.482   3
   0   0   6 129972. 1511.42   4
   0   0   6 127496. 2358.68   3
   0   0   6 132913. 1882.16   1
   0   0   9-349.516 510.659   3
   0   0   9 152.208 342.791   1
   0   0   9-63.2710 234.281   4
   0   0  12 24674.9 1616.17   3
   0   1  -1-34.1127 104.839   1
  -1   0  -1 85.4752 120.247   3
   1  -1  -1-0.44446 96.7138   3
  -1   0  -1 127.063 80.3526   4
   1  -1   2 29102.0 536.073   1
   0   1   2 28655.8 414.096   1
   0   1   2 30013.8 684.570   3
  -1   0   2 27301.0 610.502   3
   1  -1   2 29333.2 385.063   4
   1  -1   5 148.273 165.501   4
   0   1   5-191.010 246.106   1
  -1   0   5 25.9983 334.424   3
   1  -1   5-57.8786 242.993   1
   0   1   5 33.7653 193.741   4
   0   1   5 60.5042 338.646   3
  -1   0   5-369.931 284.689   1
   1  -1   5-79.5821 336.358   3
   0   1   8 1776.08 313.388   4
   0   1   8 1735.83 495.721   3
   0   1   8 1697.93 374.281   1
  -1   0   8 1397.77 251.538   4
   1  -1   8 962.619 455.633   3
  -1   0   8 1590.13 507.539   3
   1  -1   8 1679.48 362.999   1
  -1   0   8 1550.30 257.786   4
   1  -1   8 1377.77 238.244   4
  -1   0   8 1613.15 411.687   1
   1  -1  11 76.9678 567.869   3
  -1   0  11 211.560 553.322   3
   1  -1  11-198.356 427.072   1
   0   1  11 577.590 402.208   1
  -1   0  11 188.056 413.668   1
   0   1  11-777.399 580.654   3
   0  -1  -2 30987.3 696.907   3
  -1   1  -2 28980.7 543.603   1
   0  -1   1-61.5777 108.979   1
  -1   1   1-45.3912 97.8108   3
   1   0   1-25.8148 79.5529   4
   1   0   1-99.5990 129.527   3
   1   0   1-18.7469 107.006   2
   1   0   4 6932.75 336.523   4
  -1   1   4 7637.69 405.168   1
   0  -1   4 6576.45 534.743   3
  -1   1   4 7409.78 521.190   3
   1   0   4 7000.38 376.851   1
   0  -1   4 6935.98 430.000   1
   0  -1   4 7009.52 263.672   4
   1   0   4 6909.39 564.053   3
   1   0   7-65.5374 257.657   1
   0  -1   7 189.675 380.118   3
   1   0   7-225.508 414.302   3
  -1   1   7 171.421 423.900   3
   0  -1   7-88.2000 175.959   4
  -1   1   7 58.7529 213.037   4
   1   0   7 33.0463 209.600   4
   0  -1   7-178.036 300.339   1
  -1   1   7-158.916 300.684   1
   0  -1  10 555.282 398.798   1
   1   0  10 409.023 545.950   3
  -1   1  10 789.330 400.503   1
   0  -1  10 912.489 205.985   4
  -1   1  10 593.488 534.073   3
   1   0  10 776.281 376.804   1
  -1   1  10 623.677 242.763   4
   0  -1  10 807.406 610.097   3
   0   2  -2 38052.7 762.361   1
  -2   0  -2 39069.8 497.116   1
   2  -2  -2 38918.0 724.177   3
  -2   0  -2 37454.7 619.756   4
  -2   0   1 141.406 130.569   2
   2  -2   1-115.742 90.0968   4
   2  -2   1-41.5666 134.176   1
  -2   0   1 165.428 99.3250   4
   2  -2   1 143.224 96.6189   2
   0   2   1 59.8440 129.164   3
   2  -2   4 12166.2 512.665   1
   0   2   4 13206.9 674.737   3
   2  -2   4 12954.2 717.396   3
  -2   0   4 12812.0 376.173   4
   2  -2   4 12089.7 370.050   4
  -2   0   4 12622.5 566.333   1
  -2   0   4 11999.8 619.599   3
   0   2   4 12398.4 410.555   1
   2  -2   7 257.379 297.121   1
   0   2   7-245.629 387.946   3
   2  -2   7-29.2644 179.329   4
   0   2   7 152.537 248.756   1
  -2   0   7-158.761 367.383   3
  -2   0   7 71.4690 182.967   4
  -2   0   7 120.024 186.629   4
   0   2   7-94.5209 234.483   4
  -2   0   7 77.8115 319.797   1
   2  -2   7-174.638 415.636   3
   2  -2  10 4291.90 538.082   1
   2  -2  10 3142.35 282.221   4
   0   2  10 4765.97 739.194   3
  -2   0  10 3706.79 587.459   1
   0   2  10 4692.03 514.297   1
   2  -2  10 5067.10 840.674   3
  -2   0  10 3859.16 726.486   3
  -2   0  10 3153.15 302.874   4
  -1  -1  -3 124204. 1743.82   3
  -1   2  -3 113392. 1410.65   1
  -2   1  -3 114365. 1217.87   1
  -2   1  -3 114713. 1053.28   4
   1  -2  -3 122738. 1641.83   3
   2  -1   3 110170. 1163.93   1
   2  -1   3 111747. 1381.74   2
   2  -1   3 112576. 1656.18   3
   1   1   3 111967. 939.771   1
   1  -2   3 107347. 1386.60   1
   1   1   3 114929. 1656.86   3
   1   1   3 110561. 1211.56   4
   2  -1   3 110858. 1071.85   4
  -1   2   3 116302. 1552.20   3
  -1  -1   3 111156. 769.635   4
  -2   1   3 112902. 1473.44   3
  -1  -1   3 108522. 1414.34   1
   1  -2   6 37322.2 701.278   4
   2  -1   6 37884.8 985.085   1
  -1  -1   6 38381.6 1139.24   1
  -2   1   6 41026.6 1319.07   3
   2  -1   6 37458.1 1372.49   3
   1   1   6 38020.8 1346.53   3
   1  -2   6 38006.3 1092.76   1
   1   1   6 39228.6 901.997   1
  -1   2   6 38857.4 964.066   4
  -2   1   6 38056.9 1091.75   1
  -1  -1   6 39177.0 695.280   4
   1  -2   6 38643.1 1407.80   3
   1   1   6 37904.3 943.411   4
  -1  -1   6 36936.9 706.448   4
  -1   2   6 39055.7 1297.80   3
  -1  -1   6 38509.7 1331.61   3
   2  -1   6 38621.7 855.930   4
  -1   2   6 39075.2 965.163   1
   1  -2   9 27396.8 1520.36   3
  -1   2   9 29857.4 1434.89   3
  -1  -1   9 26319.2 668.149   4
  -2   1   9 27436.6 1389.93   3
   1  -2   9 28538.5 1141.84   1
   1  -2   9 25138.1 664.093   4
   1   1   9 27379.7 937.827   4
   1   1   9 28710.3 1479.24   3
  -1   2   9 25500.4 910.713   4
  -2   1   9 27858.5 837.603   4
  -2   1   9 28206.6 1168.10   1
  -2   1   9 25732.4 829.460   4
  -1  -1   9 24448.1 655.051   4
   1  -2   9 25557.3 630.456   4
   2  -1   9 28247.4 1492.65   3
  -1  -1   9 30107.6 1497.49   3
   2  -1   9 27879.4 1057.22   1
   2  -1   9 27120.7 839.397   4
  -1  -1   9 28790.0 1192.76   1
   1   1   9 28873.0 983.779   1
  -1   2   9 29288.7 1047.77   1
  -2   1  12 5498.69 855.069   2
  -2   1  12 5805.76 870.478   3
  -1  -1  12 5144.31 932.458   3
   2  -1  12 4999.05 926.616   3
   1  -2  12 4730.21 899.643   3
  -1  -1  12 5152.51 847.997   2
   1   1  12 5249.52 916.876   3
  -1   2  12 5891.56 886.941   3
  -2   2  -4 12374.1 549.205   1
   0  -2  -4 13695.9 703.253   3
   2   0  -1-41.3800 86.9323   4
   2   0  -1-61.0260 124.428   2
  -2   2  -1 17.7904 85.2337   2
  -2   2  -1 7.58819 121.663   1
  -2   2  -1-0.51196 80.0098   4
   0  -2  -1-56.9681 127.647   3
   2   0   2 35517.0 811.239   3
   2   0   2 33837.2 603.429   4
   2   0   2 35598.2 719.765   2
   2   0   2 35121.9 449.402   1
   0  -2   2 33611.7 723.468   1
  -2   2   2 35147.9 672.359   3
   2   0   5 96.1060 364.439   3
   0  -2   5-60.4011 355.972   3
   2   0   5 29.8966 214.647   4
   0  -2   5-20.4855 104.232   4
  -2   2   5 51.2865 342.031   3
  -2   2   5 49.1836 263.729   1
   2   0   5-58.7440 213.412   1
   0  -2   5 394.527 307.452   1
  -2   2   8 8473.68 543.710   4
   0  -2   8 7640.24 341.895   4
  -2   2   8 9314.74 819.199   3
   0  -2   8 9087.65 857.498   3
  -2   2   8 8487.37 634.266   1
   0  -2   8 8167.58 338.471   4
   2   0   8 9587.21 578.389   1
   2   0   8 8884.17 826.284   3
   0  -2   8 9081.41 685.633   1
   2   0   8 8839.54 529.509   4
   2   0  11 723.595 569.738   3
   0  -2  11 104.813 595.500   3
  -2   2  11 373.348 392.370   1
  -2   2  11 131.772 526.974   3
   0  -2  11 543.901 438.317   1
   0   3  -3 74.6060 243.514   1
   3  -3  -3 421.412 249.626   3
  -3   0  -3 111.818 204.528   4
  -3   0  -3-130.161 284.408   3
  -3   0  -3 178.757 164.861   1
   0   3   0 121919. 832.746   2
   0   3   0 124185. 1045.21   1
  -3   0   0 127889. 1005.88   2
   0   3   0 128078. 940.106   3
   3  -3   0 127461. 801.989   3
   3  -3   0 127120. 1023.96   4
   3  -3   0 125878. 954.710   2
  -3   0   0 126180. 1065.55   4
   3  -3   0 125688. 1036.44   1
   0   3   3-132.498 269.159   3
   3  -3   3-38.6586 178.876   2
  -3   0   3-61.1017 238.822   2
   3  -3   3 128.083 138.520   4
  -3   0   3-121.640 126.026   4
   3  -3   3-30.9019 232.384   1
  -3   0   6 99044.1 1205.78   4
   0   3   6 94164.9 1651.27   4
   3  -3   6 98115.7 1723.08   1
   0   3   6 99042.7 2073.14   3
  -3   0   6 97682.0 1885.64   1
   0   3   6 96471.3 1266.96   1
  -3   0   6 96628.7 2005.50   3
   3  -3   6 96612.2 2267.92   3
   3  -3   6 99542.7 1205.15   4
   3  -3   6 99038.0 1812.85   2
  -3   0   9 203.989 206.721   4
   3  -3   9 10.4881 377.040   1
  -3   0   9 167.588 390.833   1
   0   3   9 227.024 282.044   1
   0   3   9 228.605 488.807   3
   3  -3   9-285.717 495.859   3
  -3   0   9-206.415 516.044   3
  -3   0   9-242.038 217.076   4
   0   3   9-179.985 306.347   4
   3  -3   9 19.7716 177.727   4
   2  -3  -4 1388.77 343.394   3
  -1   3  -4 1223.50 309.828   1
  -2  -1  -4 1155.26 359.925   3
  -3   1  -4 1380.08 245.273   1
  -3   1  -1 15690.1 344.689   1
  -3   1  -1 15782.1 381.041   2
  -1   3  -1 15771.7 468.830   1
   3  -2  -1 16259.4 396.253   4
   3  -2  -1 15984.0 443.910   2
   2  -3  -1 15921.9 366.180   3
  -2  -1  -1 15074.0 426.290   3
   1   2  -1 14947.2 461.844   1
   2  -3  -1 16288.4 324.460   1
  -3   1  -1 16311.8 394.538   4
   1   2  -1 16521.3 292.659   2
  -2  -1  -1 15952.6 414.421   4
  -3   1  -1 15063.5 443.323   3
   3  -2   2 27835.3 572.688   1
   2  -3   2 28745.4 671.075   1
  -3   1   2 26494.0 570.363   3
  -1   3   2 30923.8 385.293   1
  -1   3   2 30756.7 671.705   3
  -3   1   2 29669.9 681.940   2
  -2  -1   2 29123.9 404.735   4
  -2  -1   2 29608.0 600.958   2
   3  -2   2 29381.4 598.707   2
   2  -3   2 29641.5 494.209   2
  -3   1   2 29780.7 525.446   4
   1   2   2 30166.0 724.118   3
   3  -2   2 29392.2 513.720   4
   1   2   2 29182.9 646.414   4
   1   2   5 187.336 233.938   4
  -2  -1   5 517.305 372.424   3
   3  -2   5 562.291 296.501   2
   2  -3   5 234.353 121.883   4
   2  -3   5 516.024 312.059   1
   1   2   5 178.666 358.782   3
  -2  -1   5 552.067 149.915   4
   2  -3   5 426.415 377.036   3
   3  -2   5 439.092 189.011   4
  -1   3   5 464.824 221.915   1
  -3   1   5 250.463 173.174   4
   3  -2   5 388.995 366.538   3
  -2  -1   5 475.818 293.221   1
  -1   3   5 476.411 335.639   3
  -3   1   5 654.868 293.673   1
   3  -2   5 236.359 242.039   1
  -3   1   5 418.925 339.535   3
   1   2   5 658.045 204.984   1
  -2  -1   8 250.881 461.640   3
  -3   1   8 861.754 251.293   4
   1   2   8 634.987 277.204   1
  -1   3   8 671.127 328.628   4
   2  -3   8 552.277 352.196   1
  -3   1   8 354.443 382.155   1
   1   2   8 846.910 314.251   4
  -2  -1   8 571.837 175.000   4
  -3   1   8 448.436 466.121   3
   2  -3   8 163.868 469.354   3
  -2  -1   8 233.259 151.791   4
   3  -2   8 483.150 458.905   3
   1   2   8 204.636 450.709   3
  -1   3   8 396.115 422.166   3
   3  -2   8 557.213 352.325   1
   3  -2   8 447.152 237.976   4
  -2  -1   8 650.515 375.311   1
   2  -3   8 337.406 145.475   4
  -3   1   8 153.244 223.561   4
  -1   3   8 523.041 282.098   1
  -2  -1  11 484.756 482.621   1
  -3   1  11 614.057 506.979   2
  -1   3  11-475.749 557.165   3
  -2  -1  11 147.186 481.448   2
   1   2  11-805.380 543.770   3
  -3   1  11-387.792 547.201   3
   2  -3  11-775.147 489.417   1
   3  -2  11 416.457 428.352   1
  -2  -1  11 190.802 542.787   3
   2  -3  11 1249.39 717.664   3
   3  -2  11 103.982 581.666   3
  -3   1  11-481.286 457.078   1
   1  -3  -5 754.974 356.161   3
  -2   3  -5 286.095 285.209   1
  -1  -2  -5 450.635 347.242   3
  -3   2  -5 370.540 263.234   1
  -3   2  -2 29407.6 594.290   1
   1  -3  -2 30639.1 681.972   3
  -2   3  -2 28157.8 674.697   1
   3  -1  -2 30332.7 540.399   4
  -3   2  -2 29632.0 599.103   2
  -3   2  -2 29694.6 514.080   4
  -1  -2  -2 29474.3 729.490   3
   2   1  -2 29596.0 402.339   4
   2   1   1 14066.6 398.243   3
   1  -3   1 14727.0 448.824   1
   2   1   1 15470.9 434.430   2
  -3   2   1 15684.6 440.291   2
   2   1   1 14611.5 412.154   4
  -3   2   1 15186.4 380.653   4
  -2   3   1 14854.5 322.002   1
  -1  -2   1 14935.5 453.788   1
  -3   2   1 15092.7 384.644   1
   3  -1   1 16016.5 346.352   1
   3  -1   1 14608.6 431.720   3
  -1  -2   1 16314.2 289.813   2
   3  -1   1 16076.8 393.279   4
   3  -1   1 15392.6 387.582   2
  -2   3   1 15676.5 356.114   3
   3  -1   4 1522.90 297.944   2
   3  -1   4 1377.43 396.501   3
   3  -1   4 1380.24 228.428   1
   2   1   4 1750.01 397.270   3
   3  -1   4 1554.61 243.767   4
  -1  -2   4 1355.27 324.042   1
   2   1   4 1202.58 319.297   2
   2   1   4 1630.63 189.543   1
   2   1   4 1016.62 239.614   4
   1  -3   4 1843.02 351.857   1
  -2   3   4 2043.81 372.797   3
  -3   2   4 1581.67 323.306   3
   1  -3   7 17695.5 434.371   4
  -1  -2   7 19141.3 907.605   1
   3  -1   7 20486.4 716.268   4
   3  -1   7 21241.0 784.907   1
   1  -3   7 17360.4 409.937   4
  -1  -2   7 17406.2 452.213   4
  -2   3   7 19905.4 786.770   1
   2   1   7 20050.6 796.754   4
  -2   3   7 20251.1 1033.80   3
  -3   2   7 20775.5 1042.50   3
   2   1   7 21178.8 1094.47   3
   1  -3   7 20591.8 1159.80   3
  -2   3   7 19773.9 791.056   4
  -1  -2   7 18532.8 1089.42   3
   1  -3   7 20469.7 925.866   1
  -3   2   7 20888.0 907.018   1
  -1  -2   7 19515.0 451.203   4
  -3   2   7 20673.9 700.671   4
   2   1   7 20441.4 687.319   1
   3  -1   7 20318.4 1141.73   3
   3  -1  10 939.967 626.698   3
  -3   2  10-52.3583 250.716   4
  -1  -2  10 497.408 542.133   3
   1  -3  10 415.109 530.035   3
   3  -1  10 153.566 383.514   1
  -2   3  10 284.356 416.138   1
  -2   3  10-288.385 266.573   4
   2   1  10 408.369 316.045   1
   2   1  10 31.3023 474.769   3
  -1  -2  10 302.548 415.896   1
   1  -3  10-44.8372 403.799   1
  -3   2  10 61.2145 458.283   3
  -3   2  10 366.726 446.664   1
  -2   3  10-224.625 459.124   3
  -3   3  -6 99165.0 1734.57   1
  -3   3  -3-63.9942 219.858   1
  -3   3  -3 98.5919 138.119   4
   0  -3  -3 285.023 257.260   3
  -3   3   0 117689. 917.903   2
  -3   3   0 113541. 756.602   3
  -3   3   0 120440. 997.563   4
  -3   3   0 115647. 1028.30   1
   0  -3   0 114685. 1017.96   1
   0  -3   0 121491. 919.566   3
   3   0   0 120557. 992.381   2
   3   0   0 118838. 1030.81   4
   0  -3   0 108151. 784.375   2
   3   0   3 89.7989 257.110   2
   0  -3   3-148.014 286.421   1
   3   0   3 6.14390 150.709   1
  -3   3   3 141.014 234.605   3
   3   0   3-8.32018 284.248   3
   3   0   3-57.8169 192.627   4
   0  -3   6 176830. 2930.00   3
  -3   3   6 178584. 2217.33   1
   3   0   6 177334. 2923.11   3
  -3   3   6 176258. 2643.64   3
   0  -3   6 173728. 2534.18   1
   3   0   6 176022. 2630.48   2
   3   0   6 176507. 1823.23   1
   3   0   6 172446. 2067.58   4
  -3   3   9 111.558 376.358   1
  -3   3   9-191.676 292.760   4
   3   0   9 128.057 315.260   1
  -3   3   9-325.132 278.487   4
  -3   3   9 123.276 429.659   3
   0  -3   9-122.843 536.943   3
   0  -3   9-350.267 393.048   1
   3   0   9 192.701 524.941   3
   3   0   9-198.376 289.909   4
   4  -4  -4 10863.0 613.225   3
   0   4  -4 9976.69 606.431   1
  -4   0  -4 9313.64 488.248   4
  -4   0  -4 10388.1 401.824   1
   0   4  -1 80.1357 181.598   3
   0   4  -1 97.1863 225.591   1
  -4   0  -1-45.9628 192.914   2
   4  -4  -1-46.2575 174.364   1
  -4   0  -1 91.6354 203.660   3
  -4   0  -1-11.5489 140.057   1
   4  -4  -1 85.1220 128.742   3
  -4   0  -1 77.6199 193.155   4
  -4   0   2 27161.8 554.148   4
   4  -4   2 27609.4 523.133   4
   0   4   2 27687.6 702.148   3
  -4   0   2 28810.4 679.232   2
   4  -4   2 27729.9 529.867   2
   4  -4   2 26581.0 672.530   1
   4  -4   5-28.1231 256.370   2
   4  -4   5-113.698 288.996   1
   0   4   5 158.453 373.870   3
   0   4   5 86.9321 127.872   1
  -4   0   5-24.3714 165.148   4
  -4   0   5-311.343 304.660   2
   4  -4   5 163.992 162.452   4
   0   4   5-53.2888 240.042   4
  -4   0   5-39.4745 288.676   1
   4  -4   5-465.165 377.920   3
  -4   0   5-148.539 299.952   3
  -4   0   8 26689.2 1161.36   2
  -4   0   8 25403.2 1187.55   1
   0   4   8 25331.7 1265.48   3
   0   4   8 25650.3 720.201   1
  -4   0   8 26399.3 1264.62   3
   0   4   8 24337.7 1014.76   4
   4  -4   8 26518.8 1085.77   1
   4  -4   8 24104.7 654.903   4
   4  -4   8 28841.1 1482.03   3
  -4   0   8 26610.3 724.856   4
   4  -4  11-121.493 605.312   3
   4  -4  11-305.144 486.753   1
  -4   0  11 394.544 471.174   1
   0   4  11 360.109 527.772   3
  -4   0  11-130.534 435.000   2
  -4   0  11-365.890 588.902   3
   3  -4  -5 16861.4 820.318   3
  -1   4  -5 14966.9 724.708   1
  -4   1  -5 14839.5 550.537   1
  -3  -1  -5 16088.0 882.596   3
  -4   1  -2 8419.80 319.532   1
  -4   1  -2 7981.51 358.403   4
  -4   1  -2 8760.60 411.089   2
  -1   4  -2 7899.36 442.516   1
   4  -3  -2 7425.72 327.710   3
   3  -4  -2 7813.97 369.961   3
  -3  -1  -2 7919.58 449.756   3
  -3  -1  -2 7861.22 440.153   2
  -3  -1  -2 8353.18 225.330   1
  -3  -1  -2 7747.87 379.679   4
   1   3  -2 7952.90 450.367   1
  -4   1  -2 7790.65 459.893   3
   4  -3   1 5852.31 282.215   4
  -1   4   1 5751.97 242.852   1
   3  -4   1 5766.48 343.978   1
   3  -4   1 5278.21 240.077   4
  -4   1   1 5777.16 328.169   2
  -3  -1   1 5943.59 284.561   2
   4  -3   1 5587.68 262.306   2
   3  -4   1 6077.52 202.246   2
  -1   4   1 5885.87 303.572   3
  -4   1   1 5758.02 292.158   4
   1   3   1 5556.53 310.340   3
   1   3   1 5261.46 313.790   4
   1   3   1 5668.41 334.937   2
  -3  -1   1 5548.63 264.400   4
   4  -3   1 5539.64 319.374   1
  -3  -1   1 6009.89 201.512   3
  -3  -1   4 3622.06 415.160   1
   3  -4   4 4240.54 208.546   4
   4  -3   4 3989.62 499.160   3
  -4   1   4 4248.13 418.097   2
   1   3   4 4779.08 494.073   3
   1   3   4 4502.90 407.973   4
   4  -3   4 4580.96 404.848   2
   4  -3   4 4604.60 292.681   4
  -3  -1   4 3846.64 364.811   2
   4  -3   4 3990.71 363.781   1
  -3  -1   4 4396.30 234.437   4
  -1   4   4 4098.80 454.085   3
   3  -4   4 4630.69 429.443   1
   3  -4   4 4165.74 335.645   2
  -4   1   4 4052.95 393.994   3
  -4   1   4 4255.79 277.081   4
  -3  -1   7 4605.84 287.939   4
  -3  -1   7 4593.12 597.065   3
  -1   4   7 4273.98 367.872   1
   1   3   7 4086.49 589.763   3
  -1   4   7 4737.09 616.557   3
   3  -4   7 5112.67 526.954   1
   4  -3   7 4865.89 360.761   4
  -4   1   7 4730.88 606.873   3
   4  -3   7 4816.11 650.855   3
   4  -3   7 4116.24 460.948   1
   1   3   7 4309.61 447.681   4
   3  -4   7 4323.56 669.538   3
   1   3   7 4383.27 314.234   1
  -3  -1   7 4298.14 512.027   1
  -4   1   7 3792.27 516.365   1
  -1   4   7 4452.45 440.454   4
   3  -4   7 4408.19 256.767   4
  -4   1   7 4770.64 347.201   4
   3  -4   7 4316.24 499.728   2
  -3  -1  10 6412.43 737.200   1
  -4   1  10 5488.43 411.720   4
  -3  -1  10 5409.78 837.683   3
   1   3  10 5499.26 405.277   1
  -1   4  10 5897.74 787.465   3
   1   3  10 5629.07 795.896   3
   3  -4  10 5846.05 682.111   1
   4  -3  10 5316.12 627.087   1
   3  -4  10 7356.65 964.370   3
   4  -3  10 6346.04 927.792   3
  -4   1  10 6152.20 765.442   1
  -4   1  10 5956.99 784.203   3
  -4   1  10 5784.67 739.409   2
  -1   4  10 5384.62 460.154   1
  -3  -1  10 6537.38 755.250   2
  -2   4  -6 19564.3 863.901   1
  -4   2  -6 19490.2 743.542   1
  -4   2  -3 113283. 1443.39   2
  -2  -2  -3 120049. 1762.13   3
   2   2  -3 113200. 783.156   4
  -4   2  -3 112917. 1234.02   4
  -4   2  -3 116059. 1300.30   1
   2  -4  -3 117489. 1585.76   3
  -2   4  -3 116489. 1602.47   1
  -4   2   0 150542. 1178.55   2
   4  -2   0 149929. 1201.00   2
  -2   4   0 152151. 1080.56   3
   2   2   0 147641. 1004.62   3
  -2  -2   0 146083. 1176.22   4
  -2  -2   0 147770. 1083.29   2
  -2  -2   0 146400. 1027.18   3
   4  -2   0 150138. 1230.74   4
  -4   2   0 144845. 1181.40   1
   2  -4   0 143808. 1182.84   1
   2   2   0 151603. 1219.74   4
   2   2   0 147189. 1076.64   2
  -2   4   0 142785. 1207.51   1
   4  -2   0 150511. 1204.07   1
   2  -4   0 152109. 1081.75   3
  -4   2   3 119233. 1644.68   2
   2   2   3 119961. 1493.74   4
   2  -4   3 118225. 1625.70   1
  -2   4   3 121339. 1024.13   1
  -2  -2   3 117652. 1664.95   1
  -2   4   3 121002. 1574.18   3
  -2  -2   3 122707. 1381.49   2
  -4   2   3 121571. 1275.51   4
   4  -2   3 120702. 1836.14   3
  -2  -2   3 118553. 808.572   4
   4  -2   3 117292. 1299.88   4
   2   2   3 124940. 1727.88   2
   4  -2   3 122277. 1279.63   1
  -4   2   3 120758. 1448.61   3
   2   2   3 125351. 1797.79   3
   4  -2   3 122860. 1530.71   2
   2  -4   3 120281. 1179.40   2
  -2  -2   6 20006.0 921.902   1
  -4   2   6 19838.9 651.555   4
   4  -2   6 20041.1 730.676   1
   4  -2   6 19547.2 664.673   4
  -2  -2   6 15368.8 396.314   4
   4  -2   6 18873.9 1043.23   3
  -4   2   6 19855.1 918.387   3
  -2   4   6 21123.5 967.542   3
   2   2   6 21658.6 1042.02   3
  -2  -2   6 21126.6 1038.47   3
  -4   2   6 19191.9 845.824   1
   2   2   6 18693.9 761.596   4
   2  -4   6 20821.8 892.859   1
   2   2   6 19690.4 537.681   1
   2  -4   6 19064.1 1052.06   3
   2  -4   6 17240.7 346.231   4
   4  -2   6 19609.5 915.359   2
  -2  -2   6 19077.9 411.946   4
  -2   4   6 20177.9 680.391   1
  -2   4   9 25391.6 929.590   1
  -2  -2   9 27167.6 1218.14   2
   4  -2   9 25723.1 1015.73   1
   2  -4   9 26789.9 1519.95   3
  -4   2   9 25531.8 1322.64   3
  -2  -2   9 26141.8 1269.65   1
   2   2   9 22335.5 985.108   4
   4  -2   9 24701.3 840.281   4
  -2  -2   9 26269.2 1456.57   3
  -4   2   9 23905.4 873.194   4
  -4   2   9 26969.3 1222.27   1
   2   2   9 25594.9 771.545   1
  -2   4   9 25220.7 1310.84   3
  -4   2   9 25025.5 845.159   4
   2   2   9 27636.4 1432.33   3
   2  -4   9 26601.8 1173.39   1
   4  -2   9 25281.2 1447.93   3
  -4   3  -7 4207.33 434.147   1
  -1  -3  -4 3241.18 425.012   3
  -3   4  -4 3568.68 390.931   1
  -4   3  -4 3090.50 250.749   4
  -3   4  -4 2763.17 183.001   4
  -4   3  -4 2927.18 339.975   1
   1  -4  -4 3195.84 428.300   3
  -3   4  -1 5620.93 186.133   2
   1  -4  -1 5569.55 288.958   3
   4  -1  -1 5446.14 281.743   4
   3   1  -1 5374.78 278.750   2
   4  -1  -1 5157.53 310.284   2
  -4   3  -1 5729.99 257.672   2
  -3   4  -1 5399.94 334.701   1
  -3   4  -1 5385.76 241.947   4
  -1  -3  -1 4968.94 301.310   3
  -4   3  -1 5515.02 279.441   4
  -1  -3  -1 5448.24 219.152   1
  -4   3  -1 5032.05 324.320   1
   3   1  -1 5836.81 269.597   4
   1  -4  -1 6262.30 247.915   1
   3   1   2 8284.27 220.610   1
  -1  -3   2 9001.71 302.214   2
   3   1   2 8580.30 475.598   3
  -3   4   2 8380.88 309.150   1
   4  -1   2 8888.04 416.645   2
  -4   3   2 8254.65 447.031   2
   3   1   2 8162.05 451.696   2
   4  -1   2 7861.52 374.819   4
  -4   3   2 8455.39 377.463   4
  -1  -3   2 8424.85 479.566   1
  -4   3   2 8258.78 315.316   3
   1  -4   2 8326.81 475.206   1
  -3   4   2 8675.39 364.267   3
   4  -1   2 8196.03 480.677   3
   3   1   2 7997.27 396.640   4
   4  -1   2 9269.45 328.395   1
   4  -1   5 13938.4 526.257   1
   3   1   5 13494.4 794.945   3
   4  -1   5 12689.0 552.896   4
  -3   4   5 13685.5 718.668   3
   4  -1   5 13358.8 832.951   3
  -1  -3   5 14271.3 748.174   1
  -4   3   5 13181.6 711.864   3
   1  -4   5 13496.7 716.664   1
   4  -1   5 13104.5 712.076   2
   3   1   5 13285.2 413.051   1
   3   1   5 12428.1 596.922   4
  -4   3   5 14239.1 570.491   4
   3   1   5 13409.3 760.058   2
   4  -1   8 7876.65 828.769   3
  -1  -3   8 7005.24 679.440   1
   3   1   8 7876.96 464.002   1
  -3   4   8 8438.18 741.611   3
   1  -4   8 7912.17 684.734   1
  -3   4   8 7165.15 580.894   1
   1  -4   8 5955.55 787.104   3
  -4   3   8 8004.91 730.314   3
  -4   3   8 7980.22 499.618   4
  -1  -3   8 8682.75 868.708   3
   4  -1   8 7053.15 505.349   4
   3   1   8 7045.75 552.211   4
   4  -1   8 7815.85 545.615   1
  -4   3   8 7157.11 632.240   1
   3   1   8 8069.95 821.197   3
  -3   4   8 6578.54 562.926   4
  -1  -3  11 333.279 447.633   1
   1  -4  11-491.930 501.011   1
  -4   3  11-40.0731 508.304   3
  -3   4  11 597.596 299.446   4
   1  -4  11 1082.12 761.773   3
  -4   3  11 115.207 509.293   2
  -1  -3  11 953.496 662.260   3
  -1  -3  11 669.527 509.278   2
   4  -1  11 61.3218 597.496   3
  -4   3  11-357.691 436.164   1
  -3   4  11 174.673 522.799   3
   3   1  11-279.034 617.616   3
   0  -4  -5-40.5582 335.687   3
  -4   4  -5 466.857 317.941   1
  -4   4  -2 31165.0 734.778   1
  -4   4  -2 32467.9 569.293   4
   4   0  -2 33021.2 737.375   2
   0  -4  -2 32880.4 775.628   3
   4   0  -2 32681.1 595.166   4
  -4   4  -2 32042.6 566.545   2
   0  -4   1 165.186 164.083   3
  -4   4   1-73.0094 230.556   2
   0  -4   1 72.4842 241.869   1
  -4   4   1-15.3941 172.213   1
   4   0   1-69.8099 195.189   3
  -4   4   1 43.9995 129.171   3
   4   0   1-57.2972 188.167   2
  -4   4   1-140.787 194.123   4
   4   0   1-80.6316 182.018   4
  -4   4   4 8488.73 515.709   3
   4   0   4 7506.28 457.890   4
   4   0   4 8470.12 552.008   2
   4   0   4 8587.39 345.746   1
   4   0   4 7731.87 603.066   3
   0  -4   4 8230.00 584.716   1
   4   0   7 264.921 251.890   1
  -4   4   7 227.064 280.962   4
   0  -4   7-13.6847 408.948   3
   4   0   7 586.801 459.651   3
   4   0   7 241.757 236.169   4
   0  -4   7 215.256 344.434   1
  -4   4   7 298.299 372.529   3
  -4   4   7 153.221 313.580   1
   0  -4  10 15757.3 1055.71   1
  -4   4  10 16982.7 1145.62   3
  -4   4  10 16116.1 796.178   4
   4   0  10 16576.3 748.428   1
   4   0  10 19118.4 1334.91   3
   0  -4  10 16421.1 1322.80   3
  -4   4  10 17039.1 964.603   1
  -5   0  -5-108.591 193.362   1
  -5   0  -5 27.3581 235.456   4
   5  -5  -5 79.2804 311.944   3
   0   5  -2 111097. 903.942   4
   5  -5  -2 112994. 1178.40   3
  -5   0  -2 115597. 1068.92   1
  -5   0  -2 112727. 1485.08   2
   0   5  -2 113055. 1632.08   1
  -5   0  -2 109666. 1452.08   4
  -5   0  -2 114003. 1616.22   3
   5  -5  -2 111033. 1266.69   1
   5  -5   1-160.257 167.727   2
   0   5   1 213.542 188.647   1
   5  -5   1 80.2715 172.510   4
  -5   0   1-120.669 219.032   2
   5  -5   1 76.0891 252.139   1
  -5   0   1-28.6852 192.847   4
   0   5   1 52.0128 210.471   3
  -5   0   1 166.035 92.7654   3
  -5   0   4 24378.6 831.307   2
   5  -5   4 24481.7 819.942   1
   5  -5   4 25194.7 577.819   4
  -5   0   4 24183.6 617.898   4
   0   5   4 25762.0 924.061   3
   5  -5   4 24084.4 709.308   2
   0   5   7-386.409 298.710   4
  -5   0   7-96.1876 337.936   3
   5  -5   7-22.9157 294.346   2
  -5   0   7-138.391 189.530   4
   5  -5   7 83.0542 160.353   4
   5  -5   7 273.709 351.438   1
   5  -5   7 4.34042 460.814   3
   0   5   7 21.8205 117.374   1
  -5   0   7-156.084 326.502   2
   0   5   7 131.133 106.332   1
   0   5   7 60.5963 365.994   3
  -5   0   7-312.569 340.141   1
   0   5  10 12618.1 1048.09   3
   5  -5  10 12189.1 875.760   1
   5  -5  10 12844.5 1257.49   3
  -5   0  10 11171.5 904.233   2
  -5   0  10 11925.7 1044.35   3
  -5   0  10 12480.0 1016.62   1
  -5   1  -6 19707.9 663.958   1
   5  -4  -3 52529.7 992.951   3
  -4  -1  -3 51788.4 1257.84   3
  -5   1  -3 49983.2 1243.98   3
  -5   1  -3 48411.8 980.311   4
  -4  -1  -3 49082.9 1112.80   2
  -1   5  -3 50291.1 1171.11   1
  -5   1  -3 51197.3 1089.14   2
  -4  -1  -3 50970.6 611.315   1
  -5   1  -3 50028.2 804.462   1
   1   4  -3 49196.0 1171.87   1
   4  -5  -3 52386.1 1039.90   3
  -4  -1  -3 49170.3 1019.99   4
   4  -5   0 33739.8 558.435   3
   5  -4   0 33531.6 653.407   2
  -4  -1   0 33399.7 645.221   2
   1   4   0 32602.2 684.479   1
   5  -4   0 32849.6 474.216   3
  -4  -1   0 32264.8 527.012   3
  -5   1   0 32194.5 645.522   1
   4  -5   0 34870.3 721.953   1
  -1   5   0 34136.8 621.826   3
   4  -5   0 31638.5 611.423   2
   1   4   0 33374.4 673.039   4
  -5   1   0 34329.6 672.144   2
   5  -4   0 30716.4 654.297   1
   5  -4   0 33470.1 684.870   4
  -4  -1   0 33467.9 685.630   4
  -5   1   0 28866.7 451.022   3
  -5   1   0 33709.8 709.985   4
  -1   5   0 32316.4 690.205   1
   1   4   0 33112.2 605.171   3
   1   4   0 33353.3 571.033   2
  -4  -1   3 114169. 1473.20   2
  -4  -1   3 110852. 1106.14   4
  -5   1   3 105196. 1301.80   3
  -1   5   3 114230. 1594.45   3
  -5   1   3 110737. 1571.60   2
  -5   1   3 110073. 1245.99   4
   4  -5   3 114327. 1015.30   4
   1   4   3 111753. 1674.66   3
   1   4   3 111653. 1589.23   4
   5  -4   3 113391. 1215.29   4
   4  -5   3 108884. 1567.29   1
  -1   5   3 108956. 812.281   1
   5  -4   3 108591. 1435.44   1
   4  -5   3 114278. 1182.70   2
   5  -4   3 112764. 1367.33   2
  -4  -1   6 11768.0 759.317   3
   4  -5   6 12066.6 717.073   1
  -5   1   6 10032.1 679.400   3
  -5   1   6 11481.0 486.078   4
   4  -5   6 11296.2 902.936   3
  -4  -1   6 11673.3 418.001   4
   5  -4   6 11323.2 481.854   4
   5  -4   6 11717.4 644.864   1
  -5   1   6 10997.2 690.830   2
  -4  -1   6 10729.5 668.727   2
   4  -5   6 11095.9 361.744   4
   1   4   6 8503.33 289.432   1
  -1   5   6 11789.0 766.376   3
  -1   5   6 10841.0 637.077   4
   5  -4   6 11017.5 676.084   2
   4  -5   6 10868.9 616.847   2
   1   4   6 11028.6 648.815   4
  -4  -1   6 11334.8 738.795   1
   1   4   6 12094.7 794.162   3
  -5   1   6 11454.1 713.657   1
   5  -4   6 11583.5 876.110   3
  -1   5   6 9624.64 402.941   1
  -1   5   6 11102.8 358.049   1
  -5   1   9 30636.7 863.340   4
   4  -5   9 30716.8 1255.15   1
  -5   1   9 26427.5 839.456   4
   5  -4   9 31081.4 1187.30   1
  -5   1   9 30479.3 1448.12   3
   1   4   9 27144.4 652.776   1
  -5   1   9 30979.5 1389.16   2
  -1   5   9 33362.5 1509.58   3
  -4  -1   9 31859.9 1440.56   1
  -1   5   9 27968.6 786.959   1
  -1   5   9 24832.9 629.064   1
  -4  -1   9 31357.7 1346.72   2
   4  -5   9 32519.0 1719.08   3
   5  -4   9 27630.8 772.629   4
   5  -4   9 33811.8 1700.49   3
   1   4   9 31053.6 1472.64   3
  -5   1   9 32329.3 1420.02   1
  -4  -1   9 32698.1 1563.60   3
  -4  -1   9 24505.3 591.509   4
  -5   2  -7 18487.2 749.912   1
  -5   2  -4 4118.30 355.197   1
  -5   2  -4 3001.92 325.213   4
  -2   5  -4 3858.80 453.049   1
   3  -5  -4 3930.26 445.501   3
  -3  -2  -4 3098.66 461.577   3
   2   3  -1 22568.1 484.830   4
   2   3  -1 22849.3 490.242   3
  -3  -2  -1 21919.7 565.394   3
   3  -5  -1 23752.5 512.188   3
  -3  -2  -1 23110.2 616.546   4
   2   3  -1 23439.8 451.496   2
  -2   5  -1 21230.7 623.609   1
  -5   2  -1 23116.5 541.708   1
   3  -5  -1 22408.2 510.253   1
   5  -3  -1 23132.9 584.489   4
  -3  -2  -1 23771.3 619.630   2
  -5   2  -1 24115.5 567.965   2
   5  -3  -1 22655.1 626.608   2
  -5   2  -1 23632.0 596.914   4
  -3  -2   2 22043.3 538.640   2
   2   3   2 21164.8 660.419   4
   5  -3   2 22229.2 576.075   4
   5  -3   2 21958.9 601.060   1
   3  -5   2 21080.8 431.418   4
  -5   2   2 21674.7 579.472   4
  -3  -2   2 21501.9 460.395   4
  -5   2   2 22108.0 690.711   2
   3  -5   2 22358.8 355.556   2
   5  -3   2 22238.4 584.113   2
  -2   5   2 23168.7 469.589   1
   3  -5   2 21460.3 695.346   1
   2   3   2 21100.3 667.171   3
  -5   2   2 20325.0 449.150   3
  -2   5   2 22772.0 627.247   3
   5  -3   5 5816.98 598.815   3
   3  -5   5 6763.40 433.377   2
  -2   5   5 6926.54 581.792   3
  -5   2   5 6730.48 559.246   2
   2   3   5 6263.35 578.234   2
   2   3   5 5350.11 458.547   4
  -3  -2   5 6007.92 250.002   4
  -2   5   5 6111.32 303.815   1
   3  -5   5 5109.97 190.751   4
  -5   2   5 6251.67 485.798   3
   5  -3   5 7323.81 476.197   1
   2   3   5 6882.17 618.366   3
  -3  -2   5 6962.71 504.527   2
   5  -3   5 6788.03 518.845   2
  -5   2   5 6439.05 382.496   4
  -3  -2   5 6491.49 594.253   1
   3  -5   5 6715.90 552.815   1
   5  -3   5 5846.47 382.759   4
  -5   2   8 18005.2 699.746   4
   3  -5   8 18913.4 981.701   1
  -2   5   8 16994.7 896.379   4
  -3  -2   8 19061.7 998.453   2
  -3  -2   8 17589.5 1116.30   3
  -5   2   8 19055.8 1029.09   1
  -3  -2   8 17985.5 1046.57   1
  -5   2   8 17686.2 1030.20   2
   3  -5   8 18050.1 1262.36   3
   5  -3   8 18264.0 835.627   1
   2   3   8 16018.9 844.914   4
   2   3   8 16131.5 495.788   1
   2   3   8 18743.6 1115.22   3
   5  -3   8 18701.4 1227.05   3
  -5   2   8 19111.2 1044.45   3
  -2   5   8 17692.8 687.512   1
   5  -3   8 17018.5 678.628   4
  -2   5   8 17650.9 1042.87   3
  -3  -2   8 14421.5 365.244   4
   3  -5  11 2012.07 584.656   1
  -5   2  11 1909.51 571.794   1
   2   3  11 1657.32 603.162   3
  -5   2  11 2606.47 672.049   2
  -2   5  11 1188.88 377.239   4
  -2   5  11 1346.34 592.935   3
  -3  -2  11 2533.88 598.427   1
   3  -5  11 1645.69 780.296   3
  -3  -2  11 1476.37 520.879   2
  -3  -2  11 1366.55 619.575   3
   5  -3  11 1086.18 462.430   1
   5  -3  11-170.671 639.005   3
  -5   2  11 1832.77 627.004   3
  -2  -3  -5 5798.51 597.818   3
  -3   5  -5 6021.45 510.281   1
  -5   3  -5 5427.77 421.523   1
   2  -5  -5 6420.36 578.820   3
  -5   3  -5 5854.82 367.246   4
   2  -5  -2 26953.9 691.071   3
   3   2  -2 25930.0 494.566   4
   5  -2  -2 24192.5 605.846   4
  -3   5  -2 22751.3 376.121   2
  -5   3  -2 24443.4 600.576   2
  -5   3  -2 25170.1 606.062   4
   3   2  -2 25159.2 587.778   2
  -3   5  -2 24589.6 734.237   1
  -2  -3  -2 23272.6 671.256   4
  -5   3  -2 25191.2 631.732   1
   2  -5  -2 24910.1 453.654   1
  -3   5  -2 25097.1 444.517   4
  -2  -3  -2 25217.9 731.072   3
   5  -2  -2 26406.9 731.666   2
  -5   3   1 21185.0 562.923   4
  -2  -3   1 22036.5 486.732   4
  -2  -3   1 22183.3 438.001   2
  -2  -3   1 21974.0 644.780   1
  -3   5   1 22595.9 537.304   1
   3   2   1 22097.6 614.896   4
   3   2   1 21219.1 549.323   3
   2  -5   1 22944.4 653.332   1
   5  -2   1 22595.6 564.559   2
   3   2   1 22921.6 606.225   2
   2  -5   1 20358.9 517.460   3
  -2  -3   1 22559.0 477.151   3
   5  -2   1 22700.1 537.672   1
   5  -2   1 22367.9 588.471   4
  -5   3   1 19257.2 575.895   2
   5  -2   1 21073.5 574.666   3
  -3   5   1 23229.8 514.268   3
  -5   3   1 21812.4 563.384   1
   3   2   4 3792.75 380.084   4
  -5   3   4 4477.52 472.663   2
   3   2   4 4013.89 498.058   3
   3   2   4 4461.23 459.889   2
   5  -2   4 3818.38 512.031   3
  -5   3   4 4089.42 338.516   4
   5  -2   4 4138.13 412.232   2
  -5   3   4 3882.51 387.862   3
  -2  -3   4 3958.44 359.714   2
   5  -2   4 4210.04 345.822   1
   2  -5   4 4039.85 454.580   1
  -3   5   4 4195.38 284.310   1
   5  -2   4 3677.33 340.895   4
  -3   5   4 4431.92 430.805   3
  -2  -3   4 3688.33 475.129   1
   2  -5   7 19375.7 1202.25   3
  -3   5   7 19664.1 990.411   3
   2  -5   7 20833.6 873.646   2
  -5   3   7 19900.1 960.598   1
  -5   3   7 20274.4 740.929   4
   5  -2   7 19528.5 1124.65   3
   3   2   7 19392.3 537.437   1
   5  -2   7 19302.8 752.980   4
   5  -2   7 19979.2 770.820   1
   3   2   7 19763.6 857.850   4
  -2  -3   7 20217.1 1140.02   3
   3   2   7 20914.7 1120.46   3
  -5   3   7 21045.3 1034.57   3
   2  -5   7 20811.5 982.830   1
  -3   5   7 19087.3 741.490   1
  -2  -3   7 20673.5 926.087   2
  -2  -3   7 18916.8 1002.40   1
  -5   3  10 11120.6 1007.35   2
  -3   5  10 9675.45 649.142   1
  -5   3  10 9456.72 859.339   1
  -2  -3  10 10553.4 866.597   2
  -3   5  10 9638.23 885.700   3
   3   2  10 8702.76 443.800   1
  -2  -3  10 11085.7 926.796   1
   5  -2  10 10627.3 1105.84   3
   2  -5  10 9834.18 1139.63   3
   5  -2  10 9755.61 686.263   1
   3   2  10 10889.1 1023.10   3
  -3   5  10 11039.0 733.236   4
  -5   3  10 9357.15 572.619   4
  -5   3  10 11278.6 973.436   3
   2  -5  10 10753.7 870.500   1
  -2  -3  10 9448.00 1036.02   3
  -5   4  -6 10504.6 602.642   1
  -4   5  -6 10314.1 668.645   1
  -4   5  -3 108980. 1602.19   1
  -5   4  -3 107913. 1199.44   4
   4   1  -3 109101. 1066.22   4
   1  -5  -3 110809. 1644.78   3
   5  -1  -3 108460. 1252.34   4
  -5   4  -3 107875. 1347.09   2
  -5   4  -3 108123. 1484.46   1
  -1  -4  -3 110719. 1706.72   3
  -4   5  -3 108318. 999.644   4
  -4   5   0 27902.3 521.180   3
   5  -1   0 22989.5 568.508   2
  -1  -4   0 26618.6 541.328   2
   5  -1   0 25241.1 389.483   3
   4   1   0 27628.6 600.258   2
  -1  -4   0 28930.8 570.459   3
  -5   4   0 27609.1 621.661   4
   4   1   0 28980.7 648.014   4
  -1  -4   0 28338.0 632.996   1
   1  -5   0 24930.9 538.061   3
   4   1   0 26743.6 464.516   3
   1  -5   0 28852.5 640.993   1
   5  -1   0 28645.3 655.495   4
  -4   5   0 28882.3 666.158   1
  -4   5   0 29543.2 627.808   4
  -5   4   0 29501.4 602.035   2
  -4   5   0 27500.1 542.351   2
  -5   4   0 27396.3 639.117   1
  -4   5   3 47448.0 819.235   1
  -5   4   3 46601.0 876.416   3
  -5   4   3 46492.7 1116.66   2
   5  -1   3 45419.1 957.359   4
  -1  -4   3 46817.6 759.013   2
   5  -1   3 47155.1 1202.81   3
  -5   4   3 46484.7 942.647   4
   4   1   3 45486.6 1004.25   4
   4   1   3 47774.7 1190.72   3
  -4   5   3 48826.6 961.067   3
   1  -5   3 46568.3 1137.07   1
   4   1   3 48203.4 1125.30   2
   5  -1   3 49105.6 773.619   1
   4   1   3 49082.9 587.613   1
   5  -1   3 48199.5 1072.77   2
  -1  -4   3 44615.2 1136.06   1
   1  -5   6 19360.6 943.600   1
   5  -1   6 19457.8 1065.74   3
  -4   5   6 20183.3 917.704   3
   5  -1   6 18867.3 740.858   4
  -5   4   6 19555.0 727.148   4
  -1  -4   6 19704.3 973.441   1
   4   1   6 19273.1 1029.21   3
   4   1   6 19576.5 799.224   4
   5  -1   6 20476.4 664.323   1
   4   1   6 20305.4 540.640   1
  -5   4   6 19169.0 889.325   3
   5  -1   9 17170.0 1234.40   3
  -4   5   9 15117.8 796.570   4
  -4   5   9 16439.6 1060.05   3
   5  -1   9 16409.4 765.462   1
  -4   5   9 16092.3 834.773   1
  -1  -4   9 15015.7 1217.87   3
   1  -5   9 15771.6 1011.49   1
   5  -1   9 14079.3 755.288   4
  -1  -4   9 14402.1 1009.75   1
   1  -5   9 16302.5 1264.08   3
  -5   4   9 15852.5 929.446   1
   4   1   9 16323.4 625.413   1
  -1  -4   9 17236.5 974.998   2
   4   1   9 16554.5 1184.96   3
  -5   4   9 14890.2 998.848   3
  -5   4   9 14830.4 736.697   4
  -5   5  -7 360.839 317.589   1
  -5   5  -4 23000.1 558.218   4
  -5   5  -4 24228.1 846.019   1
   0  -5  -4 24886.1 930.590   3
  -5   5  -1-56.5482 156.651   2
   0  -5  -1 210.486 181.754   1
   5   0  -1 162.192 94.3904   3
  -5   5  -1-37.9044 184.680   4
   0  -5  -1-36.4590 194.149   3
   5   0  -1-178.313 182.376   4
   5   0  -1 114.200 221.167   2
  -5   5  -1 65.0904 243.132   1
  -5   5   2 108011. 1507.36   2
  -5   5   2 109684. 1289.95   1
   5   0   2 115170. 1071.02   1
   5   0   2 115382. 1506.85   2
   0  -5   2 113756. 726.806   2
  -5   5   2 114832. 1444.69   4
   5   0   2 112092. 1469.72   4
   5   0   2 114950. 1584.65   3
  -5   5   2 114896. 1141.72   3
   0  -5   2 113448. 1656.28   1
   0  -5   5-33.3941 369.507   1
   5   0   5-102.666 341.641   2
   5   0   5 154.418 195.204   1
   5   0   5 511.594 418.517   3
  -5   5   5 339.070 303.825   3
   5   0   5-99.4169 241.775   4
  -5   5   8 2063.51 457.292   1
  -5   5   8 1562.55 339.763   4
   5   0   8 1783.07 327.842   1
   0  -5   8 1872.17 505.961   1
   5   0   8 1575.62 558.897   3
   0  -5   8 1589.68 528.287   3
  -5   5   8 1463.73 467.457   3
   5   0   8 1622.50 364.565   4
  -5   5  11 53.2569 301.663   4
  -5   5  11 529.832 629.683   2
   0  -5  11-291.957 467.875   2
   0  -5  11-100.578 590.666   3
   5   0  11 610.696 588.071   3
   0  -5  11 6.22639 527.117   1
  -5   5  11 465.305 487.562   3
   6  -6  -6 31717.3 1189.31   3
  -6   0  -6 27072.4 693.453   1
   0   6  -3 154.470 313.610   1
   6  -6  -3 104.511 203.522   3
  -6   0  -3 241.096 290.612   2
  -6   0  -3-86.6120 178.239   1
  -6   0  -3-227.392 298.384   3
  -6   0  -3-15.2441 251.242   4
   0   6  -3-82.5637 88.3443   4
   6  -6   0 7043.30 437.750   1
   6  -6   0 7495.23 318.768   3
   0   6   0 7251.24 427.037   1
  -6   0   0 7254.33 429.803   2
   0   6   0 7523.78 349.637   2
   6  -6   0 7675.51 407.647   2
  -6   0   0 7019.55 299.038   3
   6  -6   0 7722.99 422.773   4
   0   6   0 7526.63 403.175   3
  -6   0   0 7675.31 444.464   4
   6  -6   3 431.217 289.250   1
   6  -6   3-50.7936 179.886   2
  -6   0   3-0.14355 266.702   2
   6  -6   3-86.6103 176.706   4
   0   6   3 53.0842 268.519   3
  -6   0   3 70.8372 211.416   4
   6  -6   6 36062.0 1515.91   3
   0   6   6 36782.4 1333.52   3
  -6   0   6 36932.1 854.244   4
   6  -6   6 36103.9 1072.56   2
   6  -6   6 36611.4 770.830   4
  -6   0   6 36032.1 1312.37   1
   0   6   6 35030.9 1173.66   4
  -6   0   6 35266.1 1184.76   3
   6  -6   6 36439.0 1149.09   1
  -6   0   6 34933.8 1172.72   2
  -6   0   9 194.874 208.226   4
   6  -6   9 19.6021 129.932   4
   0   6   9 468.485 491.828   3
   6  -6   9-222.546 530.873   3
   6  -6   9 83.3343 426.162   1
  -6   0   9 222.810 397.860   2
  -6   0   9 488.387 471.288   3
  -6   0   9 489.452 453.507   1
  -6   1  -7 21690.3 726.286   1
  -6   1  -4 495.158 223.166   1
  -5  -1  -4 720.106 383.661   3
  -6   1  -4 488.707 335.339   2
  -5  -1  -4 547.447 169.690   1
  -5  -1  -4 518.300 281.760   4
   5  -6  -4 457.400 291.214   3
  -1   6  -4 279.856 309.403   1
  -6   1  -4 674.450 281.503   4
   6  -5  -4 867.439 299.936   3
   1   5  -1 91545.9 1063.73   4
   5  -6  -1 92677.1 1176.58   1
  -6   1  -1 92726.2 1310.49   4
  -6   1  -1 83903.1 1152.31   3
   1   5  -1 91220.8 824.117   2
   5  -6  -1 95527.2 989.029   3
   6  -5  -1 94141.8 1239.64   1
  -6   1  -1 92454.6 1117.64   1
   6  -5  -1 89619.8 1311.68   2
  -1   6  -1 93467.6 1398.47   1
   1   5  -1 94088.8 1148.98   3
  -5  -1  -1 92064.4 1324.33   4
  -5  -1  -1 92117.5 1260.78   2
   1   5  -1 93468.7 1409.16   1
  -5  -1  -1 85352.3 1149.66   3
   6  -5  -1 94988.1 797.480   3
  -6   1  -1 91214.0 1239.96   2
   6  -5  -1 96512.0 1311.37   4
  -1   6  -1 93747.2 1209.40   3
   6  -5   2 664.249 202.076   2
   5  -6   2 708.747 280.846   1
   6  -5   2 551.203 187.651   4
  -6   1   2 593.261 202.818   4
   1   5   2 619.247 250.785   4
  -5  -1   2 404.115 129.053   3
  -1   6   2 352.182 241.522   3
  -1   6   2 458.019 154.756   1
  -6   1   2 622.788 243.705   2
   1   5   2 919.046 287.910   2
   5  -6   2 577.353 152.073   2
  -5  -1   2 709.311 212.827   4
   1   5   2 733.952 268.776   3
   6  -5   2 588.693 273.483   1
  -5  -1   2 456.812 210.103   2
   5  -6   2 725.629 187.672   4
   6  -5   5 9862.45 449.598   4
  -5  -1   5 10572.8 418.942   4
   6  -5   5 10092.5 583.851   2
  -1   6   5 10544.4 680.670   3
   5  -6   5 10369.0 367.162   4
   6  -5   5 9231.38 743.951   3
  -6   1   5 9737.36 468.738   4
   1   5   5 9201.78 592.931   4
   5  -6   5 10727.4 653.786   1
   5  -6   5 10683.8 527.786   2
   6  -5   5 9853.45 600.838   1
  -5  -1   5 11098.7 736.452   1
  -5  -1   5 10991.7 626.062   2
  -6   1   5 11326.7 686.262   2
  -1   6   5 8428.27 254.879   1
  -6   1   5 9793.08 584.956   3
   1   5   5 10532.2 695.864   3
   1   5   8 1631.58 548.060   3
  -5  -1   8 1856.64 490.225   3
   5  -6   8 1940.93 478.918   1
   5  -6   8 859.131 568.068   3
  -1   6   8 926.018 186.839   1
   6  -5   8 1630.05 276.931   4
  -5  -1   8 1893.85 522.447   1
   6  -5   8 2175.36 620.184   3
  -6   1   8 1831.36 522.794   1
   6  -5   8 813.715 398.623   1
  -5  -1   8 1048.06 203.336   4
  -1   6   8 944.795 151.935   1
  -6   1   8 1429.73 288.397   4
  -1   6   8 1632.61 486.748   3
  -6   1   8 1462.01 395.727   3
  -5  -1   8 1698.04 439.912   2
  -6   1   8 2013.12 481.043   2
   5  -6   8 953.513 134.091   4
   6  -5  11 3579.12 923.548   3
  -6   1  11 3323.98 676.653   1
   6  -5  11 2838.45 579.355   1
  -6   1  11 2672.35 648.460   3
  -1   6  11 2476.61 720.828   3
  -5  -1  11 2738.93 641.833   1
   5  -6  11 2386.09 629.375   1
   5  -6  11 3988.96 913.808   3
  -5  -1  11 3152.68 692.082   2
  -5  -1  11 1909.97 657.636   3
  -6   1  11 3609.74 708.239   2
   1   5  11 3121.10 700.224   3
  -6   2  -5 21228.7 695.197   1
  -2   6  -5 21088.9 930.309   1
   4  -6  -5 21637.3 915.362   3
  -6   2  -5 19884.7 695.063   4
  -6   2  -2 27368.1 736.905   4
   2   4  -2 29344.6 553.890   2
  -6   2  -2 28186.4 656.437   1
   6  -4  -2 28807.7 750.052   4
   6  -4  -2 28639.1 833.598   2
   4  -6  -2 27594.9 611.090   1
  -6   2  -2 26165.4 719.197   2
   2   4  -2 27169.7 523.531   4
   6  -4  -2 26456.7 513.151   3
  -4  -2  -2 29009.1 460.874   1
  -4  -2  -2 25368.0 774.680   2
   4  -6  -2 29268.1 683.682   3
  -4  -2  -2 26275.6 796.041   3
  -4  -2  -2 27414.1 760.632   4
  -2   6  -2 27955.2 849.638   1
   2   4   1 4279.47 341.198   4
  -4  -2   1 5569.73 248.300   3
   6  -4   1 4960.35 351.491   1
  -2   6   1 5507.10 328.807   1
   2   4   1 4991.85 351.056   2
   4  -6   1 5033.72 320.100   3
  -4  -2   1 5502.95 329.370   4
  -2   6   1 5035.73 328.243   3
   4  -6   1 5235.79 409.748   1
   6  -4   1 5491.36 320.160   2
   4  -6   1 5590.39 236.330   2
  -6   2   1 5499.62 364.720   4
  -4  -2   1 5182.95 325.304   2
   6  -4   1 5509.60 346.469   4
   2   4   1 5338.36 361.858   3
  -6   2   1 5361.88 384.376   2
   6  -4   4 8490.92 700.016   3
  -6   2   4 8628.20 606.912   2
   4  -6   4 8666.22 582.862   1
  -4  -2   4 8467.37 634.316   1
  -4  -2   4 9006.10 340.199   4
  -6   2   4 8703.95 500.139   3
  -2   6   4 8432.32 569.692   3
   2   4   4 8723.82 537.106   4
   2   4   4 9437.14 646.512   3
   6  -4   4 8550.17 436.787   4
  -4  -2   4 8909.49 511.775   2
  -6   2   4 8880.04 444.609   4
  -2   6   4 8690.82 308.846   1
   6  -4   4 9740.35 523.593   1
   4  -6   4 8769.89 409.076   2
   2   4   4 9033.44 644.196   2
   4  -6   4 8019.79 280.195   4
   6  -4   4 8522.78 524.775   2
   6  -4   7 27817.7 1386.15   3
   6  -4   7 29463.6 1001.69   1
   4  -6   7 28119.5 1418.38   3
  -6   2   7 28787.1 1194.93   2
  -6   2   7 27870.6 1138.15   3
  -6   2   7 29544.9 1219.63   1
   2   4   7 25271.5 1022.65   4
  -6   2   7 27734.8 835.272   4
   2   4   7 30086.4 1303.52   3
  -4  -2   7 24851.4 532.948   4
  -2   6   7 25567.3 609.190   1
   6  -4   7 27796.5 832.062   4
  -4  -2   7 28409.6 1294.79   3
  -4  -2   7 29727.2 1127.54   2
  -2   6   7 26635.2 1055.66   4
  -2   6   7 24660.2 701.306   1
   4  -6   7 27210.7 1124.37   1
  -4  -2   7 29934.0 1275.98   1
   4  -6   7 27775.5 1013.56   2
  -2   6   7 28273.4 1220.00   3
   2   4  10 1164.01 560.876   3
  -4  -2  10 408.685 475.963   2
   4  -6  10 830.717 493.796   1
  -6   2  10 434.721 498.373   3
  -6   2  10 1545.09 539.530   2
  -6   2  10 1089.33 536.382   1
  -4  -2  10 1100.01 500.905   1
  -4  -2  10 960.937 578.643   3
   6  -4  10 594.782 589.866   3
   6  -4  10 394.774 440.068   1
  -6   2  10 866.448 299.968   4
   4  -6  10 1296.43 649.598   3
  -2   6  10 489.603 528.833   3
  -3   6  -6 31597.0 1171.67   1
  -6   3  -6 31385.4 954.905   1
  -6   3  -6 32723.3 853.745   4
  -6   3  -3 5506.52 366.234   4
   3  -6  -3 5990.13 413.033   3
  -3   6  -3 5183.60 207.476   4
   3   3  -3 5853.58 247.363   4
  -3   6  -3 5776.03 481.564   1
  -6   3  -3 5710.17 369.252   1
   6  -3  -3 5128.71 365.320   4
  -3  -3  -3 5602.96 486.706   3
   3   3  -3 5579.12 359.033   2
  -6   3  -3 5553.08 409.590   2
  -3   6   0 334738. 2002.07   3
   3  -6   0 335824. 2012.39   3
  -6   3   0 343116. 2188.12   2
   6  -3   0 326192. 2158.71   1
   6  -3   0 330793. 2207.32   2
   6  -3   0 335671. 2267.80   4
   3   3   0 331287. 1859.64   3
  -3  -3   0 329652. 2201.77   4
  -6   3   0 330038. 2193.45   1
  -3  -3   0 334438. 1948.16   3
   3   3   0 328012. 1985.36   2
   3  -6   0 339504. 2231.01   1
  -3   6   0 335915. 2282.75   1
  -3  -3   0 335255. 2016.70   2
   3   3   0 330994. 2222.85   4
   6  -3   3 5232.43 367.345   1
   3   3   3 5039.66 450.839   3
   6  -3   3 5034.78 354.716   4
  -3   6   3 5533.92 290.980   1
   6  -3   3 5462.57 398.377   2
  -3   6   3 5790.40 424.853   3
   3  -6   3 5624.02 493.694   1
  -6   3   3 4860.95 430.082   2
   3   3   3 5471.12 465.646   2
  -6   3   3 5479.52 344.603   3
   3  -6   3 5217.85 229.853   2
  -3  -3   3 5389.84 257.306   4
   6  -3   3 5752.63 518.009   3
  -6   3   3 5244.73 373.612   4
   3   3   3 4777.49 410.561   4
  -3  -3   3 5610.03 349.131   2
  -3  -3   3 5407.17 496.371   1
  -6   3   6 39334.8 1310.42   2
   6  -3   6 36307.0 985.819   1
  -3  -3   6 37359.6 1104.43   2
   3  -6   6 36539.7 1241.50   1
  -6   3   6 36983.8 1181.20   3
  -3   6   6 39329.7 1276.34   3
   6  -3   6 35606.5 1205.88   2
   3   3   6 34778.0 1106.94   4
  -3   6   6 36092.5 759.564   1
  -6   3   6 35348.3 940.143   4
   3  -6   6 37542.3 1019.11   2
   3   3   6 37146.1 1375.61   3
   6  -3   6 35173.0 952.120   4
  -3  -3   6 36392.0 1320.35   1
   6  -3   6 35516.0 1451.80   3
  -3  -3   9 949.239 540.680   1
   6  -3   9 805.068 314.986   4
  -6   3   9 405.391 283.924   4
   3   3   9 284.905 524.180   3
  -3  -3   9 184.408 490.565   3
   3  -6   9 214.300 564.737   3
   3   3   9 189.211 111.626   1
  -3   6   9 274.489 294.729   1
  -3  -3   9-613.793 456.933   2
   6  -3   9 615.764 552.549   3
  -6   3   9 205.878 438.742   3
  -6   3   9 359.997 462.119   1
   6  -3   9 237.599 397.876   1
  -3   6   9 508.687 472.703   3
   3  -6   9 417.676 440.546   1
  -6   3   9 632.375 513.645   2
  -3   6   9 374.248 221.545   1
  -6   4  -7 26510.7 979.945   1
   4   2  -4 8885.80 329.501   4
  -6   4  -4 9317.25 534.529   1
  -6   4  -4 8605.04 529.596   2
  -4   6  -4 9559.16 619.042   1
  -2  -4  -4 10067.2 680.725   3
  -4   6  -4 7951.28 285.007   4
  -6   4  -4 9042.12 444.762   4
   2  -6  -4 9798.60 646.538   3
  -2  -4  -1 5279.02 380.625   4
  -4   6  -1 5178.26 301.880   4
  -4   6  -1 5599.84 405.039   1
  -6   4  -1 5842.63 381.020   1
   4   2  -1 5750.02 259.554   3
   2  -6  -1 5446.59 311.692   1
  -2  -4  -1 4826.15 367.515   2
   4   2  -1 5330.75 321.642   2
   4   2  -1 5280.73 317.270   4
  -6   4  -1 5790.74 346.315   4
   6  -2  -1 5345.17 342.589   4
  -2  -4  -1 5340.58 288.495   1
  -6   4  -1 5992.86 331.570   2
  -4   6  -1 5457.18 221.641   2
   2  -6  -1 5161.74 324.489   3
   6  -2  -1 4813.08 357.143   2
  -2  -4  -1 5055.57 345.755   3
   4   2   2 27583.6 788.480   4
  -6   4   2 27319.2 808.985   2
   6  -2   2 28001.3 735.984   4
   2  -6   2 26995.1 832.003   1
  -4   6   2 29694.3 669.863   3
   6  -2   2 28062.9 745.873   2
  -2  -4   2 28431.2 530.987   2
  -2  -4   2 28533.2 656.067   3
  -6   4   2 28016.7 718.948   4
  -2  -4   2 27219.1 519.390   4
   4   2   2 27591.0 808.371   2
  -6   4   2 27852.4 720.643   1
  -4   6   2 28199.5 646.215   1
  -6   4   2 28119.4 478.293   3
   6  -2   2 29059.4 658.342   1
   4   2   2 28189.9 787.054   3
   6  -2   2 26607.7 832.023   3
  -2  -4   2 28565.9 884.169   1
  -6   4   5 19369.6 897.318   2
   4   2   5 19250.1 954.187   3
  -6   4   5 20335.8 791.738   3
   6  -2   5 19975.7 652.817   1
   6  -2   5 17934.5 705.943   4
   4   2   5 17983.9 356.496   1
  -2  -4   5 19184.7 928.996   1
   4   2   5 19499.7 802.888   4
  -6   4   5 18518.9 685.963   4
   2  -6   5 20444.7 919.039   1
   4   2   5 18672.1 937.322   2
  -4   6   5 19977.5 846.078   3
  -2  -4   5 19703.2 717.441   2
   6  -2   5 18544.8 968.928   3
  -4   6   5 18277.4 590.541   1
   6  -2   5 19155.9 866.698   2
  -2  -4   8 34.6940 443.786   1
   2  -6   8-3.90454 315.126   2
   4   2   8 45.2232 149.251   1
  -2  -4   8 269.677 355.745   2
   2  -6   8-201.398 417.261   1
  -2  -4   8 73.3950 469.712   3
  -6   4   8-588.474 439.656   1
  -4   6   8 282.276 243.461   1
   6  -2   8 82.7785 272.685   4
   6  -2   8 109.849 325.997   1
  -4   6   8 344.183 330.131   1
  -4   6   8 559.868 429.817   3
   2  -6   8-172.219 536.396   3
  -6   4   8-95.3595 262.087   4
   4   2   8 601.729 517.812   3
  -6   4   8-182.590 380.370   3
   6  -2   8-321.465 495.187   3
  -6   4   8 139.862 477.427   2
  -2  -4  11 3593.34 752.920   3
  -4   6  11 4568.81 704.271   3
   2  -6  11 5083.94 936.730   3
  -6   4  11 4395.16 748.112   3
   4   2  11 3404.17 787.518   3
   2  -6  11 4778.85 702.705   2
  -4   6  11 3623.52 512.494   4
  -6   4  11 4455.63 814.720   2
  -2  -4  11 5437.75 781.598   1
   2  -6  11 4623.88 704.761   1
  -6   4  11 4338.05 683.671   1
  -2  -4  11 4942.75 717.110   2
   6  -2  11 4333.67 842.958   3
  -5   6  -5 12495.5 701.976   1
   1  -6  -5 11576.9 752.990   3
  -6   5  -5 11832.0 465.281   4
  -5   6  -5 10842.8 365.319   4
  -6   5  -5 12162.5 662.515   1
  -5   6  -2 296.179 146.433   2
  -6   5  -2 146.590 243.485   1
   1  -6  -2 726.695 254.441   3
   5   1  -2 467.451 188.767   4
  -5   6  -2 333.493 181.169   4
   6  -1  -2 457.500 250.126   2
  -1  -5  -2 562.272 131.211   1
  -1  -5  -2 685.428 260.732   3
   5   1  -2 79.9034 211.929   2
   1  -6  -2 490.772 161.123   1
  -6   5  -2 441.427 196.376   2
  -5   6  -2 539.503 267.622   1
   6  -1  -2 215.580 184.324   4
  -6   5  -2 196.424 190.366   4
  -5   6   1 92248.5 1219.90   1
   6  -1   1 90398.4 1253.04   2
  -1  -5   1 92902.7 1399.32   1
  -1  -5   1 92395.0 1116.20   3
  -5   6   1 89737.6 1271.57   2
  -5   6   1 91347.1 978.402   3
   6  -1   1 88474.1 1146.27   3
   6  -1   1 90951.6 1312.03   4
  -6   5   1 89957.5 1210.93   1
  -1  -5   1 89219.5 828.291   2
  -6   5   1 90596.0 1274.29   4
   5   1   1 92806.4 1269.70   2
  -6   5   1 89109.2 1275.01   2
   5   1   1 91066.4 1318.34   4
   1  -6   1 93053.6 1397.51   1
   1  -6   1 94567.3 1171.37   3
  -5   6   1 92241.4 1295.21   4
   5   1   1 86562.9 1118.41   3
  -6   5   1 90386.2 790.124   3
  -5   6   4 223.662 188.704   1
  -6   5   4 512.611 356.328   2
   6  -1   4 307.264 381.732   3
  -6   5   4 466.435 250.546   4
  -5   6   4-206.062 256.093   3
  -1  -5   4-376.998 385.591   1
  -6   5   4 319.113 236.650   3
   6  -1   4 283.701 256.322   4
   6  -1   4 774.580 236.827   1
   5   1   4 645.970 330.269   2
   5   1   4 527.970 286.923   4
  -1  -5   4 325.246 214.047   2
   6  -1   4 419.937 296.862   2
   5   1   4 515.898 156.037   1
   1  -6   4 262.703 372.952   1
   5   1   4 320.360 390.720   3
  -5   6   7 25228.5 1098.62   3
   5   1   7 22593.9 581.888   1
  -6   5   7 21056.7 826.968   4
   6  -1   7 22630.6 1207.96   3
  -6   5   7 23560.3 1039.22   3
   6  -1   7 23062.5 739.279   1
   1  -6   7 22138.2 1087.34   1
  -1  -5   7 22733.9 909.327   2
  -1  -5   7 23079.2 1128.29   1
   5   1   7 21942.5 1178.06   3
  -5   6   7 20917.5 733.393   1
   6  -1   7 21108.2 879.598   4
   5   1   7 20381.2 897.246   4
  -5   6  10 542.314 458.469   3
   6  -1  10 233.819 316.226   1
   1  -6  10 116.504 422.023   2
   6  -1  10 966.403 577.801   3
  -1  -5  10 1042.68 684.403   3
   1  -6  10 384.959 609.581   3
  -6   5  10 378.174 296.810   4
  -5   6  10 1045.55 381.565   4
  -1  -5  10 875.145 526.173   1
  -5   6  10 1057.40 446.443   1
  -6   5  10 274.722 557.455   2
  -6   5  10 872.229 492.279   1
  -6   5  10 714.795 472.015   3
  -1  -5  10 1084.14 479.951   2
   5   1  10-36.4408 532.315   3
   1  -6  10 407.524 522.181   1
  -6   6  -6 29919.9 665.453   4
  -6   6  -6 31856.0 1119.35   1
  -6   6  -3-499.638 284.764   1
   0  -6  -3 477.427 305.099   3
   6   0  -3 243.511 278.243   2
  -6   6  -3-17.3798 176.387   4
  -6   6  -3 86.4691 196.094   2
   6   0  -3-66.3879 178.920   4
   6   0   0 3643.04 340.626   4
   6   0   0 3939.43 234.851   3
  -6   6   0 3472.71 312.796   2
   0  -6   0 3694.03 305.406   3
   0  -6   0 3756.27 356.577   1
   6   0   0 3481.88 323.514   2
  -6   6   0 3752.30 361.087   1
  -6   6   0 4005.15 349.854   4
   6   0   3 81.7772 304.073   3
   6   0   3 192.064 245.187   4
  -6   6   3 106.667 208.695   1
  -6   6   3 155.207 191.269   3
   0  -6   3 255.729 328.288   1
   0  -6   3-34.7188 130.093   2
  -6   6   3-146.590 254.899   4
   6   0   3-76.7881 281.291   2
   6   0   3-188.618 174.118   1
  -6   6   3-52.5278 314.125   2
   0  -6   6 27424.7 1170.18   1
  -6   6   6 24239.6 805.358   1
   6   0   6 25107.1 1205.61   3
  -6   6   6 26338.6 934.268   4
  -6   6   6 27447.1 1038.69   3
   0  -6   6 27616.3 862.354   2
   6   0   6 27381.1 667.404   1
   6   0   6 25429.5 948.396   4
  -6   6   9-161.521 436.359   1
   0  -6   9 675.117 604.186   3
   6   0   9 93.1000 222.364   1
   6   0   9 130.681 489.097   3
   0  -6   9 96.4498 372.666   2
   0  -6   9-155.403 462.121   1
  -6   6   9-45.5797 397.838   3
  -6   6   9-98.8141 292.437   4
  -7   0  -7 164.280 197.876   1
  -7   0  -4 14104.3 484.280   1
  -7   0  -4 13016.5 818.273   3
  -7   0  -4 13383.6 672.141   4
  -7   0  -4 14256.0 759.812   2
   7  -7  -4 14338.7 642.710   3
   0   7  -4 13505.2 787.090   1
   7  -7  -1-272.537 159.367   3
  -7   0  -1 258.014 263.405   2
   0   7  -1-24.1906 214.193   3
   7  -7  -1-161.801 225.268   1
  -7   0  -1-258.532 188.749   1
  -7   0  -1 77.4804 211.985   3
   7  -7  -1-125.478 265.241   2
  -7   0  -1 302.535 266.134   4
   0   7  -1 18.1171 130.471   2
   0   7  -1-5.23860 189.044   4
   0   7  -1-2.62508 267.728   1
   7  -7  -1 61.5457 231.272   4
  -7   0   2 59717.4 1151.68   2
  -7   0   2 58657.1 646.532   3
   0   7   2 57346.0 849.189   1
   7  -7   2 57071.7 1019.87   4
   7  -7   2 57751.8 1200.31   1
  -7   0   2 58647.6 1073.17   4
   7  -7   2 60530.2 912.757   2
   0   7   2 58524.8 1145.25   3
  -7   0   5 52.9483 262.383   3
   7  -7   5-17.5649 228.465   2
   0   7   5 400.752 343.227   3
   7  -7   5-16.4447 179.228   4
   7  -7   5-81.4955 332.371   1
  -7   0   5 189.104 210.935   4
  -7   0   5-296.578 310.122   2
   0   7   5 243.215 279.225   4
   7  -7   8 52408.0 2101.15   3
  -7   0   8 51395.3 1687.63   3
  -7   0   8 48745.5 1597.44   2
  -7   0   8 51671.6 1828.40   1
   7  -7   8 49516.0 1519.42   1
   0   7   8 52170.8 1795.00   3
  -7   0   8 47293.7 1049.88   4
  -7   0  11 296.201 428.749   2
   7  -7  11-40.4799 518.632   1
   7  -7  11 712.211 676.554   3
  -7   0  11 43.8011 535.304   1
   0   7  11 433.414 544.423   3
  -7   0  11-289.863 501.935   3
   6  -7  -5 12560.6 709.080   3
  -7   1  -5 11866.6 632.858   4
  -6  -1  -5 11520.5 401.361   1
  -7   1  -5 12411.3 507.967   1
  -1   7  -5 11597.2 743.169   1
  -6  -1  -5 12597.6 662.633   4
   7  -6  -5 13410.8 699.393   3
  -6  -1  -2 6377.02 463.294   4
   6  -7  -2 6661.83 358.718   3
   7  -6  -2 6405.51 302.458   3
  -7   1  -2 6196.93 472.319   3
  -7   1  -2 6544.57 445.764   4
  -6  -1  -2 6623.65 473.322   2
   1   6  -2 5917.14 474.932   1
  -7   1  -2 6729.61 356.624   1
  -7   1  -2 6043.25 441.947   2
   7  -6  -2 6170.69 418.435   1
  -6  -1  -2 6440.99 315.158   1
   1   6  -2 6365.25 246.957   2
  -1   7  -2 5789.31 469.700   1
   1   6  -2 6028.01 310.263   4
  -6  -1  -2 5993.63 449.080   3
   6  -7  -2 6615.64 397.064   1
   1   6   1 4097.40 361.331   2
   6  -7   1 3963.62 321.195   4
   1   6   1 4343.87 326.307   1
  -6  -1   1 3978.11 340.803   4
  -7   1   1 4294.72 371.287   4
   6  -7   1 4026.30 411.408   1
  -6  -1   1 4392.46 225.757   3
   1   6   1 3924.17 349.787   3
  -7   1   1 4268.02 366.057   2
   6  -7   1 3967.34 280.844   2
   7  -6   1 3869.18 330.208   4
   1   6   1 3448.68 343.840   4
  -1   7   1 3923.99 324.667   3
   7  -6   1 4301.35 393.570   1
  -6  -1   1 3961.62 331.830   2
  -1   7   1 3876.80 313.467   1
   7  -6   1 4026.14 309.813   2
  -7   1   4 17402.6 772.390   2
  -7   1   4 16320.6 632.249   3
   6  -7   4 17885.7 786.919   1
   6  -7   4 17207.8 575.933   2
   7  -6   4 17436.0 752.560   1
   1   6   4 17692.5 789.701   4
  -1   7   4 16797.7 779.372   3
  -6  -1   4 16872.3 561.018   4
   7  -6   4 16463.8 643.108   2
   1   6   4 15548.9 780.927   3
   6  -7   4 16879.7 506.367   4
   1   6   4 16362.0 836.539   2
   7  -6   4 17315.5 582.954   4
  -7   1   4 16941.0 621.236   4
  -6  -1   4 17940.8 726.482   2
   1   6   7 9482.82 795.135   3
  -6  -1   7 8540.50 660.644   2
   6  -7   7 7770.36 343.784   4
  -7   1   7 8095.54 662.990   3
  -7   1   7 9242.33 524.023   4
  -1   7   7 8900.47 753.594   3
  -6  -1   7 8896.31 735.888   3
  -7   1   7 8639.39 742.197   1
   6  -7   7 7588.76 681.837   1
  -6  -1   7 8586.21 784.419   1
   6  -7   7 9051.13 910.245   3
  -6  -1   7 8888.37 434.333   4
  -7   1   7 8412.21 694.279   2
   7  -6   7 9623.02 906.096   3
   6  -7   7 8715.33 588.779   2
   7  -6   7 9609.04 674.619   1
   7  -6   7 8362.07 652.237   2
   7  -6   7 8507.62 467.024   4
  -7   1  10 2000.64 584.416   3
   7  -6  10 830.284 653.272   3
  -7   1  10 1373.13 613.384   1
  -6  -1  10 2436.83 613.154   1
   6  -7  10 2141.99 589.966   1
  -7   1  10 2053.00 523.636   2
   6  -7  10 1422.61 703.886   3
   1   6  10 2112.22 649.466   3
  -1   7  10 2168.54 580.742   3
   7  -6  10 1796.85 539.286   1
  -6  -1  10 1814.56 612.548   3
  -6  -1  10 1958.38 585.858   2
  -7   2  -6 15295.3 679.057   4
  -7   2  -6 13432.9 598.915   1
  -5  -2  -3 68299.0 1423.21   2
   5  -7  -3 70438.4 1256.69   3
   7  -5  -3 69471.4 1063.49   3
  -2   7  -3 67477.7 1476.66   1
   2   5  -3 68909.3 778.521   4
  -2   7  -3 66212.3 700.841   4
  -7   2  -3 68642.1 1096.72   1
  -7   2  -3 67010.3 1256.28   4
   2   5  -3 68119.8 984.973   2
  -7   2  -3 65612.3 1305.61   2
  -5  -2  -3 69944.5 756.438   1
  -5  -2  -3 67642.1 1319.20   4
  -5  -2  -3 68438.3 1478.53   3
  -5  -2   0 122661. 1416.64   2
   5  -7   0 122657. 1277.99   3
  -7   2   0 121341. 1431.39   1
   2   5   0 122237. 1301.41   3
   7  -5   0 123010. 1508.75   1
   2   5   0 122525. 1478.68   4
   7  -5   0 123752. 1472.54   2
   7  -5   0 122481. 1498.96   4
  -2   7   0 122657. 1373.76   3
   5  -7   0 122411. 1522.85   1
  -2   7   0 119601. 1494.49   1
  -5  -2   0 119725. 1213.29   3
   2   5   0 124041. 1283.75   2
  -7   2   0 124400. 1534.62   4
  -5  -2   0 122763. 1510.71   4
  -7   2   3 86812.5 1314.55   4
  -7   2   3 89271.3 1542.22   2
   7  -5   3 90469.0 1435.28   1
   2   5   3 91997.1 1679.67   2
   5  -7   3 87989.9 1038.92   4
   7  -5   3 88957.6 1277.05   4
   2   5   3 87615.5 1564.12   4
   2   5   3 90190.4 1568.20   3
  -2   7   3 87815.0 945.391   1
  -2   7   3 90436.3 1481.27   3
  -5  -2   3 87993.0 1116.14   4
   5  -7   3 85038.5 1527.72   1
  -5  -2   3 88821.4 1339.88   2
   7  -5   3 88491.3 1318.59   2
   5  -7   3 91136.2 970.177   2
   2   5   6 9939.83 747.012   3
  -7   2   6 9103.87 686.697   2
   5  -7   6 9614.43 687.049   1
   7  -5   6 8237.59 609.445   2
   5  -7   6 8740.71 525.293   2
   7  -5   6 8780.48 593.944   1
  -2   7   6 7749.10 303.066   1
  -7   2   6 8672.16 607.678   3
  -5  -2   6 9145.91 764.716   1
   2   5   6 8434.75 629.142   4
   7  -5   6 7109.83 764.616   3
  -2   7   6 9289.61 711.326   3
  -7   2   6 8488.06 485.297   4
  -5  -2   6 8315.92 579.820   2
  -2   7   6 6888.82 329.819   1
   5  -7   6 6966.36 263.393   4
  -5  -2   6 8622.59 363.540   4
   7  -5   6 8057.31 470.660   4
  -5  -2   9 27204.4 1452.21   3
  -2   7   9 23342.7 1277.26   3
   2   5   9 23344.1 1332.53   3
   5  -7   9 27286.3 1646.95   3
  -7   2   9 23528.6 1231.67   3
   7  -5   9 25457.5 1105.25   1
  -5  -2   9 22790.7 1155.05   2
   5  -7   9 24325.0 1204.75   1
  -7   2   9 23795.5 1284.07   1
  -7   2   9 24147.2 1261.92   2
  -5  -2   9 24317.7 1362.38   1
  -7   2   9 22712.1 826.665   4
   7  -5   9 23471.3 1535.18   3
  -7   3  -7 1112.55 330.815   1
  -7   3  -4 21418.2 738.851   4
   3   4  -4 21130.4 407.121   4
  -4  -3  -4 22290.9 971.347   3
  -7   3  -4 23207.0 831.765   2
  -7   3  -4 22828.9 727.677   1
  -3   7  -4 21942.8 913.216   1
   4  -7  -4 22808.6 867.708   3
  -3   7  -1 58740.9 1150.09   1
   4  -7  -1 61112.6 991.114   1
   3   4  -1 62267.5 860.495   2
   4  -7  -1 60382.3 931.441   3
   7  -4  -1 60882.5 1070.96   4
  -3   7  -1 55639.3 554.423   2
  -4  -3  -1 61207.7 1088.45   2
   3   4  -1 63827.0 902.802   3
  -7   3  -1 59597.9 1002.10   1
  -7   3  -1 61915.3 1081.44   4
   7  -4  -1 61712.0 1123.98   2
  -7   3  -1 59987.2 1023.58   2
  -4  -3  -1 60070.4 1020.85   3
   3   4  -1 59759.5 953.911   4
  -4  -3  -1 58106.8 1093.45   4
  -4  -3   2 13434.9 469.452   2
   7  -4   2 13656.0 546.609   1
   3   4   2 11972.0 587.006   4
  -7   3   2 10495.1 249.341   3
  -3   7   2 13391.1 452.249   1
   7  -4   2 13815.4 538.071   2
   3   4   2 12715.6 572.976   3
   7  -4   2 14030.4 548.632   4
  -7   3   2 14153.5 617.780   2
   3   4   2 14428.8 633.781   2
  -3   7   2 14461.0 553.478   3
   4  -7   2 13877.7 647.537   1
  -4  -3   2 14583.8 455.063   3
  -4  -3   2 13335.1 453.213   4
  -7   3   2 13223.6 547.312   4
   7  -4   5 4336.91 574.486   3
   7  -4   5 4307.29 437.945   1
  -7   3   5 4890.94 513.440   2
  -4  -3   5 4182.75 408.055   2
   7  -4   5 4858.33 464.924   2
   3   4   5 4690.36 543.214   3
  -7   3   5 4386.37 362.820   4
   4  -7   5 5127.48 352.169   2
  -4  -3   5 4303.37 236.068   4
   3   4   5 4551.90 463.428   4
   7  -4   5 4325.24 380.084   4
  -3   7   5 4956.50 508.219   3
   4  -7   5 5464.29 538.906   1
  -4  -3   5 4751.64 554.434   1
  -7   3   5 4593.98 416.308   3
  -3   7   5 4474.60 278.487   1
  -4  -3   8 4351.24 559.866   2
  -7   3   8 3724.36 533.529   3
   3   4   8 3834.26 645.937   3
   7  -4   8 3984.26 517.010   1
  -7   3   8 3564.26 401.521   4
   7  -4   8 4581.48 757.591   3
  -7   3   8 3873.26 608.329   2
   4  -7   8 4788.59 636.637   1
  -4  -3   8 4924.21 683.925   1
  -3   7   8 3517.67 300.034   1
   4  -7   8 4372.15 795.469   3
  -3   7   8 4370.88 582.732   3
  -7   3   8 4515.00 628.260   1
  -4  -3   8 4190.17 702.498   3
   7  -4   8 3682.33 419.178   4
   4  -7   8 5351.88 537.122   2
  -3   7   8 3728.95 354.809   1
  -7   3  11 1884.86 548.355   3
   7  -4  11 2307.76 780.259   3
  -4  -3  11 1876.56 623.073   1
   3   4  11 2215.46 649.647   3
  -3   7  11 1761.07 685.097   3
   4  -7  11 1303.76 760.944   3
  -7   3  11 2055.77 630.628   2
  -4  -3  11 2486.83 588.835   2
  -4  -3  11 1714.08 732.112   3
   4  -7  11 2819.40 671.147   1
  -7   3  11 3055.96 678.131   1
  -3   7  11 1820.16 461.008   4
  -7   4  -8 3414.01 477.255   1
  -4   7  -5 4126.25 484.721   1
  -7   4  -5 4230.38 415.291   1
  -7   4  -5 4511.64 369.252   4
   3  -7  -5 4590.77 530.149   3
   3  -7  -2 10214.7 473.649   3
  -3  -4  -2 10250.7 539.696   3
  -7   4  -2 10386.4 487.208   4
   7  -3  -2 11278.3 495.876   4
   7  -3  -2 10850.6 546.039   2
  -3  -4  -2 10192.0 318.011   1
  -7   4  -2 10797.4 503.325   1
  -3  -4  -2 9802.14 519.689   4
   3  -7  -2 10430.3 388.840   1
  -4   7  -2 10252.9 573.507   1
  -7   4  -2 10823.0 484.021   2
  -4   7  -2 10025.4 367.864   4
   4   3  -2 11476.4 441.077   2
   4   3  -2 10432.3 409.308   4
  -3  -4  -2 10227.2 565.782   2
  -7   4   1 61715.4 1078.29   1
  -3  -4   1 62854.0 876.407   2
  -3  -4   1 62600.4 896.630   3
   7  -3   1 63237.6 1101.62   4
  -3  -4   1 64182.5 1198.15   1
  -7   4   1 62208.6 1082.68   4
   4   3   1 65203.9 1118.62   2
   3  -7   1 64807.1 1022.50   3
  -7   4   1 63341.0 1133.12   2
   7  -3   1 61509.6 1042.05   2
  -3  -4   1 61938.0 967.278   4
   7  -3   1 61282.0 1003.63   3
   7  -3   1 63059.2 1050.22   1
  -4   7   1 60798.8 940.591   3
  -4   7   1 62811.8 1023.90   1
   4   3   1 61553.4 1004.59   3
   3  -7   1 62877.0 1185.21   1
   3  -7   4 25538.7 567.803   2
  -4   7   4 25768.7 855.240   3
  -4   7   4 23741.0 626.819   1
   7  -3   4 25587.9 1045.22   3
   4   3   4 22832.0 971.556   3
  -7   4   4 24457.4 767.143   4
   3  -7   4 24811.9 958.921   1
  -7   4   4 25913.3 976.001   2
   4   3   4 26321.4 1009.78   2
   7  -3   4 25625.4 746.834   1
   7  -3   4 25599.1 881.028   2
  -7   4   4 25221.3 745.951   3
   4   3   4 24738.0 879.367   4
   7  -3   4 24648.3 792.728   4
  -3  -4   4 25631.8 733.564   2
  -3  -4   4 23216.8 446.993   4
  -3  -4   4 25839.7 1013.74   1
   7  -3   7 258.032 310.477   1
  -4   7   7 278.075 354.249   3
  -4   7   7 955.887 234.476   1
   7  -3   7 145.594 466.891   3
  -3  -4   7 449.315 335.594   2
  -7   4   7 763.131 348.589   3
  -3  -4   7 1032.80 440.562   1
   3  -7   7 1305.08 442.984   1
   7  -3   7 883.500 302.777   4
   3  -7   7 1050.74 309.053   2
  -7   4   7 965.630 292.443   4
   4   3   7 1232.38 491.699   3
  -7   4   7 1142.94 450.845   2
   3  -7  10 3412.91 660.909   1
  -4   7  10 3403.88 551.105   4
  -3  -4  10 3189.28 577.064   2
  -7   4  10 3188.02 645.043   1
  -7   4  10 2970.86 398.623   4
  -4   7  10 4285.33 699.397   3
  -3  -4  10 3516.19 666.730   1
  -7   4  10 2695.43 645.186   2
   4   3  10 2785.26 653.499   3
   7  -3  10 2977.06 673.732   3
  -4   7  10 2893.86 409.146   1
  -3  -4  10 2970.91 717.379   3
  -7   4  10 2732.87 563.178   3
   3  -7  10 4066.25 808.386   3
   7  -3  10 2913.67 504.659   1
  -7   5  -6 8464.19 587.542   1
  -7   5  -6 7445.76 428.558   4
  -5   7  -6 7309.65 621.393   1
   2  -7  -3 88855.7 909.644   1
   7  -2  -3 92142.6 1614.83   2
   5   2  -3 90409.3 1390.97   2
  -5   7  -3 90225.9 1620.26   1
  -7   5  -3 87030.4 1277.43   4
  -2  -5  -3 84891.1 1582.07   3
  -5   7  -3 86535.3 1022.36   4
   7  -2  -3 86604.2 1308.86   4
  -7   5  -3 86428.6 1427.84   1
  -5   7  -3 83956.4 967.230   2
   2  -7  -3 91496.0 1546.38   3
   5   2  -3 88172.2 1095.45   4
  -7   5  -3 84308.8 1294.05   2
  -7   5   0 98131.3 1338.30   1
  -5   7   0 117013. 1427.29   4
  -5   7   0 112216. 1468.73   1
  -2  -5   0 111222. 1250.96   2
  -7   5   0 112858. 1390.58   2
  -5   7   0 115243. 1229.04   2
   5   2   0 111606. 1122.75   3
   5   2   0 114252. 1361.37   2
  -2  -5   0 114302. 1298.94   3
  -5   7   0 110968. 1227.18   3
  -2  -5   0 110833. 1403.07   4
   7  -2   0 114164. 1488.21   4
   2  -7   0 112285. 1441.52   1
  -7   5   0 113638. 1446.97   4
   7  -2   0 102940. 885.699   3
   7  -2   0 112914. 1425.68   2
  -2  -5   0 113382. 1455.92   1
   5   2   0 113979. 1454.96   4
   2  -7   0 116472. 1331.76   3
  -5   7   3 68365.7 1167.85   3
   7  -2   3 65626.6 1254.37   4
  -7   5   3 64483.5 1397.59   2
  -2  -5   3 68981.2 927.577   2
   7  -2   3 69566.9 1084.81   1
  -7   5   3 65893.9 942.777   3
   2  -7   3 65894.0 1471.94   1
   5   2   3 68015.9 1428.89   3
   5   2   3 67425.9 1429.62   2
   7  -2   3 69468.6 1515.24   3
   7  -2   3 68866.5 1343.10   2
  -7   5   3 65610.9 1222.89   4
  -2  -5   3 67271.8 772.674   4
  -2  -5   3 65934.2 1478.28   1
   5   2   3 67919.4 1353.48   4
  -7   5   3 67741.9 1227.71   1
  -5   7   3 66112.2 1073.73   1
  -7   5   6 15544.9 685.055   4
   5   2   6 16569.1 967.961   3
   7  -2   6 16236.5 633.569   1
   2  -7   6 15974.0 888.533   1
  -2  -5   6 16016.7 696.265   2
   7  -2   6 15833.5 742.933   4
   5   2   6 13351.0 319.922   1
  -7   5   6 16568.5 933.295   2
  -5   7   6 15253.3 586.205   1
  -2  -5   6 15359.2 927.267   1
  -5   7   6 17667.1 864.864   3
  -7   5   6 16170.0 773.515   3
   7  -2   6 16390.7 1033.66   3
   5   2   6 15362.8 783.678   4
   2  -7   6 15485.6 638.664   2
   2  -7   9 2838.85 614.515   1
  -5   7   9 5060.62 702.332   3
  -5   7   9 3621.49 483.408   4
  -7   5   9 3593.55 615.401   1
   7  -2   9 4423.19 791.064   3
  -2  -5   9 3827.34 582.241   2
   5   2   9 1960.72 145.300   1
  -2  -5   9 3931.70 716.981   3
  -7   5   9 3334.95 442.036   4
  -5   7   9 3783.18 501.983   1
   7  -2   9 3535.05 448.681   1
   5   2   9 3951.60 733.742   3
  -2  -5   9 4762.86 738.079   1
  -7   5   9 3488.79 656.370   2
  -7   5   9 3335.15 549.447   3
   2  -7   9 3201.42 800.564   3
  -7   6  -7 7412.11 629.804   1
  -6   7  -4 17689.5 514.521   4
   7  -1  -4 18541.1 633.073   4
  -7   6  -4 18291.5 787.597   1
  -6   7  -4 17099.9 813.394   1
  -7   6  -4 18674.8 697.395   2
   1  -7  -4 19840.5 870.332   3
  -7   6  -4 17605.0 586.137   4
   6   1  -4 18109.3 562.711   4
  -1  -6  -4 19323.3 897.265   3
  -7   6  -1 5191.36 320.412   2
  -1  -6  -1 4694.35 360.919   3
   1  -7  -1 4796.16 354.048   3
  -7   6  -1 4630.61 409.273   1
   6   1  -1 5111.26 233.959   3
   7  -1  -1 4897.01 364.624   4
  -7   6  -1 5132.81 357.442   4
  -6   7  -1 5055.08 277.448   2
   6   1  -1 4575.42 350.306   2
   6   1  -1 4799.94 353.623   4
  -6   7  -1 4889.24 423.352   1
  -1  -6  -1 4906.28 340.315   1
   1  -7  -1 4910.56 337.931   1
  -6   7  -1 4932.81 339.752   4
   7  -1  -1 4452.27 378.475   2
   1  -7   2 4950.67 371.344   3
   7  -1   2 5321.43 421.039   2
  -7   6   2 5022.09 441.716   2
   1  -7   2 5129.46 490.704   1
   7  -1   2 5092.53 413.034   4
  -6   7   2 5804.89 335.372   3
  -6   7   2 5229.21 411.736   4
  -1  -6   2 5174.83 480.967   1
   7  -1   2 4813.43 428.022   3
   6   1   2 4748.85 403.864   3
  -6   7   2 4649.74 433.425   2
   6   1   2 5493.53 435.337   2
  -1  -6   2 5333.96 229.262   2
  -7   6   2 5236.56 387.607   1
   6   1   2 5517.35 423.353   4
  -1  -6   2 5468.88 363.597   3
  -7   6   2 5492.52 278.331   3
  -7   6   2 5062.46 396.289   4
   7  -1   2 5447.53 347.796   1
  -6   7   2 4812.21 356.026   1
  -1  -6   5 10322.7 485.081   2
  -6   7   5 8879.19 491.802   1
   7  -1   5 9514.10 692.347   2
  -7   6   5 10237.1 574.696   3
   7  -1   5 10480.9 466.449   1
  -7   6   5 10495.3 581.568   4
   6   1   5 10338.0 358.501   1
  -7   6   5 10822.6 742.862   2
   1  -7   5 10522.4 749.257   1
  -1  -6   5 9877.34 742.169   1
   6   1   5 9033.40 601.675   4
   1  -7   5 11055.9 460.900   2
  -6   7   5 10031.2 597.743   3
  -7   6   5 10287.0 539.286   1
   6   1   5 9579.49 737.711   3
   7  -1   5 9895.53 591.687   4
   7  -1   5 9959.49 773.272   3
  -1  -6   8 3745.05 484.853   2
   6   1   8 3282.59 260.681   1
  -1  -6   8 4298.49 670.892   1
   7  -1   8 3159.12 643.526   3
  -7   6   8 4632.83 693.106   2
   1  -7   8 3521.15 465.423   2
  -7   6   8 4038.43 562.303   3
   7  -1   8 4024.98 384.199   1
  -6   7   8 2458.42 368.522   1
   7  -1   8 3199.18 462.887   4
  -6   7   8 3580.74 549.518   3
  -6   7   8 4001.81 504.077   4
   6   1   8 2942.39 653.505   3
  -7   6   8 3580.25 443.357   4
   1  -7   8 3643.53 631.252   1
  -6   7   8 3509.16 495.323   1
  -6   7  11 8975.88 1067.50   2
  -6   7  11 7110.10 838.375   3
  -1  -6  11 6999.94 1020.85   3
   1  -7  11 8004.43 911.556   1
   7  -1  11 7170.45 983.829   3
  -6   7  11 6611.23 642.069   4
  -1  -6  11 7668.60 753.074   2
  -1  -6  11 6804.17 899.856   1
  -7   6  11 7537.77 801.816   1
   6   1  11 7458.26 980.012   3
  -7   6  11 7968.70 982.606   2
  -7   6  11 7794.24 852.250   3
   1  -7  11 8212.01 1179.93   3
   1  -7  11 7445.14 752.698   2
  -7   6  11 6927.62 619.961   4
  -7   7  -5 23.2591 327.776   1
   7   0  -5-82.0347 192.751   4
  -7   7  -5-277.211 181.145   4
   7   0  -2 62761.5 1196.52   2
  -7   7  -2 61234.6 1248.28   1
   0  -7  -2 62541.9 831.601   1
   7   0  -2 61438.6 1094.12   4
  -7   7  -2 61331.7 1050.57   4
   0  -7  -2 63225.3 1240.47   3
  -7   7  -2 61304.9 915.398   2
  -7   7   1 91.7842 250.260   2
  -7   7   1-142.882 256.091   1
   7   0   1-39.3429 203.115   3
   0  -7   1-74.6799 184.497   3
  -7   7   1-85.2003 155.739   3
   7   0   1-16.2886 228.330   2
   0  -7   1 135.419 155.142   2
   0  -7   1-65.4717 288.311   1
   7   0   1 279.834 256.427   4
  -7   7   1-275.820 248.252   4
   0  -7   4 12607.3 412.278   2
   7   0   4 11360.7 697.955   2
  -7   7   4 12976.8 656.084   4
   7   0   4 11597.0 638.716   4
   7   0   4 12370.5 453.001   1
   7   0   4 12212.4 775.604   3
  -7   7   4 11546.8 559.930   1
  -7   7   4 11808.5 741.764   2
  -7   7   4 12603.7 558.423   3
   0  -7   4 13161.3 798.579   1
  -7   7   7 111.104 294.214   4
   0  -7   7-285.844 307.171   2
   7   0   7 110.334 189.036   1
   7   0   7 38.2070 435.572   3
  -7   7   7-449.964 266.940   1
   7   0   7 251.897 309.297   4
   0  -7   7-164.357 416.365   1
  -7   7   7 72.3710 317.882   3
   0  -7  10 33321.6 1871.89   3
  -7   7  10 29953.0 1187.40   4
  -7   7  10 33991.9 1535.39   3
  -7   7  10 34602.8 1740.35   2
   0  -7  10 34166.5 1336.76   2
  -7   7  10 30300.9 1323.26   1
   7   0  10 31154.4 1717.39   3
   0  -7  10 34291.5 1622.90   1
  -8   0  -5 237.013 289.673   4
  -8   0  -5 167.372 201.452   1
   8  -8  -5-40.1014 271.136   3
   0   8  -2 80302.0 1131.27   4
  -8   0  -2 76572.7 1455.82   2
   8  -8  -2 78736.0 1358.38   1
  -8   0  -2 81083.7 1503.96   4
  -8   0  -2 79209.0 1474.53   3
   8  -8  -2 78818.4 1107.97   3
   0   8  -2 78759.9 1615.16   1
   0   8  -2 76262.4 723.291   2
  -8   0  -2 80624.2 1182.84   1
   0   8   1-175.859 241.208   2
  -8   0   1 161.441 254.661   2
   0   8   1-24.8344 250.164   3
  -8   0   1 29.7629 261.146   4
   8  -8   1 101.265 307.632   1
   0   8   1 82.0815 225.816   1
  -8   0   1-57.4391 125.185   3
   8  -8   1 111.875 214.181   4
   8  -8   1-144.802 200.285   2
   8  -8   4 22903.5 925.017   1
  -8   0   4 22863.6 757.749   4
   8  -8   4 21798.8 702.897   2
  -8   0   4 22715.9 890.757   2
   8  -8   4 23207.9 705.939   4
   0   8   4 22591.0 934.382   4
   0   8   4 23388.0 935.631   3
  -8   0   7-30.3247 354.837   2
   8  -8   7-3.13871 195.541   4
   8  -8   7 307.427 380.474   1
  -8   0   7 23.6733 240.336   4
  -8   0   7 88.3672 399.399   1
   8  -8   7 92.8640 289.241   2
   8  -8   7 28.9237 532.741   3
   0   8   7 375.168 379.337   3
  -8   0   7-98.8317 340.289   3
  -8   0  10 12436.8 1017.55   3
   0   8  10 13055.2 1111.53   3
   8  -8  10 12171.1 944.867   1
   8  -8  10 12169.5 1262.17   3
  -8   0  10 11570.7 950.846   2
  -8   0  10 12570.4 1102.56   1
   7  -8  -6 443.920 367.550   3
   8  -7  -6 436.026 336.285   3
  -8   1  -6 491.119 250.927   1
  -8   1  -6 505.979 260.670   4
  -7  -1  -6 511.125 168.198   1
  -7  -1  -3 3641.82 469.880   3
  -1   8  -3 3639.65 245.492   4
   8  -7  -3 3439.92 311.089   3
   1   7  -3 3779.58 251.862   4
  -7  -1  -3 4086.85 485.142   2
  -8   1  -3 3409.04 427.927   4
   7  -8  -3 3438.54 364.525   1
   1   7  -3 3199.08 458.653   1
  -8   1  -3 3631.18 340.498   1
  -7  -1  -3 3558.80 278.479   1
  -8   1  -3 3363.10 454.097   3
  -8   1  -3 3003.88 417.652   2
  -7  -1  -3 3708.13 433.929   4
   7  -8  -3 4042.43 374.405   3
  -1   8  -3 3931.86 487.370   1
   1   7   0 496.136 253.174   1
   7  -8   0 689.988 262.145   4
   8  -7   0 595.205 252.370   2
   7  -8   0 763.802 188.036   3
   7  -8   0 375.789 230.386   2
  -1   8   0 515.228 253.760   1
  -1   8   0 598.904 216.210   2
   7  -8   0 701.734 281.957   1
  -1   8   0 528.022 216.718   3
  -7  -1   0 333.179 267.184   2
  -8   1   0 422.848 164.149   3
   8  -7   0 293.072 264.485   1
   8  -7   0 757.708 248.839   4
  -7  -1   0 340.509 181.549   3
   1   7   0 484.935 219.930   3
   1   7   0 161.852 230.231   4
   1   7   0 488.478 207.949   2
  -8   1   0 434.093 258.585   4
  -7  -1   0 409.447 257.685   4
  -8   1   0 603.060 251.998   2
   8  -7   0 579.747 169.503   3
  -7  -1   3 42840.1 755.133   3
   8  -7   3 41232.4 934.091   4
   1   7   3 43050.7 1208.98   2
  -1   8   3 41156.0 691.925   1
  -1   8   3 42785.3 1093.47   3
   1   7   3 42317.6 1173.11   4
  -7  -1   3 42699.1 1055.51   2
   8  -7   3 43296.7 1139.01   1
  -8   1   3 43047.8 1120.86   2
   1   7   3 42517.7 1135.49   3
  -7  -1   3 43053.5 941.913   4
   7  -8   3 44305.5 796.225   2
   7  -8   3 41905.2 1141.26   1
   7  -8   3 42372.3 884.604   4
  -8   1   3 42607.0 989.509   4
   8  -7   3 42788.6 919.180   2
  -8   1   6 3000.43 434.539   3
  -7  -1   6 3596.57 589.331   1
   8  -7   6 3333.75 409.007   2
  -1   8   6 3980.51 564.499   3
   1   7   6 2806.03 481.049   3
   7  -8   6 2928.65 357.773   2
   7  -8   6 2783.51 255.512   4
  -7  -1   6 3229.46 437.524   2
   8  -7   6 3397.27 660.802   3
   8  -7   6 3139.99 335.010   4
   8  -7   6 2882.41 429.817   1
  -7  -1   6 3060.32 471.601   3
  -8   1   6 3319.33 500.642   2
  -8   1   6 3052.45 332.646   4
   7  -8   6 2850.01 471.991   1
  -7  -1   6 3510.55 329.053   4
   7  -8   9 31203.6 1373.40   1
   8  -7   9 32684.9 1314.78   1
  -7  -1   9 33002.1 1522.14   3
   1   7   9 31630.5 1549.38   3
   8  -7   9 35820.8 1888.34   3
  -8   1   9 31462.3 1401.12   2
  -8   1   9 31890.3 1434.11   3
  -7  -1   9 32624.5 1603.22   1
   7  -8   9 35763.7 1911.64   3
  -1   8   9 32173.0 1523.30   3
  -8   1   9 29270.2 914.706   4
  -8   1   9 33690.7 1596.29   1
  -7  -1   9 33110.7 1400.64   2
  -8   2  -7 32908.8 946.420   1
  -8   2  -4 17003.3 781.398   2
  -6  -2  -4 16723.2 868.736   3
   8  -6  -4 17108.0 663.659   3
  -6  -2  -4 16807.7 754.602   4
   6  -8  -4 17272.5 738.886   3
  -6  -2  -4 14938.5 402.380   1
  -6  -2  -4 17512.9 834.539   2
   2   6  -4 14580.3 338.222   4
  -8   2  -4 17434.1 733.956   4
  -2   8  -4 16422.4 861.978   1
  -8   2  -4 16201.4 597.142   1
   2   6  -1 18205.9 722.575   1
  -6  -2  -1 18442.8 683.238   2
  -6  -2  -1 19000.8 714.324   4
  -8   2  -1 18438.4 619.161   1
  -2   8  -1 16864.3 358.162   2
  -8   2  -1 18374.5 656.137   2
  -2   8  -1 17750.8 739.633   1
  -2   8  -1 15784.5 598.711   3
  -6  -2  -1 17279.9 604.341   3
   2   6  -1 18431.0 486.135   2
   8  -6  -1 17856.5 684.417   2
   2   6  -1 19383.4 595.919   3
   8  -6  -1 18523.3 675.697   1
  -8   2  -1 19127.9 705.656   4
   6  -8  -1 17388.3 532.987   3
  -8   2  -1 17876.9 586.466   3
   8  -6  -1 17917.5 677.701   4
   8  -6  -1 18908.4 384.088   3
   2   6  -1 17892.3 593.175   4
   6  -8  -1 18590.7 642.204   1
   2   6   2 33491.5 974.206   2
  -2   8   2 31626.4 850.094   3
  -8   2   2 30791.2 900.246   2
   8  -6   2 33273.3 903.534   1
  -6  -2   2 32946.9 818.367   2
  -8   2   2 33181.2 858.931   4
  -6  -2   2 31502.5 606.083   3
  -2   8   2 32223.3 701.313   1
   6  -8   2 31948.1 758.043   4
   8  -6   2 32149.7 781.793   2
   6  -8   2 31480.6 578.189   2
   8  -6   2 32029.0 829.768   4
  -6  -2   2 31179.1 773.684   4
   2   6   2 31743.1 947.412   4
   6  -8   2 31960.4 934.947   1
   2   6   2 32381.4 901.778   3
   8  -6   5 6497.17 662.096   3
   2   6   5 6960.05 630.320   3
   2   6   5 7421.20 593.648   4
  -6  -2   5 6015.68 353.753   4
  -8   2   5 6373.63 580.237   2
   6  -8   5 6068.41 550.444   1
  -6  -2   5 6088.85 632.753   1
  -8   2   5 6301.87 478.186   3
  -2   8   5 7271.58 592.326   3
   6  -8   5 6449.23 401.097   2
  -8   2   5 6590.49 455.751   4
  -6  -2   5 5977.42 508.098   2
   8  -6   5 6002.04 409.207   4
   8  -6   5 6196.83 484.151   2
   8  -6   5 6370.88 526.556   1
   6  -8   5 5914.01 304.582   4
  -2   8   5 5214.14 247.783   1
   6  -8   8 10727.5 1076.22   3
  -8   2   8 9600.09 745.676   3
  -6  -2   8 8303.98 853.472   1
  -2   8   8 10464.5 899.395   3
  -8   2   8 8719.91 798.730   1
   6  -8   8 8588.65 639.811   2
  -6  -2   8 9754.16 873.031   3
   2   6   8 9210.60 875.947   3
  -6  -2   8 8224.74 723.891   2
   8  -6   8 10368.6 759.494   1
  -8   2   8 8958.65 780.946   2
   8  -6   8 8435.07 516.354   4
  -6  -2   8 6936.71 328.177   4
  -8   2   8 8955.92 560.321   4
   6  -8   8 9167.44 776.859   1
   8  -6   8 9660.19 1007.58   3
   2   6  11 9120.12 1023.90   3
  -2   8  11 7928.54 913.939   3
   8  -6  11 8403.63 824.553   1
   6  -8  11 8644.04 897.327   1
   8  -6  11 11285.6 1278.55   3
  -6  -2  11 11194.8 1134.96   3
   6  -8  11 9956.73 1256.44   3
  -8   2  11 9311.31 1017.96   1
  -8   2  11 10955.5 983.275   2
  -6  -2  11 9982.93 1028.52   1
  -8   2  11 10353.9 1002.03   3
  -6  -2  11 8639.53 884.575   2
  -8   3  -8 15891.2 764.572   1
  -8   3  -5 15925.4 676.766   4
  -3   8  -5 14955.8 857.575   1
  -8   3  -5 15127.3 639.099   1
   5  -8  -5 16944.9 842.007   3
  -3   8  -2 12642.4 668.020   1
   5  -8  -2 12768.5 496.673   1
   3   5  -2 13363.5 437.407   2
  -5  -3  -2 11429.8 583.200   3
   8  -5  -2 11453.5 607.033   2
   8  -5  -2 10290.8 298.816   3
   5  -8  -2 13196.5 540.817   3
   8  -5  -2 12564.1 573.451   4
  -8   3  -2 13179.7 589.360   4
  -8   3  -2 11747.4 551.696   2
  -5  -3  -2 12388.7 631.912   2
  -5  -3  -2 12472.1 616.668   4
  -8   3  -2 12088.7 524.322   1
   3   5  -2 13256.7 463.507   4
  -8   3   1 64949.0 1203.57   1
  -5  -3   1 66675.5 905.570   3
   5  -8   1 65472.3 1237.00   1
   3   5   1 68509.0 1193.74   2
  -3   8   1 65857.9 1088.07   3
  -8   3   1 65299.5 1238.54   2
   5  -8   1 64183.0 810.896   2
   8  -5   1 69209.8 1121.68   2
   8  -5   1 67033.4 1180.35   4
   5  -8   1 69285.4 1110.06   3
  -3   8   1 66410.9 1098.43   1
   8  -5   1 67735.5 1191.16   1
  -5  -3   1 65915.7 1119.56   4
   3   5   1 65983.7 1135.80   3
  -5  -3   1 65299.7 1068.63   2
  -8   3   1 68622.6 1203.80   4
   3   5   1 67467.1 1259.56   4
   8  -5   4 44531.5 1410.18   3
   8  -5   4 47622.9 1141.37   2
   8  -5   4 48377.5 1064.43   4
  -5  -3   4 50541.3 1427.11   1
   3   5   4 47838.1 1261.61   4
  -5  -3   4 48661.3 1091.35   2
  -3   8   4 49505.3 824.233   1
  -5  -3   4 49807.5 850.141   4
  -8   3   4 48941.1 1327.11   2
   3   5   4 51549.0 1433.42   2
  -8   3   4 48928.5 1088.58   4
  -3   8   4 48254.8 1222.25   3
  -8   3   4 48955.8 966.398   3
   8  -5   4 48625.9 1148.34   1
   3   5   4 50713.3 1371.46   3
   5  -8   4 49158.8 1327.89   1
   5  -8   4 51442.3 790.085   2
  -3   8   7 3945.34 267.925   1
  -3   8   7 4823.22 570.529   3
  -5  -3   7 5261.71 637.942   3
   8  -5   7 4682.92 517.272   1
   8  -5   7 4643.91 424.294   4
  -5  -3   7 5280.82 686.851   1
  -5  -3   7 3417.22 203.870   4
  -8   3   7 4572.68 448.186   4
  -5  -3   7 5193.63 546.033   2
  -8   3   7 5094.91 637.967   2
   5  -8   7 5402.30 621.440   1
  -8   3   7 4836.25 501.337   3
   8  -5   7 4603.33 694.759   3
  -3   8   7 3576.07 307.330   1
   5  -8   7 4634.32 446.824   2
   3   5   7 5123.58 660.769   3
  -5  -3  10 3468.83 636.701   2
  -8   3  10 3838.22 658.629   3
  -5  -3  10 3382.74 693.947   3
   8  -5  10 3563.25 568.765   1
   3   5  10 2935.91 674.287   3
  -8   3  10 3719.93 715.778   1
  -5  -3  10 3773.62 791.260   1
   5  -8  10 3852.39 682.555   1
  -8   3  10 3187.53 624.051   2
   8  -5  10 3512.03 830.575   3
  -3   8  10 3877.78 683.352   3
  -8   3  10 2826.34 390.429   4
   5  -8  10 2831.18 824.374   3
  -8   4  -6 1878.96 326.367   4
  -8   4  -6 1465.96 344.769   1
  -4   8  -3 44584.6 1227.98   1
   4  -8  -3 45304.4 1083.60   3
  -4  -4  -3 41800.6 506.583   1
   4  -8  -3 44041.5 807.439   1
   4   4  -3 44875.3 771.933   4
  -4   8  -3 44181.4 700.684   4
  -8   4  -3 40961.8 1010.05   2
  -8   4  -3 42649.5 991.713   1
  -8   4  -3 43101.0 1015.04   4
   8  -4  -3 44908.3 1046.36   4
   8  -4  -3 46214.2 1229.41   2
   4   4  -3 45394.4 921.957   2
  -4  -4  -3 42832.8 1187.99   3
  -4  -4  -3 43375.2 1115.19   4
  -4   8   0 10449.3 456.637   3
   8  -4   0 10739.3 517.496   4
  -8   4   0 10403.8 499.895   1
   4   4   0 10303.1 505.017   4
   4   4   0 10697.8 468.931   2
   4   4   0 11190.4 448.701   3
  -8   4   0 8300.81 467.093   4
  -4  -4   0 10819.2 519.351   4
   8  -4   0 10344.7 511.366   2
  -8   4   0 10861.8 499.664   2
   4  -8   0 11305.1 538.262   1
  -4  -4   0 11273.8 478.133   2
   8  -4   0 10616.6 526.406   1
  -4   8   0 10146.4 515.319   1
  -4  -4   0 10336.0 445.664   3
   4  -8   0 10115.5 444.362   3
   8  -4   3 45553.8 1070.91   2
   8  -4   3 48169.1 1284.27   3
   8  -4   3 46465.0 1016.07   1
   4   4   3 44769.7 1159.45   4
   4  -8   3 42668.8 482.006   2
  -8   4   3 45032.5 711.388   3
  -4   8   3 47090.7 1061.23   3
  -4  -4   3 45187.6 1289.20   1
  -8   4   3 46047.1 1044.50   4
  -4  -4   3 46012.3 939.470   3
  -4  -4   3 47367.3 806.690   4
  -8   4   3 46169.2 1201.40   2
   4   4   3 42830.6 1195.00   2
   8  -4   3 44796.7 1046.59   4
   4   4   3 46601.9 1191.26   3
   4  -8   3 46180.0 1238.80   1
  -4   8   3 46658.1 881.762   1
  -4  -4   3 47039.3 916.325   2
  -8   4   6 1936.88 344.163   3
   4  -8   6 2145.81 464.316   1
  -8   4   6 2674.58 505.380   2
  -4   8   6 2702.18 439.457   3
   4  -8   6 2423.54 293.307   2
  -4  -4   6 2491.46 518.480   1
   8  -4   6 2509.69 373.362   1
   4   4   6 2782.21 545.097   3
  -4   8   6 2307.13 255.230   1
  -4  -4   6 2165.51 363.632   2
   8  -4   6 2904.88 589.105   3
   4   4   6 2598.81 417.988   4
  -8   4   6 2997.44 366.002   4
  -4  -4   6 1343.12 113.619   4
   8  -4   6 2003.17 324.718   4
  -4   8   9 7451.57 775.782   3
  -4  -4   9 7072.98 924.036   3
   4  -8   9 6024.85 958.617   3
   8  -4   9 7133.52 616.489   1
  -8   4   9 6877.86 789.743   1
  -4   8   9 5892.83 463.814   1
   4   4   9 7017.45 870.224   3
   4  -8   9 6488.53 760.210   1
  -4  -4   9 7137.43 841.471   1
  -8   4   9 7308.61 742.166   3
  -8   4   9 6052.82 540.775   4
   8  -4   9 6727.28 946.171   3
  -8   4   9 6560.42 764.123   2
  -4  -4   9 7015.90 695.265   2
  -8   5  -7 4566.52 393.049   4
  -8   5  -7 3527.11 475.966   1
  -3  -5  -4 50123.1 1410.07   3
  -5   8  -4 52395.2 1401.46   1
  -5   8  -4 48799.3 739.628   4
   8  -3  -4 54007.8 1162.26   4
  -8   5  -4 49136.5 1065.47   4
  -8   5  -4 50442.3 1186.06   1
   5   3  -4 50161.0 811.933   4
  -8   5  -4 52502.3 1192.89   2
   3  -8  -4 52620.6 1352.11   3
   5   3  -1 68208.0 1131.82   4
  -5   8  -1 64558.8 1271.62   1
  -8   5  -1 66420.7 1196.23   1
   3  -8  -1 68147.1 1105.76   3
  -5   8  -1 67966.2 1078.92   4
  -3  -5  -1 67736.0 1040.57   1
   5   3  -1 69709.1 918.906   3
  -3  -5  -1 67404.6 1207.40   2
  -5   8  -1 67864.8 780.217   2
  -8   5  -1 68539.9 1199.59   4
   5   3  -1 68741.1 1074.38   2
  -3  -5  -1 66247.3 1165.33   3
   8  -3  -1 69197.0 1209.38   4
  -8   5  -1 68338.8 1108.27   2
   8  -3  -1 68662.9 1256.08   2
   3  -8  -1 67131.1 1073.49   1
  -3  -5  -1 66329.9 1241.45   4
   8  -3   2 11994.2 512.503   1
   5   3   2 11250.4 552.888   3
  -3  -5   2 11482.6 469.742   3
  -8   5   2 12110.9 294.231   3
   8  -3   2 11746.6 606.352   3
   5   3   2 11478.7 593.215   2
   3  -8   2 11734.2 547.355   3
  -3  -5   2 10573.0 633.721   1
  -8   5   2 10988.6 605.559   2
  -8   5   2 11028.8 538.198   4
  -3  -5   2 11579.0 440.264   4
  -5   8   2 12155.7 521.399   1
  -5   8   2 11926.3 494.268   3
   5   3   2 11544.8 600.260   4
   3  -8   2 10617.4 623.332   1
  -3  -5   2 12178.0 417.426   2
   8  -3   2 11967.9 564.886   2
   8  -3   2 11340.7 560.472   4
  -8   5   2 11678.2 561.445   1
   3  -8   5 16599.1 527.698   2
   8  -3   5 16371.3 637.404   1
   8  -3   5 15798.9 713.543   4
  -3  -5   5 16858.8 656.708   2
   8  -3   5 16232.3 813.904   2
  -5   8   5 15892.3 568.824   1
  -8   5   5 15568.3 687.836   4
   5   3   5 15752.1 881.283   3
  -8   5   5 15539.0 673.544   3
  -3  -5   5 17391.2 954.232   1
  -5   8   5 15346.6 738.411   3
   3  -8   5 16373.1 866.030   1
  -8   5   5 17093.7 893.527   2
   8  -3   5 17911.3 992.686   3
   5   3   5 15783.5 798.972   4
   5   3   8 17793.5 1146.20   3
  -3  -5   8 16841.1 1191.71   3
  -3  -5   8 17552.8 1137.15   1
  -8   5   8 17733.0 1098.10   2
   3  -8   8 16622.1 800.968   2
   8  -3   8 17093.9 1240.04   3
  -8   5   8 16593.5 935.861   3
  -3  -5   8 16785.7 867.073   2
  -5   8   8 15955.2 749.638   1
   8  -3   8 15550.3 745.370   1
  -5   8   8 17795.2 1025.40   3
   8  -3   8 14469.6 781.242   4
   3  -8   8 18254.0 1105.25   1
  -5   8   8 14014.7 598.879   1
  -8   5   8 15495.2 764.504   4
   3  -8  11 4738.48 645.070   2
  -3  -5  11 4263.27 690.999   2
  -3  -5  11 4806.30 962.183   3
  -8   5  11 4830.24 808.474   3
  -8   5  11 3410.90 657.796   1
   3  -8  11 4750.48 997.416   3
  -5   8  11 4571.75 616.209   4
  -8   5  11 4361.98 808.556   2
   8  -3  11 5043.43 930.286   3
   5   3  11 3432.61 756.285   3
  -3  -5  11 4417.21 814.774   1
   3  -8  11 4342.24 730.730   1
  -5   8  11 4838.80 730.742   3
  -8   6  -5 7003.15 423.906   4
   6   2  -5 6706.93 351.780   4
  -6   8  -5 6343.24 609.492   1
  -8   6  -5 7131.64 559.857   1
  -6   8  -5 6233.22 297.615   4
  -8   6  -2 31385.5 820.741   4
  -2  -6  -2 32376.5 923.529   3
   8  -2  -2 31512.5 841.002   4
   6   2  -2 31798.8 821.398   2
   2  -8  -2 31420.3 869.615   3
  -8   6  -2 31771.5 894.088   1
   6   2  -2 32127.7 783.674   4
   8  -2  -2 32656.7 939.343   2
  -8   6  -2 30358.2 753.412   2
   2  -8  -2 30937.5 671.407   1
  -2  -6  -2 33553.0 623.146   1
  -6   8  -2 30810.9 961.925   1
  -6   8  -2 31341.3 729.231   4
  -6   8  -2 32493.3 561.909   2
   6   2   1 11797.0 568.799   4
   6   2   1 13422.7 590.246   2
  -6   8   1 12038.8 581.343   4
   6   2   1 12666.9 512.962   3
   8  -2   1 13795.7 589.238   2
   8  -2   1 12497.1 500.130   3
  -2  -6   1 14134.7 533.479   4
  -6   8   1 14025.4 602.725   2
  -2  -6   1 14259.7 442.492   2
  -6   8   1 14165.5 586.801   1
  -2  -6   1 14240.3 515.188   3
  -2  -6   1 14631.5 683.517   1
   2  -8   1 13903.2 661.854   1
  -8   6   1 13920.4 585.147   1
   8  -2   1 14306.0 624.589   4
  -8   6   1 13020.4 600.329   2
  -6   8   1 14542.7 492.929   3
   2  -8   1 14228.2 550.944   3
  -8   6   1 14466.0 608.764   4
  -8   6   1 13860.5 339.532   3
   8  -2   1 14270.0 562.639   1
   2  -8   4 16394.7 841.524   1
   2  -8   4 12775.9 352.342   2
  -8   6   4 14997.3 658.565   1
   6   2   4 15466.8 825.624   2
  -8   6   4 15386.1 565.676   3
  -6   8   4 14888.9 590.745   1
   8  -2   4 15983.1 585.333   1
   8  -2   4 15453.1 703.580   4
  -8   6   4 15546.8 819.582   2
  -2  -6   4 14701.7 837.371   1
  -2  -6   4 15883.8 537.095   2
   2  -8   4 12442.5 358.642   2
   6   2   4 15119.8 749.424   4
   6   2   4 15037.4 829.602   3
   8  -2   4 15716.1 892.774   3
   8  -2   4 14428.4 757.440   2
  -8   6   4 15138.9 670.249   4
  -6   8   4 16791.2 680.646   3
   8  -2   7 36281.7 949.898   1
   2  -8   7 38239.7 1026.07   2
  -2  -6   7 37482.5 1121.39   2
   8  -2   7 35803.8 1173.36   4
  -6   8   7 40707.7 1379.48   3
  -2  -6   7 40045.3 1546.86   1
  -8   6   7 36951.6 1140.06   4
   8  -2   7 37251.2 1602.41   3
  -8   6   7 38312.0 1257.96   3
   6   2   7 37555.6 1553.66   3
  -8   6   7 38170.4 1469.38   2
   2  -8   7 38147.5 1462.19   1
  -6   8   7 32431.0 915.378   1
  -2  -6  10 7153.24 711.107   2
  -2  -6  10 7193.05 911.949   1
  -6   8  10 6542.07 667.385   4
  -6   8  10 5697.83 747.783   3
  -6   8  10 5413.71 607.182   1
  -8   6  10 6443.91 778.817   1
   2  -8  10 5382.20 930.860   3
   2  -8  10 7254.42 712.769   2
  -2  -6  10 6372.54 1025.05   3
   8  -2  10 4554.49 437.939   1
   8  -2  10 5006.59 862.406   3
   6   2  10 6912.25 894.968   3
  -8   6  10 5023.08 523.860   4
   2  -8  10 6244.64 817.239   1
  -8   6  10 6300.19 767.899   3
  -8   6  10 5867.18 823.076   2
  -7   8  -6 2263.14 232.275   4
  -8   7  -6 2090.96 443.411   1
  -8   7  -6 2363.18 286.209   4
   1  -8  -3 41066.7 1128.50   3
  -8   7  -3 39879.5 1106.21   1
   8  -1  -3 41387.9 1119.31   2
   1  -8  -3 39776.4 631.123   1
  -7   8  -3 39909.7 769.643   2
   7   1  -3 40870.7 1038.02   2
  -1  -7  -3 41886.6 1163.48   3
  -7   8  -3 38983.9 846.095   4
  -8   7  -3 38164.2 866.305   2
   7   1  -3 42047.6 908.282   4
  -8   7  -3 39648.9 921.579   4
   8  -1  -3 40133.6 937.130   4
  -1  -7  -3 37961.0 535.094   1
  -7   8  -3 40953.4 1177.94   1
   8  -1   0 124.987 236.281   4
  -8   7   0 279.398 241.291   1
   8  -1   0 177.755 245.858   2
   1  -8   0 428.757 276.010   1
  -7   8   0-0.29327 284.040   1
  -1  -7   0 539.774 293.631   1
   8  -1   0 476.836 160.895   3
  -1  -7   0 197.638 195.960   3
  -8   7   0 543.402 250.153   4
   7   1   0 432.662 162.880   3
  -1  -7   0 261.144 225.126   2
  -8   7   0 111.918 231.056   2
  -7   8   0 380.835 231.872   2
   7   1   0 275.395 229.794   2
   7   1   0 262.701 229.294   4
   1  -8   0 330.719 216.912   3
  -7   8   0 453.921 253.457   4
  -8   7   3 3337.03 363.549   1
   7   1   3 3206.96 425.429   2
  -8   7   3 3655.48 470.768   2
   8  -1   3 3054.94 397.016   4
   1  -8   3 3554.00 513.313   1
   7   1   3 2997.87 393.560   4
  -7   8   3 3248.83 345.891   1
  -1  -7   3 3218.39 355.821   3
  -7   8   3 3392.13 396.113   4
   1  -8   3 2916.95 354.709   3
   8  -1   3 3043.21 398.445   2
  -7   8   3 2794.22 443.238   2
  -8   7   3 3862.64 290.401   3
  -1  -7   3 3571.92 513.974   1
  -7   8   3 3651.46 343.086   3
   8  -1   3 3003.65 320.571   1
  -1  -7   3 3782.42 227.025   2
  -8   7   3 3648.41 412.082   4
   7   1   3 3652.58 458.558   3
   8  -1   3 2906.84 471.547   3
  -1  -7   6 4.64845 240.437   2
   7   1   6 277.867 145.191   1
  -8   7   6 159.350 276.669   3
  -7   8   6 371.723 329.727   3
  -1  -7   6 641.898 406.871   1
   7   1   6 131.099 279.069   4
   1  -8   6 726.980 422.194   1
  -8   7   6 616.443 420.977   2
   1  -8   6 67.7211 214.766   2
   7   1   6 452.277 399.703   3
   8  -1   6 507.114 311.656   4
   8  -1   6 251.947 227.753   1
   8  -1   6-247.809 414.462   3
  -8   7   6 222.697 280.345   4
  -8   7   6 159.322 241.553   1
  -7   8   6-196.534 286.460   4
  -7   8   6 12.0268 211.021   1
  -8   7   9 5022.28 554.072   4
  -8   7   9 5962.79 698.509   3
   8  -1   9 5872.84 852.583   3
   1  -8   9 6016.13 610.586   2
  -7   8   9 5543.18 585.991   4
   1  -8   9 4968.90 826.744   3
  -1  -7   9 6035.03 609.988   2
  -8   7   9 5453.76 695.749   1
   1  -8   9 5340.18 727.620   1
   7   1   9 5115.33 772.889   3
  -7   8   9 5020.47 588.036   1
   8  -1   9 4890.94 388.072   1
  -1  -7   9 5704.19 923.994   3
  -1  -7   9 5588.23 756.641   1
  -8   7   9 5668.86 841.322   2
  -7   8   9 5960.91 668.394   3
   7   1   9 3223.16 198.603   1
  -8   8  -7 0.43925 179.216   4
   8   0  -4 25696.1 966.765   2
   8   0  -4 24471.6 742.420   4
  -8   8  -4 23936.3 708.088   4
  -8   8  -4 24537.1 966.174   1
  -8   8  -4 24203.5 739.577   2
   0  -8  -4 23953.7 1003.88   3
  -8   8  -1 74.8634 290.716   1
   0  -8  -1-124.192 210.716   3
   0  -8  -1-47.4324 229.684   1
  -8   8  -1-145.948 210.347   2
  -8   8  -1 132.838 239.186   4
   8   0  -1-122.025 231.654   4
   8   0  -1 11.5265 115.653   3
   8   0  -1 115.862 238.742   2
   8   0   2 75451.1 1452.04   2
   8   0   2 74609.6 1371.80   3
  -8   8   2 77457.8 1495.72   2
  -8   8   2 79481.7 1059.68   3
  -8   8   2 76074.4 1353.42   1
   0  -8   2 82180.5 1662.96   1
   8   0   2 78139.6 1494.05   4
  -8   8   2 76210.6 1413.33   4
   0  -8   2 75172.9 1299.42   3
  -8   8   5 122.834 247.383   3
   8   0   5 435.254 278.143   4
  -8   8   5 7.88537 222.864   1
   0  -8   5-221.998 191.525   2
  -8   8   5 540.995 317.565   4
   0  -8   5 391.682 440.899   1
   8   0   5-52.5130 358.838   3
   8   0   5-25.7366 180.374   1
  -8   8   5 74.4241 366.413   2
  -8   8   8 16248.0 939.086   3
   0  -8   8 16083.4 1109.26   1
   8   0   8 12601.1 480.724   1
  -8   8   8 15511.8 1088.97   2
  -8   8   8 14737.7 823.514   4
   0  -8   8 15018.0 752.813   2
   8   0   8 15346.4 1126.73   3
  -8   8   8 12357.2 684.271   1
   0  -8  11-736.376 729.083   3
   0  -8  11 78.3229 421.837   2
   8   0  11-249.533 653.515   3
   0  -8  11-569.694 587.463   1
  -8   8  11 218.905 350.445   4
  -8   8  11-88.2282 661.843   2
  -8   8  11-421.444 487.185   3
   9  -9  -6 5423.39 570.273   3
  -9   0  -6 4969.57 498.927   4
  -9   0  -6 4635.74 347.966   1
   0   9  -3 213.072 350.096   1
  -9   0  -3-123.532 224.125   1
  -9   0  -3-246.256 334.491   4
  -9   0  -3 220.561 368.991   2
   9  -9  -3 199.099 227.069   3
   9  -9  -3 308.487 284.094   1
   0   9  -3-19.3794 177.821   4
  -9   0  -3-17.4586 314.370   3
  -9   0   0 34202.1 705.797   3
   0   9   0 37442.4 839.069   2
   0   9   0 38545.0 941.744   3
   0   9   0 38234.0 1030.70   1
   9  -9   0 37848.2 1025.97   1
   9  -9   0 37299.7 797.280   3
  -9   0   0 40128.0 1087.18   4
  -9   0   0 39383.5 1010.97   2
   9  -9   0 35405.3 949.730   2
   9  -9   0 38878.8 1041.22   4
  -9   0   3-105.924 324.300   2
   0   9   3 3.49012 180.551   1
   9  -9   3 719.353 388.873   1
   0   9   3 77.7076 292.862   3
   9  -9   3 318.348 242.341   4
  -9   0   3-1.95480 119.249   3
   0   9   3 2.37031 308.044   2
   9  -9   3 319.006 230.296   2
  -9   0   3-57.6455 253.876   4
   9  -9   6 5048.77 443.524   2
  -9   0   6 6359.64 484.434   4
  -9   0   6 6980.81 624.664   2
   9  -9   6 6086.58 606.223   1
   9  -9   6 5704.28 415.344   4
  -9   0   6 6093.16 562.119   3
   0   9   6 5763.52 613.077   3
  -9   0   9 184.431 236.768   4
   9  -9   9-9.84043 492.445   1
   9  -9   9-403.374 608.770   3
  -9   0   9 271.342 558.703   1
  -9   0   9 121.479 421.785   3
   0   9   9 101.971 511.782   3
  -9   0   9-422.015 457.312   2
  -9   1  -7 28777.4 1070.18   4
  -9   1  -7 26000.3 786.631   1
  -8  -1  -4 15660.1 529.389   1
  -8  -1  -4 15071.5 870.067   3
   8  -9  -4 16033.1 694.590   3
  -9   1  -4 15441.6 881.376   3
  -9   1  -4 16374.6 812.315   2
  -1   9  -4 15243.5 886.013   1
  -8  -1  -4 16525.7 835.175   2
  -8  -1  -4 16378.9 794.980   4
  -9   1  -4 16782.4 620.305   1
   1   8  -4 15057.8 388.671   4
  -1   9  -4 14142.9 357.600   4
  -9   1  -4 16739.6 777.419   4
   9  -8  -4 15281.7 634.199   3
   1   8  -1 31271.1 633.027   2
   8  -9  -1 31968.4 910.322   1
  -9   1  -1 30185.9 802.144   3
   9  -8  -1 34107.8 628.799   3
  -1   9  -1 31431.1 998.570   1
  -1   9  -1 32035.1 574.892   2
   1   8  -1 34390.8 865.205   3
   8  -9  -1 34275.8 730.883   3
   9  -8  -1 31907.8 970.240   2
   9  -8  -1 31623.1 947.687   4
  -1   9  -1 33416.7 891.911   3
  -8  -1  -1 33073.7 970.729   4
  -8  -1  -1 30113.8 812.717   3
   9  -8  -1 33709.0 935.147   1
   1   8  -1 31080.0 1003.01   1
  -8  -1  -1 32026.6 939.365   2
  -9   1  -1 32595.8 841.200   1
  -9   1  -1 32311.4 1000.31   4
  -9   1  -1 31354.3 910.772   2
   1   8  -1 33517.3 855.918   4
   1   8   2 10370.1 571.792   3
   8  -9   2 11906.2 673.326   1
   9  -8   2 11903.1 649.456   1
  -8  -1   2 11842.5 365.423   3
   1   8   2 11874.1 646.131   2
  -1   9   2 12616.3 605.859   3
  -9   1   2 12209.5 637.025   2
  -9   1   2 10473.5 268.457   3
  -9   1   2 12689.0 616.373   4
   1   8   2 12316.1 659.269   4
   1   8   2 12689.5 485.884   1
  -1   9   2 12327.4 517.182   1
   8  -9   2 11895.7 553.098   4
  -8  -1   2 11624.9 597.258   2
   9  -8   2 12335.5 524.175   2
  -8  -1   2 11747.2 571.753   4
   8  -9   2 11506.7 450.711   2
   9  -8   2 12089.4 569.784   4
   8  -9   5 18416.1 656.908   2
   8  -9   5 20102.6 645.591   4
   1   8   5 20035.2 969.315   3
  -9   1   5 19443.4 748.421   4
  -8  -1   5 19020.0 690.083   4
  -9   1   5 19057.9 752.737   3
   8  -9   5 18927.6 907.289   1
   9  -8   5 17565.4 679.296   4
  -1   9   5 18455.8 902.802   3
  -8  -1   5 19728.3 859.744   2
   9  -8   5 18398.1 732.340   2
  -9   1   5 20966.8 926.882   2
   9  -8   5 18719.2 880.021   1
   9  -8   8 12084.4 1141.97   3
   8  -9   8 11256.9 851.867   1
   8  -9   8 10790.5 1121.88   3
  -9   1   8 11176.2 864.582   2
  -8  -1   8 11337.4 877.468   3
  -8  -1   8 9832.17 513.150   4
   8  -9   8 7882.67 354.304   4
   1   8   8 12318.7 983.019   3
   9  -8   8 10455.3 532.121   4
  -1   9   8 10910.7 892.384   3
  -8  -1   8 10795.7 810.012   2
  -9   1   8 11447.3 971.116   1
  -9   1   8 10735.9 612.930   4
   9  -8   8 10203.6 811.122   1
  -8  -1   8 12050.9 1017.01   1
  -9   1   8 11416.5 833.664   3
   1   8  11 9292.57 1014.88   3
   8  -9  11 8856.67 1238.65   3
   8  -9  11 8186.15 893.640   1
  -8  -1  11 10201.0 1016.75   3
  -9   1  11 8914.75 1055.43   1
  -8  -1  11 9042.29 1044.27   1
   9  -8  11 9004.97 872.509   1
  -8  -1  11 8475.87 886.510   2
  -9   1  11 7558.64 846.319   2
   9  -8  11 9669.24 1265.35   3
  -9   1  11 9415.21 951.970   3
  -1   9  11 9894.36 1014.76   3
  -9   2  -8 1717.08 338.374   1
  -7  -2  -5 42079.9 1246.25   4
  -9   2  -5 40860.3 989.053   1
   9  -7  -5 44471.7 1189.47   3
   7  -9  -5 42637.4 1260.96   3
  -9   2  -5 41056.8 1290.01   2
  -9   2  -5 41165.1 1161.65   4
  -9   2  -2 25994.0 890.479   4
  -2   9  -2 25681.3 971.242   1
   9  -7  -2 26862.4 889.759   4
  -9   2  -2 24788.4 845.183   2
   7  -9  -2 24255.6 755.390   1
  -9   2  -2 26292.5 877.279   3
  -7  -2  -2 26125.2 636.961   1
   9  -7  -2 26898.2 553.149   3
  -7  -2  -2 26696.6 903.905   4
  -9   2  -2 26106.9 751.440   1
  -7  -2  -2 24176.7 840.137   3
   2   7  -2 26073.8 698.302   4
   9  -7  -2 27696.2 957.806   2
   7  -9  -2 26529.2 735.712   3
   2   7  -2 27424.3 587.590   2
  -7  -2  -2 26107.4 908.220   2
   9  -7  -2 27126.3 842.508   1
   2   7  -2 25624.4 958.603   1
  -7  -2   1 18316.0 493.651   3
   9  -7   1 17154.3 625.490   2
   9  -7   1 17591.9 710.984   1
   2   7   1 17363.4 722.296   4
  -9   2   1 16720.1 699.177   2
  -2   9   1 16840.7 636.247   3
   7  -9   1 16369.4 722.225   1
   7  -9   1 17299.4 615.685   3
   9  -7   1 17878.3 674.776   4
   2   7   1 16820.6 635.578   3
   7  -9   1 17284.4 530.400   2
   2   7   1 18579.4 682.222   2
  -7  -2   1 17316.2 654.673   2
  -9   2   1 17524.4 700.797   4
  -2   9   1 16849.9 634.522   1
  -7  -2   1 17403.1 666.484   4
  -7  -2   4 2951.64 317.682   4
   7  -9   4 3214.69 490.707   1
  -2   9   4 2791.35 231.452   1
   7  -9   4 2724.25 262.430   2
   9  -7   4 2643.41 321.242   4
  -2   9   4 3558.35 441.384   3
   2   7   4 3081.13 475.596   3
  -7  -2   4 2971.86 372.924   2
   9  -7   4 3032.76 366.116   2
   9  -7   4 2798.95 458.153   1
   2   7   4 2930.83 427.557   4
   7  -9   4 3244.75 291.763   4
  -9   2   4 2835.72 426.289   2
  -9   2   4 2771.97 304.993   3
  -9   2   4 3302.52 379.947   4
   7  -9   7 3080.45 220.792   4
  -9   2   7 4282.30 512.430   3
   7  -9   7 4431.02 439.861   2
   7  -9   7 4077.71 580.253   1
  -9   2   7 5041.96 621.268   2
  -9   2   7 4419.45 447.073   4
  -7  -2   7 4433.34 601.482   3
   9  -7   7 4444.91 692.496   3
  -7  -2   7 3728.96 316.309   4
   2   7   7 4813.55 668.716   3
  -2   9   7 4391.86 615.268   3
   9  -7   7 4280.55 525.137   1
  -7  -2   7 4490.50 519.024   2
   9  -7   7 3581.28 381.897   4
  -7  -2   7 4413.94 641.754   1
   7  -9  10 4028.29 690.683   1
  -7  -2  10 3607.13 645.117   2
  -9   2  10 4092.35 616.244   3
   9  -7  10 3860.75 872.087   3
   7  -9  10 3239.63 843.493   3
  -9   2  10 2996.26 405.822   4
  -9   2  10 3629.48 755.676   1
  -2   9  10 4193.85 670.612   3
  -7  -2  10 3293.78 775.863   1
   9  -7  10 3200.39 624.700   1
  -9   2  10 3719.78 689.362   2
  -7  -2  10 2880.59 668.234   3
   2   7  10 2874.94 685.037   3
  -9   3  -6 26595.6 938.914   4
  -9   3  -6 25080.5 863.018   1
   6  -9  -3 8489.26 457.178   1
  -9   3  -3 8935.37 583.547   2
   3   6  -3 8639.85 416.261   2
  -3   9  -3 8521.28 652.663   1
  -3   9  -3 9358.01 365.966   4
   6  -9  -3 9017.10 523.026   3
  -6  -3  -3 8822.75 628.879   2
   9  -6  -3 9093.53 403.070   3
  -6  -3  -3 8661.79 590.040   4
   9  -6  -3 9385.76 573.705   4
  -9   3  -3 9406.72 530.374   1
  -9   3  -3 8668.68 576.122   4
  -6  -3  -3 7990.51 590.765   3
  -6  -3  -3 9475.75 351.392   1
   3   6  -3 9512.82 397.943   4
  -9   3   0 29578.4 847.802   2
   3   6   0 26744.6 711.970   3
  -9   3   0 28018.0 811.589   1
  -9   3   0 28591.1 866.059   4
  -6  -3   0 26400.8 702.316   3
   3   6   0 28713.2 727.573   2
  -3   9   0 27751.0 767.458   3
  -3   9   0 26583.5 826.837   1
  -6  -3   0 28067.2 791.644   2
   9  -6   0 27122.9 831.965   4
   6  -9   0 27738.0 717.672   3
  -6  -3   0 26806.3 845.454   4
   9  -6   0 27928.8 816.859   2
   6  -9   0 27602.7 851.869   1
   9  -6   0 27095.0 841.688   1
   3   6   0 28275.4 828.090   4
  -9   3   3 127.146 141.325   3
   6  -9   3 330.882 138.365   2
   9  -6   3 324.202 304.319   1
  -3   9   3 57.5740 301.249   3
  -9   3   3 328.066 281.593   4
   9  -6   3 52.8630 244.512   2
   3   6   3 80.4217 278.504   4
   3   6   3 231.639 323.175   3
  -3   9   3 40.3683 204.764   1
  -6  -3   3 263.124 279.848   2
   3   6   3 631.645 323.411   2
   6  -9   3 7.54156 344.880   1
  -6  -3   3 295.085 186.057   3
  -6  -3   3 229.046 228.447   4
   9  -6   3 744.778 272.832   4
  -9   3   3 80.4707 346.798   2
  -9   3   6 12568.7 805.096   2
   9  -6   6 11951.0 723.145   2
  -3   9   6 10232.1 382.315   1
  -6  -3   6 13153.1 926.462   1
  -9   3   6 13522.4 700.695   3
  -6  -3   6 11623.6 677.811   2
   9  -6   6 11926.5 701.050   1
  -3   9   6 13052.2 824.940   3
   9  -6   6 12545.7 954.583   3
   9  -6   6 11551.3 598.309   4
   3   6   6 13432.3 897.099   3
  -6  -3   6 11074.7 439.290   4
  -9   3   6 12514.6 645.615   4
   6  -9   6 13147.9 855.858   1
   6  -9   6 12677.7 555.602   2
   3   6   9 298.408 476.654   3
  -3   9   9-8.73003 85.5773   1
  -9   3   9 246.358 474.908   1
   9  -6   9 479.094 603.732   3
  -9   3   9-30.6252 380.170   3
  -9   3   9 426.524 322.006   4
   9  -6   9 922.191 456.735   1
  -9   3   9 120.297 443.089   2
   6  -9   9 200.196 496.923   1
  -6  -3   9 716.624 571.388   1
  -6  -3   9 248.496 484.371   3
  -6  -3   9-113.784 425.884   2
   6  -9   9 148.469 574.572   3
  -3   9   9-400.229 447.942   3
  -9   4  -7 30110.1 978.728   4
  -9   4  -7 26462.0 969.891   1
  -9   4  -4 126.065 256.391   1
   5  -9  -4 173.367 279.445   3
  -4   9  -4 152.515 126.407   4
  -5  -4  -4 365.693 320.411   3
  -5  -4  -4 172.015 317.168   4
  -9   4  -4 192.180 273.916   4
   4   5  -4 136.878 144.212   4
  -4   9  -4 443.840 383.206   1
  -9   4  -4 215.263 302.518   2
  -5  -4  -1 67577.3 1305.01   4
   9  -5  -1 68118.3 1285.00   4
  -4   9  -1 66028.9 1347.16   1
  -9   4  -1 70178.9 1297.77   4
   5  -9  -1 64670.9 1098.56   3
  -9   4  -1 67792.8 1215.28   1
  -4   9  -1 69094.0 768.349   2
   4   5  -1 67016.1 1057.12   3
  -4   9  -1 65865.2 1176.88   3
   9  -5  -1 65295.4 1299.41   2
   5  -9  -1 68947.3 1205.60   1
   4   5  -1 66300.3 1157.19   4
  -9   4  -1 68793.2 1230.12   2
   4   5  -1 67367.4 1050.53   2
  -5  -4  -1 67454.0 1203.75   3
  -5  -4  -1 64916.3 1234.83   2
   4   5   2 13052.9 651.466   2
   4   5   2 13042.1 617.486   3
  -4   9   2 12948.9 568.003   3
  -9   4   2 13792.2 619.648   4
  -5  -4   2 11798.7 511.273   4
   9  -5   2 12355.0 580.680   4
   4   5   2 12207.3 650.431   4
  -5  -4   2 12336.8 457.872   3
  -9   4   2 12692.4 618.073   1
   5  -9   2 13534.9 597.823   3
   9  -5   2 12497.4 568.020   2
  -4   9   2 12293.9 510.744   1
   5  -9   2 10382.1 271.748   2
  -9   4   2 13152.1 655.279   2
   9  -5   2 13702.2 610.696   1
   5  -9   2 13498.7 693.484   1
  -5  -4   2 12848.2 524.689   2
   5  -9   5 26277.5 1093.56   1
   4   5   5 26222.3 1124.66   3
  -4   9   5 26554.3 997.633   3
   4   5   5 23867.5 994.605   4
  -5  -4   5 27292.7 1194.12   1
  -5  -4   5 23786.0 573.637   4
  -9   4   5 25461.5 820.843   3
   5  -9   5 25297.8 626.976   2
   9  -5   5 24141.4 1163.03   3
  -9   4   5 24478.8 1043.21   2
  -9   4   5 25086.8 867.305   4
  -4   9   5 25278.8 661.241   1
   9  -5   5 23394.4 920.552   2
   9  -5   5 24456.2 883.366   1
   9  -5   5 24171.9 846.369   4
  -5  -4   5 24508.9 840.419   2
  -9   4   8 6507.42 565.433   4
   9  -5   8 7257.18 614.050   1
   4   5   8 8710.09 862.043   3
   5  -9   8 7706.13 809.047   1
  -4   9   8 7768.64 762.706   3
   9  -5   8 7323.68 874.373   3
  -5  -4   8 7792.15 877.935   1
  -4   9   8 5277.48 395.602   1
  -5  -4   8 7863.87 696.311   2
  -4   9   8 4739.33 319.532   1
  -9   4   8 7014.91 662.235   3
   9  -5   8 6624.28 539.820   4
  -9   4   8 6841.55 746.909   2
  -5  -4   8 7214.55 796.252   3
   5  -9   8 7922.32 579.255   2
  -4   9  11 13613.4 1125.91   3
  -9   4  11 14569.8 1093.93   3
  -9   4  11 13623.5 1133.13   2
   5  -9  11 14192.9 1432.93   3
   4   5  11 15239.9 1263.05   3
  -5  -4  11 14124.9 1289.39   3
   5  -9  11 15647.5 1168.51   1
  -5  -4  11 14906.3 1293.40   1
  -5  -4  11 15193.0 1066.16   2
  -9   4  11 14429.0 1164.85   1
  -4   9  11 11248.4 890.036   4
   9  -5  11 14472.5 1399.33   3
  -9   5  -8 4506.65 523.115   1
   5   4  -5 23480.0 540.060   4
  -9   5  -5 25192.6 844.275   4
  -9   5  -5 26232.3 962.477   2
  -9   5  -5 24555.7 898.712   1
   4  -9  -2 11120.9 539.661   3
  -5   9  -2 11022.2 652.291   1
  -9   5  -2 11260.5 564.166   4
  -5   9  -2 11026.4 457.220   4
   5   4  -2 11168.4 489.033   4
  -9   5  -2 10857.6 535.808   2
  -9   5  -2 11115.4 568.844   1
  -5   9  -2 10220.2 255.230   2
   9  -4  -2 11643.9 568.996   4
   5   4  -2 11572.9 502.173   2
   9  -4  -2 10841.4 615.886   2
  -4  -5  -2 10077.4 568.840   3
   4  -9  -2 11037.8 483.965   1
  -4  -5  -2 11272.3 423.258   1
  -4  -5  -2 11102.4 617.681   2
  -4  -5  -2 11603.1 615.950   4
  -9   5   1 60602.8 1201.27   1
   5   4   1 63341.5 1292.14   4
   5   4   1 62749.7 1213.80   2
  -5   9   1 61994.0 1164.08   1
  -4  -5   1 63970.5 1332.65   1
   4  -9   1 61601.9 1120.99   3
  -5   9   1 61206.9 1075.89   3
   5   4   1 62756.6 1102.05   3
  -4  -5   1 60555.0 1104.73   4
  -4  -5   1 59188.7 1001.46   2
   9  -4   1 62586.1 1232.99   4
   9  -4   1 61240.2 1172.51   2
  -9   5   1 59353.1 1228.48   4
   4  -9   1 65503.1 1315.77   1
  -4  -5   1 59308.7 981.130   3
   9  -4   1 62587.3 1081.67   3
   9  -4   1 60413.7 1169.26   1
  -9   5   1 62707.1 1235.78   2
  -4  -5   4 363.222 406.419   1
   5   4   4 201.602 351.681   3
  -9   5   4 33.2353 269.210   4
   5   4   4 539.412 366.646   2
   9  -4   4-227.702 289.839   2
  -4  -5   4 229.815 175.079   4
   4  -9   4 132.044 101.980   2
   9  -4   4 511.037 278.605   4
   9  -4   4-176.754 386.253   3
  -4  -5   4 206.456 232.502   2
  -9   5   4 365.811 327.530   2
   9  -4   4 171.247 287.240   1
   5   4   4 340.608 297.368   4
  -9   5   4 93.0742 192.459   3
   4  -9   4-47.7643 378.892   1
  -5   9   4 272.833 232.562   1
  -5   9   4 312.125 280.793   3
   5   4   7 30922.1 1394.46   3
   9  -4   7 26359.2 985.048   4
  -9   5   7 30736.9 1113.20   3
   4  -9   7 31719.0 916.231   2
   4  -9   7 31439.8 1324.93   1
  -5   9   7 31559.7 1254.26   3
  -4  -5   7 31419.2 1416.46   1
  -9   5   7 28476.9 1259.85   2
   9  -4   7 29717.7 993.456   1
  -5   9   7 27298.2 761.123   1
  -9   5   7 28060.9 986.754   4
   9  -4   7 30389.0 1510.76   3
  -4  -5   7 29776.2 1043.80   2
  -4  -5  10 2549.33 625.055   3
   4  -9  10 2352.83 787.411   3
  -9   5  10 2325.72 601.645   1
  -4  -5  10 3689.56 812.801   1
  -9   5  10 3302.72 570.163   3
   9  -4  10 2553.26 488.344   1
  -4  -5  10 3160.33 547.284   2
  -5   9  10 4173.24 697.496   3
  -9   5  10 3366.57 684.208   2
   4  -9  10 2908.49 659.836   1
  -5   9  10 2554.49 539.049   4
   5   4  10 2833.33 695.179   3
  -9   5  10 2459.58 429.737   4
   9  -4  10 3034.83 786.711   3
  -9   6  -6 9883.38 541.852   4
  -9   6  -6 10414.7 690.518   1
   6   3  -3 380.601 271.542   2
  -3  -6  -3 113.368 294.826   3
  -6   9  -3 278.205 158.353   2
  -6   9  -3 262.696 326.650   1
  -6   9  -3 294.509 195.808   4
  -9   6  -3 247.572 252.245   4
   9  -3  -3 342.282 330.465   2
   9  -3  -3 145.615 237.171   4
  -3  -6  -3 262.720 126.347   1
  -9   6  -3 557.464 289.501   2
   6   3  -3 347.466 208.304   4
  -9   6  -3 240.269 315.757   1
   3  -9  -3 347.462 282.047   3
   3  -9  -3 312.849 193.143   1
  -3  -6   0 19449.9 712.780   4
  -9   6   0 21360.5 718.076   2
   6   3   0 20030.0 737.287   4
  -3  -6   0 20291.0 644.920   3
  -3  -6   0 20455.1 735.017   1
   9  -3   0 18854.9 449.032   3
  -6   9   0 21699.2 732.486   4
  -3  -6   0 20995.9 653.073   2
   3  -9   0 20531.5 664.580   3
   9  -3   0 21812.8 735.658   2
  -6   9   0 21198.6 642.989   3
   3  -9   0 20991.5 740.421   1
  -6   9   0 20130.2 744.946   1
   9  -3   0 22096.7 759.090   4
  -9   6   0 20832.0 748.070   4
   6   3   0 20493.3 592.674   3
   6   3   0 21209.2 693.404   2
  -6   9   0 20387.0 617.841   2
  -9   6   0 20703.3 737.649   1
  -6   9   3 8921.26 508.199   3
   9  -3   3 8508.03 556.795   2
  -6   9   3 9057.84 501.870   1
  -3  -6   3 9168.55 399.073   4
  -9   6   3 8824.11 350.127   3
   6   3   3 8230.19 615.097   2
  -3  -6   3 9180.04 706.193   1
   6   3   3 8825.68 617.275   3
  -9   6   3 10088.3 673.820   2
  -3  -6   3 9065.08 477.028   3
  -9   6   3 9004.46 554.329   4
   9  -3   3 8433.59 637.150   3
  -9   6   3 8213.85 518.579   1
  -3  -6   3 9617.11 408.420   2
   9  -3   3 9862.30 515.208   1
   9  -3   3 7993.90 532.143   4
   6   3   3 8693.11 586.717   4
   3  -9   3 8758.33 643.965   1
   3  -9   6 26023.7 1175.16   1
  -6   9   6 26545.6 1054.80   3
   9  -3   6 24667.8 812.552   1
  -9   6   6 26405.2 1179.96   2
  -6   9   6 24090.3 760.961   1
  -9   6   6 27311.7 944.491   3
  -3  -6   6 26082.5 866.292   2
   3  -9   6 27446.1 725.555   2
   6   3   6 23110.8 1157.50   3
  -9   6   6 24229.9 914.722   4
  -3  -6   6 25443.7 1234.71   1
   9  -3   6 25034.6 1247.93   3
   9  -3   6 23964.0 955.227   4
  -6   9   9 4.96268 438.652   3
  -3  -6   9 162.469 545.045   3
   3  -9   9 535.480 628.230   3
  -9   6   9 807.932 534.609   2
   3  -9   9 484.522 356.628   2
  -9   6   9 440.696 429.914   3
   6   3   9 310.127 535.392   3
  -9   6   9 672.711 420.138   1
  -9   6   9-90.3857 299.704   4
  -3  -6   9-309.754 381.193   2
   9  -3   9 507.811 558.822   3
   3  -9   9-440.966 507.881   1
   9  -3   9 190.597 335.566   1
  -6   9   9-221.146 349.389   1
  -6   9   9 382.237 400.862   4
  -3  -6   9-376.928 566.250   1
  -9   7  -7 3488.56 355.519   4
   2  -9  -4 3283.86 477.188   3
   9  -2  -4 3293.97 473.006   2
  -9   7  -4 3111.70 352.436   4
   9  -2  -4 3036.40 347.725   4
  -9   7  -4 2915.47 365.587   2
  -7   9  -4 3111.48 475.533   1
   7   2  -4 2829.94 288.303   4
  -9   7  -4 3101.83 443.417   1
  -7   9  -4 2670.28 278.644   4
   7   2  -4 2684.78 408.697   2
   2  -9  -4 2699.09 206.626   1
   7   2  -1 17632.1 662.342   2
   7   2  -1 17571.7 670.970   4
  -2  -7  -1 17313.9 608.778   1
  -7   9  -1 17621.4 743.873   1
  -9   7  -1 17847.1 617.589   2
  -2  -7  -1 17111.7 664.477   3
   9  -2  -1 17907.1 692.526   4
   2  -9  -1 17400.3 639.490   3
   9  -2  -1 17491.3 714.855   2
   2  -9  -1 16794.4 616.156   1
  -9   7  -1 18416.7 685.653   4
  -7   9  -1 18155.0 512.211   2
  -7   9  -1 17696.2 635.551   4
  -9   7  -1 16958.3 712.292   1
  -2  -7  -1 17250.3 671.725   2
   7   2  -1 17456.1 468.885   3
   9  -2   2 26190.4 888.270   4
   7   2   2 26684.0 906.676   4
   7   2   2 25416.6 889.307   2
  -9   7   2 26178.8 851.523   4
   9  -2   2 28015.1 776.589   1
  -9   7   2 28426.1 539.725   3
  -7   9   2 20868.3 814.024   4
  -2  -7   2 25954.6 746.040   3
   2  -9   2 26705.7 817.597   3
   2  -9   2 22769.9 900.508   1
  -7   9   2 26542.1 821.711   1
  -7   9   2 28517.7 731.080   3
  -7   9   2 27085.0 927.408   2
  -9   7   2 27186.3 940.626   2
  -2  -7   2 27907.3 1001.56   1
  -9   7   2 26446.4 839.434   1
   7   2   2 25711.7 834.999   3
  -2  -7   2 26732.6 568.776   2
   9  -2   2 26458.4 866.870   2
   9  -2   2 25590.5 866.817   3
  -9   7   5 40719.5 1016.89   3
   9  -2   5 41405.2 1476.39   3
  -7   9   5 43453.3 1176.82   3
  -9   7   5 38114.1 1115.74   4
   9  -2   5 41815.6 1209.31   4
   2  -9   5 38256.9 694.539   2
  -2  -7   5 42440.4 1459.00   1
   2  -9   5 37221.0 694.096   2
   9  -2   5 43118.0 966.470   1
  -9   7   5 39729.4 1112.24   1
   7   2   5 40655.1 1256.89   4
  -2  -7   5 41869.5 900.018   2
  -7   9   5 40806.4 1011.04   1
   7   2   5 41234.7 1444.42   3
  -9   7   5 42045.6 1387.91   2
   2  -9   5 44760.4 1468.23   1
   9  -2   8 3067.73 697.737   3
  -9   7   8 3063.73 653.902   2
  -2  -7   8 3156.66 672.276   1
  -7   9   8 3399.86 552.107   3
  -9   7   8 2839.77 453.232   4
   2  -9   8 3093.88 407.270   2
  -7   9   8 2332.01 361.022   1
   2  -9   8 2757.94 617.945   1
   7   2   8 3530.09 667.660   3
  -7   9   8 3394.03 505.112   4
  -2  -7   8 2945.80 441.371   2
   2  -9   8 2844.18 415.591   2
  -9   7   8 3060.84 502.851   3
   9  -2   8 3043.00 386.809   1
  -9   7  11 10676.7 964.584   3
  -2  -7  11 12173.0 1319.45   3
  -2  -7  11 12255.1 947.907   2
   2  -9  11 12237.5 1119.47   1
  -9   7  11 9279.70 721.279   4
   7   2  11 11199.1 1195.58   3
  -7   9  11 11635.7 1206.21   2
  -9   7  11 8915.89 906.141   1
   2  -9  11 9395.45 1169.97   3
  -7   9  11 11445.9 1045.65   3
   9  -2  11 10755.1 1189.45   3
  -7   9  11 10315.5 821.252   4
  -2  -7  11 11666.4 1147.08   1
  -9   7  11 9812.62 1086.47   2
  -9   8  -5 17901.8 883.934   1
  -8   9  -5 18799.6 943.403   1
  -9   8  -5 19547.6 759.636   2
   8   1  -5 18901.8 645.245   4
  -8   9  -5 18351.7 589.031   4
   9  -1  -5 19545.5 723.748   4
  -9   8  -5 18348.6 660.063   4
  -9   8  -2 13543.8 547.376   2
  -8   9  -2 13663.2 711.667   1
   8   1  -2 13614.4 605.501   4
  -9   8  -2 13760.7 602.024   4
   9  -1  -2 13701.2 670.065   2
   9  -1  -2 13952.9 631.165   4
  -1  -8  -2 12831.4 641.884   3
  -9   8  -2 13062.7 692.137   1
   8   1  -2 14429.4 654.153   2
  -8   9  -2 13904.0 486.589   2
  -1  -8  -2 14074.8 496.131   1
  -8   9  -2 13213.9 563.815   4
   1  -9  -2 14768.5 521.146   1
   1  -9  -2 13764.4 653.430   3
   9  -1   1 31612.2 968.357   4
  -9   8   1 32103.5 925.146   2
   8   1   1 31090.5 916.742   2
   9  -1   1 31777.1 927.506   2
   1  -9   1 30798.5 834.037   3
  -9   8   1 32193.5 611.926   3
  -8   9   1 30678.7 895.875   2
  -8   9   1 31936.4 706.085   3
  -8   9   1 31417.2 942.367   1
  -9   8   1 31913.3 936.191   4
   9  -1   1 29280.4 748.695   3
   8   1   1 30985.7 951.846   4
  -1  -8   1 30631.2 814.948   3
   1  -9   1 33580.9 1032.49   1
  -1  -8   1 30823.4 661.775   2
  -1  -8   1 32513.4 1020.14   1
  -9   8   1 30476.8 905.384   1
  -8   9   1 30101.8 902.587   4
   8   1   1 30628.9 774.299   3
   9  -1   4 14986.6 804.776   2
  -8   9   4 13822.3 814.008   2
  -9   8   4 16986.5 612.634   3
  -9   8   4 17035.8 865.768   2
   9  -1   4 15549.6 767.906   4
   1  -9   4 17972.0 945.879   1
   9  -1   4 16855.2 600.387   1
   8   1   4 16664.7 885.694   3
  -8   9   4 16235.1 771.269   4
   8   1   4 14341.8 760.998   4
  -9   8   4 16659.2 729.063   1
  -8   9   4 16388.4 682.065   1
   8   1   4 14518.8 810.970   2
  -9   8   4 15751.1 745.940   4
  -1  -8   4 16230.6 726.320   3
  -1  -8   4 16996.2 929.213   1
  -1  -8   4 16936.1 460.628   2
  -8   9   4 16880.3 654.935   3
   9  -1   4 15850.2 878.788   3
   1  -9   4 13148.2 291.923   2
  -9   8   7 28270.1 1341.77   2
   9  -1   7 30987.0 1499.49   3
   1  -9   7 32536.6 890.346   2
  -8   9   7 30510.3 1159.18   4
   8   1   7 31355.0 1461.39   3
   1  -9   7 31653.1 1434.16   1
  -8   9   7 33086.7 1219.14   3
  -8   9   7 26069.8 913.884   1
   9  -1   7 28734.6 779.979   1
  -1  -8   7 31323.6 1432.18   1
  -9   8   7 25731.8 978.173   1
  -9   8   7 32073.9 1156.03   3
  -1  -8   7 30859.6 927.369   2
  -9   8   7 30229.1 1108.80   4
  -8   9  10 7529.89 822.045   3
   1  -9  10 6444.06 863.115   1
   9  -1  10 6442.84 897.492   3
   1  -9  10 6975.38 984.299   3
  -1  -8  10 6548.83 1019.86   3
  -9   8  10 6723.45 884.817   2
  -9   8  10 6168.92 644.868   4
  -9   8  10 6847.35 782.713   1
   1  -9  10 7555.12 669.252   2
  -1  -8  10 7720.75 951.445   1
   8   1  10 8029.00 945.803   3
  -8   9  10 6181.44 688.967   1
  -1  -8  10 7438.30 702.930   2
  -8   9  10 6552.46 682.197   4
  -8   9  10 7486.84 936.647   2
  -9   8  10 7181.64 776.016   3
  -9   9  -6 4808.44 357.900   4
   0  -9  -3 250.973 288.692   3
  -9   9  -3-32.8738 232.769   4
   0  -9  -3 81.0146 201.284   1
  -9   9  -3-124.571 326.543   1
   9   0  -3 29.4394 231.207   4
  -9   9  -3 252.767 238.929   2
   9   0  -3-12.7848 289.672   2
   0  -9   0 33563.5 885.185   3
  -9   9   0 36051.3 979.914   4
   0  -9   0 36662.9 1026.49   1
   9   0   0 34987.3 961.254   2
   9   0   0 34767.0 1018.42   4
  -9   9   0 35339.4 1031.20   1
   9   0   0 34701.4 679.602   3
  -9   9   0 33929.0 899.998   2
  -9   9   3-278.613 363.413   2
   9   0   3 301.735 307.790   2
  -9   9   3-113.318 209.217   3
   0  -9   3 36.2572 91.7066   2
   0  -9   3 142.908 419.533   1
   9   0   3-49.9029 322.534   3
   9   0   3-29.7196 278.376   4
  -9   9   3 208.618 293.547   4
   0  -9   3 10.8341 239.699   3
  -9   9   3 77.1922 277.526   1
  -9   9   6 5938.59 689.889   2
   9   0   6 6115.53 363.892   1
  -9   9   6 7104.65 556.267   3
   0  -9   6 6284.31 380.711   2
   0  -9   6 7865.80 781.011   1
  -9   9   6 6110.85 506.401   1
  -9   9   6 5785.19 538.753   4
   9   0   6 6723.72 729.398   3
   9   0   9 299.763 524.732   3
   9   0   9-56.1244 139.780   1
   0  -9   9-249.176 326.203   2
  -9   9   9-213.371 415.111   3
  -9   9   9-445.950 528.965   2
   0  -9   9-216.051 561.263   1
  -9   9   9-9.31377 341.157   4
 -10   0  -7 65.6244 203.201   1
 -10   0  -7 40.7256 321.219   4
  10 -10  -4 107968. 1687.64   3
 -10   0  -4 108122. 2087.04   2
   0  10  -4 104128. 1158.19   4
 -10   0  -4 109329. 1525.67   1
 -10   0  -4 109367. 2037.25   4
 -10   0  -1 284.636 256.133   1
   0  10  -1 164.346 310.262   1
   0  10  -1-83.2824 242.426   4
  10 -10  -1 191.104 317.529   1
 -10   0  -1-169.464 316.571   4
  10 -10  -1 5.87615 304.259   4
   0  10  -1 133.004 250.749   3
 -10   0  -1 157.513 326.044   2
 -10   0  -1 208.921 247.882   3
  10 -10  -1 287.037 201.899   3
   0  10  -1-7.01824 182.326   2
  10 -10  -1 170.317 304.713   2
   0  10   2 78052.9 1499.50   3
   0  10   2 87911.7 1659.20   2
 -10   0   2 83093.2 1580.71   2
 -10   0   2 80070.0 875.644   3
  10 -10   2 82318.6 1314.24   2
   0  10   2 82461.6 1337.66   1
 -10   0   2 84921.6 1570.24   4
  10 -10   2 83819.9 1688.91   1
  10 -10   2 84171.8 1516.03   4
  10 -10   5 244.065 377.911   1
 -10   0   5 607.198 361.684   2
 -10   0   5-181.410 272.152   4
  10 -10   5 62.9446 225.974   4
   0  10   5-394.960 369.656   3
  10 -10   5-193.148 253.622   2
   0  10   8 21994.1 1251.87   3
 -10   0   8 21590.3 1093.79   3
  10 -10   8 19859.4 1113.68   1
 -10   0   8 18272.5 1060.47   2
 -10   0   8 19391.0 1251.74   1
 -10   0   8 20459.8 820.630   4
  10 -10   8 20504.8 1468.93   3
  10 -10   8 17197.6 654.337   4
 -10   0  11 85.8703 441.453   3
   0  10  11 1149.02 632.044   3
 -10   0  11-348.252 602.726   1
  10 -10  11 451.868 610.550   1
 -10   0  11 621.722 486.430   2
  10 -10  11 919.147 768.795   3
 -10   1  -8 168.011 232.604   1
   9 -10  -5 5411.93 514.378   3
  -9  -1  -5 5167.68 592.977   2
 -10   1  -5 4559.14 503.837   4
 -10   1  -5 5190.96 400.771   1
  -9  -1  -5 4532.77 325.270   1
  10  -9  -5 5050.47 464.792   3
   1   9  -5 3284.38 151.964   4
 -10   1  -5 5717.53 594.240   2
  -9  -1  -5 5621.34 555.881   4
  10  -9  -2 3752.46 465.552   2
  -9  -1  -2 3887.25 484.682   4
  -9  -1  -2 3131.98 443.199   2
   9 -10  -2 3511.46 319.427   3
   1   9  -2 4021.43 261.073   2
  10  -9  -2 3476.03 298.217   3
  -9  -1  -2 3767.96 345.782   1
  10  -9  -2 3590.72 409.625   1
   1   9  -2 3992.28 503.773   1
  -1  10  -2 2971.22 457.408   1
   9 -10  -2 3601.04 409.606   1
 -10   1  -2 3656.92 360.618   1
  -1  10  -2 3303.45 174.571   2
 -10   1  -2 3460.04 413.456   3
 -10   1  -2 4361.25 501.916   4
   1   9  -2 4117.68 354.769   4
  -9  -1  -2 3128.13 413.784   3
 -10   1  -2 3756.17 454.490   2
   1   9  -2 3749.50 403.744   3
   1   9   1 3731.05 432.024   4
   9 -10   1 3871.98 399.548   4
  10  -9   1 3163.65 427.586   1
 -10   1   1 2624.80 185.021   3
  -9  -1   1 3126.40 392.388   4
  -9  -1   1 3633.03 264.851   3
   9 -10   1 3438.70 339.379   2
  -1  10   1 3469.70 377.275   3
   1   9   1 3245.78 389.053   2
   9 -10   1 2982.15 328.414   3
   1   9   1 3332.10 383.856   3
  -9  -1   1 3744.14 429.755   2
   9 -10   1 3921.04 502.386   1
 -10   1   1 3403.95 421.188   2
  10  -9   1 3319.39 363.656   2
  -1  10   1 3098.76 361.877   2
 -10   1   1 2861.08 381.567   4
  10  -9   1 3283.97 381.864   4
   1   9   1 3273.75 380.590   1
  -1  10   1 3166.25 363.477   1
  10  -9   4 11162.8 701.547   1
  -1  10   4 8948.61 356.696   1
  10  -9   4 11145.1 563.775   2
  -9  -1   4 10947.8 446.594   3
 -10   1   4 10971.0 695.868   2
  -9  -1   4 10888.3 660.174   2
   9 -10   4 11285.0 747.482   1
  -9  -1   4 11381.5 578.227   4
   9 -10   4 10783.9 536.806   4
  -1  10   4 11222.6 683.896   3
  10  -9   4 11011.7 565.592   4
 -10   1   4 11424.0 616.724   4
   1   9   4 11227.6 705.795   3
   9 -10   4 11354.9 496.055   2
  10  -9   7 9059.86 644.607   2
   9 -10   7 9463.19 466.964   4
  -1  10   7 11827.0 871.086   3
   9 -10   7 11698.2 861.206   1
  10  -9   7 9312.31 546.411   4
  -9  -1   7 10043.8 739.439   2
   1   9   7 10627.4 879.866   3
  -9  -1   7 12200.3 961.454   1
 -10   1   7 9953.31 598.455   4
  10  -9   7 11473.2 829.063   1
 -10   1   7 10263.8 789.481   2
  -9  -1   7 10247.0 562.534   4
  10  -9   7 10287.0 1037.59   3
   9 -10   7 9680.64 600.927   2
  -9  -1   7 9233.12 733.968   3
 -10   1   7 10890.5 745.492   3
  -9  -1  10 2472.98 583.066   2
 -10   1  10 2146.90 583.628   3
  -9  -1  10 3316.18 697.862   3
  -1  10  10 2455.98 641.657   3
   1   9  10 2604.46 665.617   3
 -10   1  10 1110.81 545.658   1
 -10   1  10 1918.04 559.068   2
  10  -9  10 1826.75 579.469   1
  10  -9  10 1459.00 745.436   3
   9 -10  10 2134.10 606.462   1
   9 -10  10 1745.95 766.714   3
  -9  -1  10 2955.18 779.792   1
  10  -8  -6 10268.0 692.097   3
  -8  -2  -6 10060.7 698.179   4
 -10   2  -6 9307.54 648.197   4
 -10   2  -6 9239.70 537.555   1
 -10   2  -3 16214.7 776.106   2
  -8  -2  -3 17361.5 851.922   2
  -8  -2  -3 15247.7 805.716   3
 -10   2  -3 17362.9 675.461   1
  -8  -2  -3 18339.2 557.349   1
   8 -10  -3 17045.8 689.885   1
 -10   2  -3 17048.6 797.081   4
  -2  10  -3 16552.9 889.619   1
   2   8  -3 17669.2 552.994   4
  10  -8  -3 16837.1 555.994   3
  -8  -2  -3 17473.1 815.618   4
   2   8  -3 16361.3 483.579   2
   8 -10  -3 17764.7 693.475   3
   2   8   0 8680.61 456.250   2
   8 -10   0 8086.89 484.109   2
  -8  -2   0 8809.13 540.686   2
 -10   2   0 8398.90 509.211   1
 -10   2   0 8520.42 574.036   4
  -8  -2   0 7955.01 416.427   3
  10  -8   0 8243.07 538.307   4
   2   8   0 8868.77 550.477   1
  -2  10   0 8290.07 543.939   1
  -8  -2   0 8635.47 562.854   4
 -10   2   0 7885.76 358.457   3
  10  -8   0 8373.94 367.912   3
  10  -8   0 7770.15 523.670   2
   8 -10   0 8430.29 440.043   3
   2   8   0 8782.83 536.838   4
 -10   2   0 8751.24 541.133   2
  -2  10   0 8412.91 490.464   3
   2   8   0 8573.81 475.007   3
  10  -8   0 7713.14 532.670   1
  -2  10   0 8225.16 411.795   2
   8 -10   0 8794.28 567.675   1
  -8  -2   3 22569.7 817.587   2
  -8  -2   3 21606.5 576.063   3
 -10   2   3 20395.4 382.709   3
   8 -10   3 21207.7 917.899   1
  -2  10   3 21087.7 616.766   1
  -8  -2   3 22204.9 747.562   4
  10  -8   3 21598.7 749.744   2
   2   8   3 23393.9 975.154   2
 -10   2   3 23053.6 825.322   4
  -2  10   3 20334.1 825.004   3
  10  -8   3 22411.4 883.648   1
  10  -8   3 20152.4 757.191   4
   2   8   3 19936.2 842.064   3
   8 -10   3 21812.0 570.400   2
 -10   2   3 22314.1 897.334   2
   8 -10   3 21906.8 727.459   4
   2   8   3 22253.3 932.691   4
  -8  -2   6 555.267 431.820   1
  -2  10   6 1295.43 400.802   3
   2   8   6 2025.09 497.529   3
 -10   2   6 1097.01 329.193   3
  10  -8   6 1223.39 422.088   1
   8 -10   6 1451.83 281.560   2
  -8  -2   6 1057.21 365.473   2
  -8  -2   6 1198.62 257.921   4
 -10   2   6 1205.51 412.589   2
  10  -8   6 1363.45 327.572   2
  10  -8   6 1299.33 535.888   3
   8 -10   6 1724.52 463.640   1
 -10   2   6 1057.72 322.140   4
   8 -10   6 1130.23 212.492   4
  10  -8   6 1237.53 291.004   4
 -10   2   9 7396.42 865.202   1
   2   8   9 8367.91 895.898   3
  -2  10   9 7896.63 848.440   3
   8 -10   9 8219.94 856.894   1
  10  -8   9 6989.23 1017.70   3
 -10   2   9 7987.58 761.313   3
  -8  -2   9 7716.47 950.305   1
 -10   2   9 7573.17 816.376   2
  -8  -2   9 8270.66 864.269   3
  -8  -2   9 7481.32 725.950   2
   8 -10   9 7376.00 1061.97   3
 -10   2   9 7101.10 574.806   4
  10  -8   9 6688.37 726.143   1
 -10   3  -7 150.459 277.595   4
 -10   3  -7 362.780 300.469   1
 -10   3  -4 77017.3 1578.57   4
  -3  10  -4 72413.7 874.974   4
  10  -7  -4 75952.1 1271.61   3
   3   7  -4 74054.7 963.189   4
  -7  -3  -4 72956.0 928.043   1
 -10   3  -4 76450.0 1386.32   1
   7 -10  -4 75188.5 1550.61   3
 -10   3  -4 71546.6 1579.82   2
  -7  -3  -4 77227.6 1672.90   4
  -7  -3  -4 75584.5 1737.85   2
 -10   3  -1 4854.67 437.327   2
   7 -10  -1 5434.98 375.227   3
  10  -7  -1 5285.39 467.168   2
  -7  -3  -1 5143.55 478.950   2
  10  -7  -1 5341.68 455.564   1
   3   7  -1 5626.33 346.786   2
  10  -7  -1 5558.01 235.015   3
 -10   3  -1 5297.11 427.187   1
  -3  10  -1 5134.88 503.211   1
 -10   3  -1 5593.98 473.890   4
   3   7  -1 5108.01 375.998   3
  -3  10  -1 5498.36 426.506   3
  10  -7  -1 5034.22 434.903   4
  -7  -3  -1 4805.96 390.931   3
  -7  -3  -1 5397.05 480.730   4
   3   7  -1 5137.29 410.983   4
   7 -10  -1 5804.54 457.540   1
 -10   3   2 28431.6 954.827   2
   3   7   2 29195.9 993.270   4
  -7  -3   2 29442.7 841.564   2
  10  -7   2 29595.2 929.557   1
  -7  -3   2 28151.4 832.568   4
   3   7   2 27942.6 951.397   2
  -3  10   2 29518.2 885.578   3
  -3  10   2 27080.2 773.276   1
  -7  -3   2 27783.9 648.421   3
 -10   3   2 29563.5 928.714   4
   7 -10   2 28448.1 1007.66   1
   7 -10   2 27834.1 588.732   2
  10  -7   2 28017.4 871.290   4
  10  -7   2 29108.0 848.840   2
   3   7   2 28062.6 888.965   3
  -7  -3   5 4965.68 642.956   1
   7 -10   5 3997.06 301.730   2
  -7  -3   5 4393.86 345.843   4
  10  -7   5 3776.04 427.682   2
  10  -7   5 4037.38 402.042   4
  10  -7   5 4936.18 497.380   1
 -10   3   5 4421.01 449.101   4
 -10   3   5 4820.45 546.715   2
  10  -7   5 4590.96 619.404   3
   7 -10   5 4755.63 556.310   1
  -3  10   5 4964.27 548.008   3
  -7  -3   5 4700.12 463.836   2
   3   7   5 4358.24 542.563   3
 -10   3   5 4038.80 368.328   3
  -3  10   5 3430.11 262.221   1
  -7  -3   8 27325.0 1356.21   3
   3   7   8 27836.2 1401.58   3
  10  -7   8 29345.7 1611.50   3
  -3  10   8 27523.1 1317.00   3
  -7  -3   8 26371.5 1157.32   2
 -10   3   8 25644.9 1277.80   2
 -10   3   8 24164.6 975.457   4
  -7  -3   8 30888.9 1519.63   1
   7 -10   8 24402.7 930.035   2
  10  -7   8 25368.3 1138.44   1
  10  -7   8 21893.5 859.455   4
   7 -10   8 27849.2 1324.64   1
 -10   3   8 28034.0 1184.51   3
 -10   3  11 694.549 578.123   2
   3   7  11 1432.45 645.695   3
  -7  -3  11 1189.24 624.036   1
   7 -10  11 702.785 675.964   3
 -10   3  11 995.734 600.584   1
 -10   3  11 1078.12 480.484   3
  10  -7  11 677.181 482.218   1
  10  -7  11 1303.26 692.616   3
  -7  -3  11 805.374 496.782   2
  -7  -3  11 742.198 558.070   3
   7 -10  11 1924.70 691.044   1
  -3  10  11 713.448 542.253   3
 -10   4  -8 7204.86 594.501   1
   6 -10  -5 20500.2 946.112   3
 -10   4  -5 20909.1 808.123   1
 -10   4  -5 21941.4 866.968   4
 -10   4  -5 21885.1 957.186   2
   4   6  -5 18788.1 440.560   4
  10  -6  -2 24989.6 926.261   2
  10  -6  -2 26039.0 883.866   4
   4   6  -2 26177.9 761.600   3
  -4  10  -2 21734.4 912.720   1
 -10   4  -2 27473.0 914.642   4
 -10   4  -2 24316.9 827.839   2
  -6  -4  -2 25828.3 951.466   4
  -6  -4  -2 24786.7 908.777   2
  -6  -4  -2 24476.6 876.798   3
   4   6  -2 25561.5 729.943   4
   6 -10  -2 25684.3 790.560   3
   4   6  -2 27472.1 711.127   2
   6 -10  -2 25177.1 767.674   1
 -10   4  -2 25129.0 810.804   1
  -6  -4   1 6533.14 430.844   2
   4   6   1 6922.19 521.229   4
   4   6   1 6368.33 470.931   2
  10  -6   1 6277.46 465.500   4
   6 -10   1 6670.22 522.046   1
  10  -6   1 6558.93 481.353   1
   4   6   1 6234.88 438.634   3
   6 -10   1 6611.26 433.108   3
  -4  10   1 6400.44 436.425   3
 -10   4   1 5862.09 478.617   4
 -10   4   1 5494.75 434.808   1
 -10   4   1 6068.27 488.711   2
  -4  10   1 5631.41 425.732   1
  -6  -4   1 6573.90 371.729   3
  10  -6   1 6054.17 450.969   2
  -6  -4   1 7152.84 474.296   4
  10  -6   4 11874.5 613.796   4
  -6  -4   4 12415.6 507.767   4
 -10   4   4 12429.7 459.701   3
  -6  -4   4 12041.5 587.546   2
 -10   4   4 12149.1 742.820   2
  10  -6   4 12737.5 669.363   1
 -10   4   4 12407.4 650.742   4
  -6  -4   4 11752.6 546.289   3
  -4  10   4 11424.3 491.197   1
  10  -6   4 11444.9 630.328   2
  -4  10   4 13316.1 688.457   3
  10  -6   4 12097.0 827.482   3
   6 -10   4 11782.1 757.052   1
   4   6   4 11208.1 712.914   4
   4   6   4 12682.1 750.994   3
   6 -10   4 11803.6 353.713   2
  -6  -4   4 11986.3 826.687   1
  -4  10   7 2194.86 247.241   1
 -10   4   7 3081.68 546.358   2
  -4  10   7 2365.16 533.258   3
  -6  -4   7 3793.57 644.363   1
 -10   4   7 1965.60 372.167   4
 -10   4   7 2752.17 434.601   3
   6 -10   7 3289.41 575.723   1
  10  -6   7 2891.50 497.235   1
  -6  -4   7 1647.77 172.019   4
   4   6   7 2458.64 543.417   3
   6 -10   7 2738.39 340.641   2
  -6  -4   7 2329.96 427.216   2
  10  -6   7 2580.09 390.188   4
  10  -6   7 2312.08 647.319   3
  -6  -4  10 13148.8 1157.29   3
   4   6  10 11801.9 1090.67   3
   6 -10  10 13590.2 1368.69   3
   6 -10  10 10629.2 969.672   1
 -10   4  10 12197.5 920.144   3
  -6  -4  10 11569.2 898.905   2
  -6  -4  10 13501.0 1200.14   1
  -4  10  10 13006.4 1028.98   3
  10  -6  10 14182.1 1327.84   3
  10  -6  10 12687.7 844.776   1
 -10   4  10 12186.4 1018.34   2
 -10   4  10 11072.9 700.900   4
 -10   4  10 11916.3 1052.37   1
 -10   5  -6 9039.43 582.542   4
 -10   5  -6 9413.57 613.567   1
  10  -5  -3 22915.4 835.735   4
  10  -5  -3 23723.4 985.203   2
  -5  10  -3 22502.4 981.993   1
   5 -10  -3 24253.3 849.113   3
  -5  -5  -3 22183.1 919.701   3
   5   5  -3 23486.8 671.856   4
 -10   5  -3 22508.1 823.060   2
  -5  -5  -3 20525.6 900.263   2
   5   5  -3 22535.9 707.598   2
  -5  10  -3 22804.0 611.201   4
 -10   5  -3 23319.1 847.471   4
   5 -10  -3 22085.2 679.872   1
  -5  -5  -3 24002.1 936.665   4
 -10   5  -3 22244.2 818.641   1
  -5  10   0 37573.4 1034.13   1
   5   5   0 37314.5 912.458   2
   5   5   0 39507.4 1017.26   4
   5   5   0 38150.5 842.336   3
   5 -10   0 39112.2 908.779   3
  10  -5   0 36716.7 985.441   2
   5 -10   0 38270.4 1014.29   1
  -5  -5   0 37465.3 917.910   2
  -5  10   0 37932.1 904.494   3
 -10   5   0 38227.5 992.747   1
 -10   5   0 35309.2 972.644   4
  10  -5   0 37243.4 1008.82   4
  10  -5   0 38109.4 994.548   1
 -10   5   0 38516.7 997.952   2
  -5  -5   0 37737.9 999.871   4
  -5  -5   0 37361.4 886.004   3
   5   5   3 23921.2 915.517   3
  10  -5   3 24121.1 859.073   2
  10  -5   3 23278.5 967.129   3
 -10   5   3 23338.3 884.770   1
 -10   5   3 21990.4 437.257   3
 -10   5   3 24706.4 870.047   4
  -5  -5   3 22606.5 1013.77   1
  -5  -5   3 23468.6 682.306   4
  10  -5   3 24315.8 830.956   1
  -5  10   3 23371.5 734.187   1
  -5  -5   3 22421.5 696.220   3
   5 -10   3 24199.1 1006.76   1
  10  -5   3 23421.3 831.734   4
   5   5   3 22689.4 926.241   4
 -10   5   3 22566.6 944.327   2
  -5  -5   3 24122.8 718.151   2
   5   5   3 22795.7 960.318   2
  -5  10   3 23575.2 807.016   3
 -10   5   6 9496.91 748.756   2
 -10   5   6 9412.22 593.177   4
  -5  -5   6 10189.4 854.466   1
  -5  10   6 8454.77 452.037   1
   5   5   6 9591.72 787.775   3
   5 -10   6 10232.3 814.316   1
  10  -5   6 8491.19 595.653   4
  10  -5   6 9666.23 877.135   3
  -5  -5   6 9075.84 586.827   2
  -5  -5   6 7291.74 292.438   4
  -5  10   6 10138.1 701.556   3
 -10   5   6 10137.2 593.616   3
   5 -10   6 9991.95 439.123   2
  10  -5   6 10337.8 630.175   1
   5 -10   9 9441.22 1133.18   3
  -5  -5   9 8188.54 944.231   3
   5   5   9 8492.39 915.920   3
  10  -5   9 8201.95 1018.86   3
   5 -10   9 8297.98 907.676   1
 -10   5   9 7757.73 623.288   4
  -5  10   9 5785.77 422.569   1
 -10   5   9 7195.39 846.918   2
  -5  -5   9 7779.22 709.707   2
  10  -5   9 7106.42 622.903   1
 -10   5   9 6924.43 801.671   1
  -5  -5   9 8609.34 973.667   1
 -10   5   9 8055.58 713.217   3
  -5  10   9 8452.48 856.132   3
 -10   6  -7 1402.91 395.859   1
 -10   6  -7 2226.83 360.635   4
  -6  10  -4 14218.1 836.683   1
  10  -4  -4 13692.0 796.737   2
   6   4  -4 14153.0 661.844   2
  10  -4  -4 13929.8 672.995   4
   6   4  -4 14752.0 518.797   4
   4 -10  -4 13524.7 752.135   3
 -10   6  -4 13678.9 681.464   2
   4 -10  -4 13764.4 498.696   1
 -10   6  -4 13447.2 650.003   4
 -10   6  -4 14267.4 705.336   1
  -6  10  -4 13752.4 469.573   4
  -4  -6  -1 6522.18 453.404   3
   4 -10  -1 7266.63 473.905   1
  -4  -6  -1 7606.56 531.080   4
  10  -4  -1 6863.34 488.529   4
  -4  -6  -1 6745.67 483.864   2
  -4  -6  -1 7056.63 449.420   1
   4 -10  -1 6882.02 434.566   3
  -6  10  -1 7460.37 335.770   2
  10  -4  -1 5926.61 478.758   2
   6   4  -1 6794.44 368.135   3
 -10   6  -1 7917.54 518.948   4
 -10   6  -1 6924.71 473.907   2
  -6  10  -1 6919.97 447.908   4
   6   4  -1 7163.82 437.476   2
   6   4  -1 6995.65 463.771   4
 -10   6  -1 6767.19 477.370   1
  -6  10  -1 6606.59 536.209   1
 -10   6   2 27137.7 896.311   4
   4 -10   2 26795.4 847.285   3
   6   4   2 26850.1 937.679   2
   4 -10   2 26194.6 992.257   1
 -10   6   2 23177.9 342.506   3
 -10   6   2 23669.2 901.969   2
  -6  10   2 28291.3 795.451   3
   6   4   2 28030.3 964.553   4
  -4  -6   2 25861.8 733.040   3
  -6  10   2 26463.7 823.108   1
  -4  -6   2 27734.6 700.850   2
  10  -4   2 27562.5 877.212   2
  10  -4   2 28299.4 863.405   1
  -4  -6   2 27959.7 767.930   4
 -10   6   2 26948.8 888.474   1
  10  -4   2 27512.1 915.593   4
  10  -4   2 24944.4 902.090   3
   6   4   2 27632.1 883.606   3
  -4  -6   2 29026.7 1070.37   1
  -6  10   5 21868.0 726.659   1
   4 -10   5 19849.6 460.666   2
  -4  -6   5 19395.1 467.582   4
  10  -4   5 21495.7 782.728   1
  10  -4   5 21758.3 1121.36   3
 -10   6   5 21867.5 864.233   4
  -4  -6   5 23943.0 1137.55   1
 -10   6   5 23051.2 1054.97   2
  10  -4   5 22514.6 891.023   4
   6   4   5 22861.4 1068.92   3
  -6  10   5 23242.4 918.596   3
 -10   6   5 20522.1 886.089   1
 -10   6   5 23031.8 741.564   3
   4 -10   5 24307.6 1101.45   1
  -4  -6   5 21636.4 739.767   2
 -10   6   8 10299.5 720.533   3
  10  -4   8 11656.6 1059.10   3
  -6  10   8 7981.42 477.923   1
  -4  -6   8 11646.6 1029.87   1
   6   4   8 9996.71 903.990   3
   4 -10   8 9945.72 883.136   1
  10  -4   8 9295.28 621.600   1
 -10   6   8 9655.90 660.733   4
 -10   6   8 10120.2 881.249   2
  -6  10   8 10339.8 819.953   3
   4 -10   8 10710.5 598.461   2
  -4  -6   8 10417.6 709.036   2
  -6  10  11 440.318 509.304   3
 -10   6  11 710.887 608.187   2
   4 -10  11 1723.76 786.987   3
  -4  -6  11 1472.03 662.323   3
 -10   6  11 2036.07 554.940   3
  -4  -6  11 2589.43 793.575   1
   4 -10  11 1712.66 642.420   1
  -4  -6  11 430.759 442.596   2
  10  -4  11 1009.54 670.223   3
   6   4  11 1507.06 664.379   3
  -6  10  11 549.727 468.554   4
 -10   6  11 648.079 598.630   1
 -10   7  -8 25651.4 870.597   4
 -10   7  -5 4936.52 481.135   2
   7   3  -5 4661.87 326.847   4
  -7  10  -5 4250.03 285.330   4
  10  -3  -5 4343.98 426.010   4
 -10   7  -5 4580.06 511.502   1
 -10   7  -5 3962.79 399.065   4
 -10   7  -2 31812.2 875.433   2
  -7  10  -2 30954.8 1053.29   1
 -10   7  -2 30904.3 988.002   1
  -3  -7  -2 30815.0 974.785   3
   3 -10  -2 31655.6 917.552   3
  10  -3  -2 31916.9 1013.12   2
   3 -10  -2 31957.8 817.604   1
  -7  10  -2 32114.6 828.313   4
   7   3  -2 33198.3 906.449   2
 -10   7  -2 32462.4 942.973   4
   7   3  -2 31583.9 867.655   4
  -3  -7  -2 32505.3 747.727   1
  -7  10  -2 33104.9 611.592   2
  10  -3  -2 32253.2 948.264   4
  10  -3   1 4517.69 358.996   3
  -3  -7   1 4854.86 485.655   1
   3 -10   1 4945.56 392.414   3
  -7  10   1 4799.22 422.048   2
   3 -10   1 4779.72 500.315   1
   7   3   1 4951.29 442.718   2
   7   3   1 5121.80 386.658   3
 -10   7   1 4653.06 413.769   1
  -3  -7   1 5130.46 351.809   2
  -7  10   1 4892.11 441.212   1
  10  -3   1 5225.92 457.117   4
  -3  -7   1 4817.02 363.192   3
  10  -3   1 4718.34 423.027   2
   7   3   1 4641.08 448.853   4
 -10   7   1 4589.54 449.550   2
  -7  10   1 4882.05 363.746   3
 -10   7   1 4673.80 444.859   4
  -7  10   1 3677.34 425.079   4
  -3  -7   1 4760.85 399.227   4
   7   3   4 68687.1 1617.84   4
  10  -3   4 71316.6 1824.32   3
  -3  -7   4 74644.8 1853.23   1
   3 -10   4 73014.2 1791.42   1
  10  -3   4 69468.6 1517.02   4
 -10   7   4 67709.9 1478.09   1
 -10   7   4 74463.1 1109.40   3
  -3  -7   4 69271.8 1404.72   3
  10  -3   4 72627.5 1330.05   1
 -10   7   4 73723.2 1720.30   2
  -3  -7   4 70125.3 1082.98   2
  -7  10   4 75416.2 1420.82   3
  10  -3   4 70001.0 1590.56   2
  -7  10   4 69313.3 1316.37   1
   7   3   4 72733.1 1712.20   3
 -10   7   4 68790.9 1479.66   4
 -10   7   7 461.011 294.918   3
  -7  10   7 322.763 337.342   3
  -3  -7   7 901.519 534.307   1
   7   3   7 7.05072 455.755   3
  -3  -7   7 502.932 301.734   2
   3 -10   7-78.8929 239.105   2
  -7  10   7 379.599 253.585   1
   3 -10   7 509.726 461.716   1
 -10   7   7 148.818 435.288   2
   3 -10   7 350.270 222.409   2
  10  -3   7 190.235 488.724   3
 -10   7   7 976.172 374.045   4
  10  -3   7 843.833 339.744   1
  10  -3  10 11154.0 1190.23   3
  -7  10  10 12434.3 1017.85   3
   3 -10  10 11322.9 1277.68   3
   7   3  10 11173.0 1127.48   3
 -10   7  10 12195.5 1002.70   1
 -10   7  10 12960.9 964.528   3
 -10   7  10 10375.3 1033.81   2
 -10   7  10 10957.0 785.900   4
   3 -10  10 12939.1 812.972   2
  -3  -7  10 12476.3 868.501   2
  -3  -7  10 11999.8 1156.35   3
  -7  10  10 12184.8 892.390   4
  -3  -7  10 12457.7 1149.65   1
   3 -10  10 12337.5 1096.07   1
   8   2  -6 1004.70 217.916   4
  -8  10  -6 1140.46 214.928   4
 -10   8  -6 1405.39 290.439   4
 -10   8  -3 21341.1 740.407   2
 -10   8  -3 20746.7 853.265   1
  -8  10  -3 19983.2 916.405   1
  -2  -8  -3 19736.6 874.095   3
  -8  10  -3 19934.8 550.313   2
   8   2  -3 20697.7 709.721   4
   2 -10  -3 20486.2 858.870   3
  10  -2  -3 20707.9 774.005   4
   8   2  -3 21287.1 812.627   2
 -10   8  -3 20239.9 760.557   4
  -8  10  -3 20439.8 684.443   4
  -2  -8  -3 20869.9 505.861   1
   2 -10  -3 22274.3 590.834   1
  10  -2  -3 21230.5 890.781   2
 -10   8   0 7977.24 524.239   1
   2 -10   0 7447.28 525.270   1
  10  -2   0 6851.55 492.370   2
  -8  10   0 7843.42 552.489   1
 -10   8   0 7670.36 498.153   2
  -2  -8   0 7279.88 463.117   3
   2 -10   0 7744.89 467.236   3
  -2  -8   0 8638.69 565.770   1
  -8  10   0 7975.67 436.008   3
  10  -2   0 7718.74 520.186   4
 -10   8   0 7361.01 515.232   4
  -8  10   0 8184.73 518.125   4
   8   2   0 8132.87 545.178   4
  -8  10   0 7774.32 471.497   2
  -2  -8   0 7998.41 467.116   2
   8   2   0 7106.53 377.358   3
   8   2   0 8046.38 511.790   2
  10  -2   0 7329.83 315.031   3
  -2  -8   3 14235.5 434.732   2
  -8  10   3 13771.1 775.607   2
  10  -2   3 14174.9 601.086   1
   8   2   3 13332.6 730.205   4
   2 -10   3 14942.9 858.755   1
 -10   8   3 14402.4 718.887   4
  -8  10   3 14152.1 660.475   1
  10  -2   3 14312.6 790.702   3
   8   2   3 13669.9 737.542   3
  -8  10   3 14868.3 610.510   3
 -10   8   3 13587.7 675.520   1
  -2  -8   3 14784.7 871.873   1
 -10   8   3 14290.3 785.495   2
   8   2   3 14089.2 785.382   2
 -10   8   3 15931.4 495.228   3
  10  -2   3 13645.1 712.914   4
  -2  -8   3 13332.1 619.988   3
  10  -2   3 12995.3 705.749   2
   2 -10   3 14299.5 687.804   3
  -8  10   3 12840.5 689.600   4
  -8  10   6 8441.29 544.181   1
 -10   8   6 9977.16 598.368   3
   8   2   6 9081.83 814.006   3
 -10   8   6 9834.80 661.819   4
  -8  10   6 9267.19 669.436   4
  -2  -8   6 9474.42 507.717   2
   2 -10   6 8825.86 399.933   2
   2 -10   6 8732.10 780.239   1
  -8  10   6 9947.70 681.487   3
 -10   8   6 9151.99 784.992   2
   2 -10   6 8574.04 398.736   2
 -10   8   6 8323.08 591.830   1
  10  -2   6 9458.73 859.648   3
  -2  -8   6 9581.63 855.035   1
  10  -2   6 8578.30 491.843   1
   2 -10   9 5834.13 554.490   2
  -8  10   9 5226.21 671.491   3
   2 -10   9 5276.02 834.633   1
  10  -2   9 6284.52 928.013   3
  -8  10   9 5706.06 640.597   4
 -10   8   9 5973.85 658.975   3
 -10   8   9 5775.31 824.857   2
 -10   8   9 4866.20 579.314   4
  10  -2   9 4751.88 407.456   1
   8   2   9 4336.54 753.634   3
  -2  -8   9 5949.92 869.150   1
  -2  -8   9 5540.58 555.760   2
  -9  10  -7 7093.86 378.211   4
 -10   9  -7 7819.30 463.673   4
 -10   9  -4 10337.3 699.571   1
  -9  10  -4 9486.46 691.359   1
  10  -1  -4 10816.7 576.883   4
  -9  10  -4 11185.8 502.025   2
  -1  -9  -4 9385.61 262.991   1
 -10   9  -4 9797.98 536.859   4
   1 -10  -4 10705.5 363.203   1
   9   1  -4 10164.7 532.795   4
 -10   9  -4 10539.8 548.476   2
  -9  10  -4 10305.5 509.082   4
   9   1  -4 10547.8 669.603   2
  10  -1  -4 10867.1 714.045   2
   9   1  -1 2012.79 355.036   2
 -10   9  -1 2152.25 412.786   1
   1 -10  -1 2312.22 361.667   1
   1 -10  -1 1803.08 315.860   3
  -1  -9  -1 2092.84 345.803   1
   9   1  -1 1965.08 212.414   3
  -9  10  -1 2137.67 410.506   1
  -1  -9  -1 2018.51 333.443   3
  -9  10  -1 1590.27 320.027   4
   9   1  -1 1775.77 342.609   4
 -10   9  -1 2127.84 343.637   4
  10  -1  -1 1621.43 348.636   2
  10  -1  -1 2151.14 164.196   3
 -10   9  -1 2462.15 333.230   2
  -9  10  -1 2236.87 301.464   2
  10  -1  -1 1667.97 335.108   4
  -9  10   2 4392.09 473.359   4
  -9  10   2 3897.15 441.096   1
  10  -1   2 3628.26 451.567   2
 -10   9   2 4691.16 300.450   3
  -1  -9   2 4189.37 273.135   2
  10  -1   2 3888.32 427.023   3
  -9  10   2 4574.40 361.157   3
   9   1   2 3680.38 410.333   3
  10  -1   2 4365.05 474.780   4
   9   1   2 4063.93 451.525   4
  -1  -9   2 3563.30 379.082   3
   1 -10   2 3897.70 385.253   3
 -10   9   2 3970.01 449.370   4
 -10   9   2 3747.71 414.023   1
  -1  -9   2 3881.53 532.585   1
   1 -10   2 4210.84 555.999   1
  -9  10   2 4346.73 488.813   2
 -10   9   2 4151.92 502.766   2
   9   1   2 3880.13 460.506   2
 -10   9   5 7292.89 493.902   3
 -10   9   5 6413.84 636.079   2
   9   1   5 6126.59 639.286   3
  -9  10   5 7072.85 513.847   3
  -1  -9   5 6696.06 733.303   1
  -9  10   5 6444.41 493.603   1
   1 -10   5 5404.74 246.538   2
  10  -1   5 6755.65 417.375   1
 -10   9   5 6087.44 520.063   1
  -9  10   5 6837.30 670.806   2
  -9  10   5 5972.91 547.687   4
  -1  -9   5 5926.91 329.636   2
 -10   9   5 6313.59 544.856   4
   1 -10   5 6385.49 687.569   1
  10  -1   5 6751.02 723.141   3
   9   1   8 499.895 479.511   3
  -9  10   8 1319.01 457.047   3
  -9  10   8 769.716 396.844   4
 -10   9   8 431.568 483.793   2
 -10   9   8 1754.15 463.225   3
   1 -10   8 1404.69 572.310   1
  -1  -9   8 562.722 516.178   1
  10  -1   8 559.716 575.823   3
   1 -10   8 1023.83 292.805   2
   1 -10   8 395.008 273.996   2
  -1  -9   8 1107.22 324.150   2
 -10   9   8 1026.67 406.229   4
  -9  10   8 740.843 576.720   2
  10  -1   8 570.068 239.654   1
  -9  10   8 268.424 285.177   1
  -1  -9  11 7306.07 1023.75   1
   1 -10  11 8205.29 1028.24   1
  -9  10  11 7248.34 819.895   3
  -9  10  11 8374.34 1079.22   2
   9   1  11 6965.47 1002.89   3
 -10   9  11 5987.25 641.171   4
 -10   9  11 7637.27 857.117   3
  -1  -9  11 5981.98 996.740   3
 -10   9  11 9075.93 1141.06   2
  -9  10  11 5477.96 660.811   4
  10  -1  11 6435.02 959.641   3
   1 -10  11 7198.80 1123.08   3
 -10  10  -8 17071.3 592.946   4
  10   0  -5 130.841 232.289   4
 -10  10  -5 122.737 217.703   4
 -10  10  -5 183.742 252.037   2
 -10  10  -2 87190.5 1332.64   2
 -10  10  -2 83796.0 1486.13   4
 -10  10  -2 85535.1 1717.74   1
   0 -10  -2 84898.2 1622.33   3
  10   0  -2 87394.4 1581.85   4
  10   0  -2 85731.8 1630.35   2
   0 -10  -2 85389.9 1308.19   1
  10   0   1-425.341 330.013   2
   0 -10   1 203.622 224.090   3
  10   0   1 47.6538 221.448   3
   0 -10   1 680.305 400.370   1
 -10  10   1 240.752 201.229   3
  10   0   1 200.714 286.153   4
 -10  10   1 103.457 298.622   2
 -10  10   1 174.373 293.876   1
 -10  10   1 168.065 289.187   4
   0 -10   4 115063. 2364.54   1
 -10  10   4 112249. 1587.71   3
  10   0   4 109791. 2172.67   3
 -10  10   4 109426. 1977.88   4
  10   0   4 102043. 2011.34   4
 -10  10   4 103792. 1817.01   1
 -10  10   4 105391. 2153.01   2
 -10  10   7 529.147 355.566   4
   0 -10   7-667.491 483.783   1
 -10  10   7 267.637 327.479   3
   0 -10   7 273.353 245.043   2
  10   0   7-292.184 461.884   3
 -10  10   7-28.2862 469.733   2
 -10  10  10 18229.6 1059.29   4
   0 -10  10 18852.9 1539.01   3
 -10  10  10 19369.2 1403.43   2
   0 -10  10 19380.8 930.698   2
  10   0  10 20140.9 1493.55   3
 -10  10  10 17422.9 1053.18   1
   0 -10  10 20159.4 1398.34   1
 -10  10  10 19976.9 1172.04   3
 -11   0  -8 3017.43 287.785   1
 -11   0  -5-188.629 333.727   4
 -11   0  -5 293.425 247.908   1
  11 -11  -5-221.594 267.684   3
 -11   0  -5 61.7500 364.342   2
   0  11  -5-3.74128 98.6353   4
 -11   0  -2 15740.7 667.936   1
   0  11  -2 15329.5 719.536   3
   0  11  -2 15962.6 440.482   2
 -11   0  -2 14766.1 778.860   2
   0  11  -2 12820.2 810.092   1
   0  11  -2 16648.9 669.338   4
 -11   0  -2 15546.1 840.030   4
  11 -11  -2 15654.0 755.297   1
 -11   0  -2 14895.0 746.450   3
  11 -11  -2 15719.4 577.126   3
   0  11   1 53.1524 277.211   4
  11 -11   1-282.077 279.796   4
   0  11   1 6.61518 267.882   3
 -11   0   1 42.3585 301.258   4
  11 -11   1 102.819 359.151   1
  11 -11   1 180.697 274.288   2
   0  11   1-13.8895 282.167   2
  11 -11   1-57.7832 234.137   3
 -11   0   1 129.942 162.593   3
   0  11   1 152.709 295.617   1
 -11   0   1 188.770 327.860   2
 -11   0   4 21295.2 937.997   2
  11 -11   4 19140.5 705.135   2
 -11   0   4 19985.5 521.099   3
  11 -11   4 21614.6 997.417   1
   0  11   4 18933.7 523.500   1
 -11   0   4 21962.6 866.146   4
  11 -11   4 20749.4 818.016   4
   0  11   4 20258.8 925.013   3
  11 -11   7 887.090 503.711   1
 -11   0   7 69.2722 376.955   2
   0  11   7 414.616 412.266   3
  11 -11   7 45.0697 297.767   2
  11 -11   7 195.763 262.781   4
 -11   0   7 369.713 334.282   4
 -11   0   7 702.634 358.305   3
  11 -11  10 6422.22 817.334   1
  11 -11  10 6160.18 1063.36   3
 -11   0  10 5986.65 746.321   2
   0  11  10 6855.86 896.014   3
 -11   0  10 5645.05 883.331   1
 -11   0  10 8183.40 859.975   3
 -10  -1  -6 1369.91 247.653   1
 -11   1  -6 1587.96 441.685   2
 -10  -1  -6 1811.02 413.197   4
 -11   1  -6 1200.46 283.220   1
 -11   1  -6 1237.02 357.391   4
  11 -10  -6 1437.70 372.059   3
  11 -10  -3 4349.52 350.589   3
  10 -11  -3 3376.80 347.400   3
 -11   1  -3 3578.51 497.543   3
 -10  -1  -3 4022.87 504.954   3
   1  10  -3 4272.64 343.298   4
  10 -11  -3 4052.94 452.189   1
 -10  -1  -3 3543.48 491.140   2
 -11   1  -3 3233.92 368.803   1
  -1  11  -3 3871.06 327.908   4
 -10  -1  -3 4102.59 476.537   4
 -10  -1  -3 4161.76 344.207   1
 -11   1  -3 3136.79 463.429   2
 -11   1  -3 4016.15 499.120   4
   1  10  -3 3395.59 223.137   2
 -11   1   0 599.728 217.896   3
 -10  -1   0 447.828 212.366   3
  11 -10   0 340.829 337.794   1
 -10  -1   0 460.078 347.540   2
  11 -10   0 129.666 289.459   2
 -11   1   0 479.329 317.754   4
   1  10   0 303.268 252.305   2
  10 -11   0 762.880 353.293   1
 -11   1   0 329.702 285.219   1
   1  10   0 554.375 289.316   3
 -10  -1   0 718.368 344.855   4
  -1  11   0 404.119 275.603   3
  10 -11   0 625.882 242.243   3
  11 -10   0 220.665 194.292   3
 -11   1   0 592.411 326.451   2
  11 -10   0 439.807 303.921   4
  -1  11   0 589.852 262.643   2
  10 -11   0 404.767 283.942   2
  -1  11   0 943.171 364.504   1
   1  10   0 418.237 311.012   1
   1  10   0 220.421 294.528   4
 -11   1   3 5805.77 240.266   3
 -11   1   3 7365.33 535.619   4
 -11   1   3 6871.79 567.797   2
   1  10   3 7242.68 557.363   3
   1  10   3 7286.74 620.839   2
 -10  -1   3 7371.26 525.633   4
  10 -11   3 6925.35 620.473   1
  -1  11   3 6818.94 414.586   1
  10 -11   3 7342.46 435.430   2
 -10  -1   3 6889.55 311.745   3
  10 -11   3 7227.34 492.410   4
  -1  11   3 7189.16 543.210   3
 -10  -1   3 7410.46 547.819   2
  11 -10   3 7524.99 521.234   4
  11 -10   3 6733.09 456.606   2
  11 -10   3 6731.35 584.500   1
 -10  -1   6 2319.91 454.369   3
  10 -11   6 1559.00 487.911   1
 -10  -1   6 1841.45 338.118   4
  11 -10   6 1645.28 354.257   2
  11 -10   6 1961.17 342.987   4
 -11   1   6 2218.48 388.218   3
   1  10   6 1860.39 466.968   3
  -1  11   6 2684.35 508.247   3
  11 -10   6 2845.04 534.252   1
  10 -11   6 1658.98 292.054   4
 -11   1   6 1976.81 442.074   2
 -11   1   6 2111.72 370.917   4
 -10  -1   6 1523.60 380.241   2
  10 -11   6 2158.26 336.433   2
 -11   1   9 3715.95 478.160   4
 -11   1   9 5143.07 670.205   3
 -10  -1   9 4473.75 857.789   1
   1  10   9 4252.08 731.158   3
  -1  11   9 5023.01 734.109   3
 -11   1   9 4609.19 688.934   2
  11 -10   9 4080.77 668.616   1
 -10  -1   9 3868.43 361.546   4
 -10  -1   9 4337.53 628.724   2
  10 -11   9 4786.18 934.759   3
  11 -10   9 4587.26 873.968   3
 -11   1   9 3970.34 727.380   1
 -10  -1   9 5367.35 690.932   3
  10 -11   9 4657.23 742.758   1
 -11   2  -7 21917.4 993.269   4
 -11   2  -7 18306.8 750.189   1
 -11   2  -4 19140.0 752.132   1
   9 -11  -4 20352.9 824.741   3
  11  -9  -4 19311.8 685.816   3
 -11   2  -4 19020.3 910.207   2
  -9  -2  -4 21068.1 957.313   4
   2   9  -4 19799.8 549.864   4
  -9  -2  -4 20922.2 617.058   1
 -11   2  -4 19967.4 906.612   4
  -2  11  -4 20152.9 532.754   4
  -9  -2  -4 19694.0 958.023   2
 -11   2  -1 44162.9 1095.21   1
  -9  -2  -1 41901.3 1024.69   3
  -2  11  -1 45923.7 762.974   2
   2   9  -1 44990.6 1055.72   3
   2   9  -1 46503.8 884.686   2
   9 -11  -1 45083.7 950.258   3
  -9  -2  -1 45260.0 1197.81   2
  -2  11  -1 44987.2 1114.89   3
  -2  11  -1 43900.7 1271.70   1
 -11   2  -1 41340.0 993.725   3
   9 -11  -1 45201.0 1153.12   1
 -11   2  -1 48051.0 1279.30   4
  11  -9  -1 44430.1 1189.11   1
  11  -9  -1 45577.1 1221.35   2
  -9  -2  -1 45536.8 1268.05   4
   2   9  -1 44472.0 1274.46   1
  11  -9  -1 43851.5 1198.97   4
   2   9  -1 47001.1 1114.90   4
  11  -9  -1 46090.3 759.028   3
 -11   2  -1 46462.4 1202.98   2
  11  -9   2 17618.6 742.213   4
  -9  -2   2 18393.7 753.118   4
   2   9   2 17669.8 846.190   4
  -9  -2   2 18051.5 520.570   3
   9 -11   2 17835.7 580.251   2
  -2  11   2 16811.6 723.688   3
   2   9   2 18188.3 816.720   2
  11  -9   2 17133.7 687.368   2
  11  -9   2 16764.1 792.357   1
   9 -11   2 14863.5 673.896   4
   9 -11   2 16642.3 856.184   1
   2   9   2 16188.2 724.389   3
  -9  -2   2 18572.9 763.074   2
 -11   2   2 18663.2 782.349   4
 -11   2   2 17507.3 788.482   2
  -2  11   2 17392.1 685.050   1
  -2  11   5 12848.9 804.146   3
   9 -11   5 12979.2 574.415   4
 -11   2   5 13805.4 815.525   2
 -11   2   5 14149.0 724.147   4
   9 -11   5 13899.8 878.880   1
  -9  -2   5 13561.1 755.355   2
 -11   2   5 13245.0 573.395   3
  11  -9   5 12996.8 649.210   4
  11  -9   5 13126.1 788.229   1
   2   9   5 13778.1 849.007   3
  -9  -2   5 13000.7 566.671   3
  -2  11   5 9958.18 357.742   1
  -9  -2   5 14807.0 656.400   4
   9 -11   5 13232.7 530.651   2
  11  -9   5 12775.5 667.008   2
  -9  -2   8 14083.1 964.764   3
 -11   2   8 14904.4 896.605   3
   9 -11   8 13533.5 723.731   2
  11  -9   8 12532.8 651.994   4
 -11   2   8 14599.4 776.615   4
  -9  -2   8 13266.7 895.986   2
  -9  -2   8 16579.0 1187.00   1
 -11   2   8 14807.1 997.160   2
  11  -9   8 14447.6 961.294   1
  -9  -2   8 11991.4 559.762   4
   9 -11   8 14004.6 977.898   1
   2   9   8 15194.5 1071.15   3
  -2  11   8 15483.4 1046.79   3
  11  -9   8 15522.2 1275.96   3
   9 -11  11 12278.5 1425.68   3
  11  -9  11 10478.9 1320.44   3
  -9  -2  11 10918.5 1210.43   1
  11  -9  11 9663.75 905.609   1
  -9  -2  11 9423.08 924.469   2
   2   9  11 10361.6 1048.90   3
 -11   2  11 10654.6 1107.74   1
   9 -11  11 10622.6 1029.10   1
  -9  -2  11 11326.7 1085.41   3
  -2  11  11 10335.9 1061.51   3
 -11   2  11 9642.82 949.164   2
 -11   2  11 10714.5 967.829   3
 -11   3  -8 3324.36 442.760   4
 -11   3  -8 2689.46 415.450   1
 -11   3  -5 17820.9 859.119   4
  11  -8  -5 19172.6 782.962   3
  -8  -3  -5 15423.4 432.789   1
 -11   3  -5 17437.5 731.362   1
 -11   3  -5 18697.2 954.646   2
   8 -11  -5 19513.7 912.332   3
  -3  11  -5 15030.3 335.147   4
   3   8  -5 16104.5 410.843   4
  -8  -3  -5 18832.9 925.432   4
  -8  -3  -2 42381.5 1146.71   3
 -11   3  -2 43899.3 1178.70   2
  -8  -3  -2 45463.9 1260.34   2
   8 -11  -2 45542.4 1014.72   3
   8 -11  -2 44486.8 1091.70   1
  -3  11  -2 43876.0 1334.90   1
 -11   3  -2 45576.8 1095.76   1
   3   8  -2 45569.5 1089.54   3
  11  -8  -2 44720.9 694.390   3
  11  -8  -2 46342.3 1319.63   2
  11  -8  -2 44005.1 1216.34   4
 -11   3  -2 45391.6 1260.07   4
  -8  -3  -2 45436.2 1292.62   4
  11  -8  -2 44795.9 1193.78   1
   3   8  -2 47506.1 886.829   2
   3   8  -2 44805.0 1002.07   4
   8 -11   1 10232.3 680.487   1
  -8  -3   1 10424.1 593.923   2
 -11   3   1 10917.6 627.818   1
 -11   3   1 10922.2 644.139   2
   3   8   1 10792.0 563.874   3
   8 -11   1 9931.96 462.954   2
   3   8   1 10720.1 618.138   2
  -3  11   1 10546.3 579.788   1
  11  -8   1 11173.0 622.839   1
  -8  -3   1 10668.6 612.201   4
  11  -8   1 10086.9 590.281   4
 -11   3   1 11352.9 648.775   4
  11  -8   1 10768.7 567.135   2
  -3  11   1 11363.0 588.475   3
   8 -11   1 10465.8 527.644   3
  -8  -3   1 10825.2 459.091   3
   3   8   1 9963.12 632.661   4
   3   8   4 14087.8 786.396   3
  11  -8   4 12521.3 708.733   1
  -8  -3   4 14884.1 713.372   2
  -3  11   4 15130.7 767.955   3
  -8  -3   4 14122.9 557.757   3
 -11   3   4 13640.8 465.631   3
   8 -11   4 15340.3 870.421   1
  -8  -3   4 15072.6 642.504   4
   8 -11   4 14696.9 459.824   2
 -11   3   4 15502.4 741.415   4
  11  -8   4 14595.7 681.947   4
  11  -8   4 14461.6 683.962   2
 -11   3   4 15200.8 821.098   2
  -3  11   4 14224.1 519.929   1
  -3  11   7 2429.21 511.567   3
  -8  -3   7 2695.56 298.085   4
   3   8   7 2801.01 527.415   3
  -8  -3   7 3135.94 641.701   1
  11  -8   7 2930.09 513.629   1
 -11   3   7 2948.38 431.654   4
   8 -11   7 2736.95 562.569   1
  11  -8   7 3537.05 672.361   3
 -11   3   7 3403.21 467.599   3
 -11   3   7 2925.44 551.258   2
  11  -8   7 2839.86 408.033   4
  -8  -3   7 2692.71 475.277   2
   8 -11   7 2647.68 348.911   2
   8 -11  10 6248.45 1113.10   3
  -8  -3  10 6930.78 879.843   3
  -8  -3  10 6361.28 949.651   1
  11  -8  10 5623.42 942.413   3
   3   8  10 4628.89 802.929   3
  -8  -3  10 5748.64 687.815   2
 -11   3  10 5294.33 772.828   2
   8 -11  10 5528.71 779.767   1
  11  -8  10 4648.86 661.866   1
 -11   3  10 4715.37 524.768   4
 -11   3  10 6049.57 869.112   1
  -3  11  10 6934.06 883.204   3
 -11   3  10 6044.45 713.680   3
 -11   4  -6 397.693 291.319   4
 -11   4  -6-229.258 298.246   1
 -11   4  -6 66.6910 345.576   2
  -7  -4  -3 24479.1 979.580   4
   7 -11  -3 25003.0 862.279   3
 -11   4  -3 23411.6 905.289   2
 -11   4  -3 24986.7 861.662   1
   4   7  -3 24309.8 696.000   4
  11  -7  -3 24464.0 1033.82   2
   4   7  -3 24589.9 706.684   2
  -7  -4  -3 24027.6 1002.33   2
 -11   4  -3 24230.3 925.873   4
  -4  11  -3 22762.7 1034.71   1
  -4  11  -3 25045.1 674.081   4
  11  -7  -3 25062.9 952.736   4
  -7  -4  -3 25486.9 606.121   1
   7 -11  -3 24380.4 779.325   1
  11  -7  -3 21994.1 533.044   3
  -7  -4  -3 24415.8 1006.39   3
 -11   4   0 3414.17 432.549   4
   4   7   0 3279.29 337.908   3
   4   7   0 3015.28 353.400   2
 -11   4   0 2548.74 366.093   1
  -7  -4   0 3246.20 329.424   3
  -4  11   0 3456.66 370.072   3
   7 -11   0 3052.91 330.510   3
  11  -7   0 3402.60 428.026   1
  -4  11   0 2517.49 383.946   1
  -7  -4   0 2773.07 386.606   2
  11  -7   0 2588.10 366.632   4
  11  -7   0 3012.83 409.479   2
   7 -11   0 3254.63 461.236   1
   4   7   0 2923.41 392.530   4
  -7  -4   0 2925.10 409.803   4
 -11   4   0 2700.30 393.789   2
  11  -7   3 10432.4 636.975   1
   7 -11   3 7899.69 291.869   2
  -4  11   3 10065.7 598.324   3
   4   7   3 9493.31 646.552   3
   7 -11   3 10044.9 695.224   1
  11  -7   3 9312.88 568.031   4
  -7  -4   3 8948.93 444.264   3
 -11   4   3 9597.67 594.777   4
  -4  11   3 9511.73 504.559   1
   4   7   3 9500.43 663.621   2
  -7  -4   3 9746.66 544.050   2
  -7  -4   3 10098.1 535.044   4
 -11   4   3 10005.8 661.600   2
   4   7   3 8823.16 652.881   4
  11  -7   3 9799.75 588.254   2
  11  -7   6 2761.66 606.111   3
 -11   4   6 2250.97 352.641   3
  -7  -4   6 1581.64 346.195   2
  -4  11   6 2922.60 489.667   3
 -11   4   6 2206.56 466.729   2
 -11   4   6 1925.22 364.195   4
  11  -7   6 2335.39 417.717   1
  -7  -4   6 2057.16 255.358   4
   7 -11   6 2310.95 273.354   2
   7 -11   6 1905.16 473.372   1
  -4  11   6 1656.75 227.737   1
  -7  -4   6 2566.28 566.336   1
  11  -7   6 2054.40 341.735   4
   4   7   6 2201.65 488.603   3
   7 -11   9 10523.7 1223.27   3
  -7  -4   9 10146.8 953.846   3
  11  -7   9 9649.95 1114.78   3
  -4  11   9 9236.01 892.539   3
  11  -7   9 10427.8 799.020   1
   7 -11   9 9214.97 891.478   1
   4   7   9 9742.18 984.752   3
  -7  -4   9 9541.38 1022.30   1
 -11   4   9 10190.0 786.500   3
 -11   4   9 9092.22 897.325   2
  -7  -4   9 9160.53 788.211   2
 -11   4   9 8204.08 871.615   1
 -11   4   9 8925.27 645.944   4
 -11   5  -7 13684.3 783.694   1
 -11   5  -7 13833.7 756.242   4
  -6  -5  -4 8971.50 291.081   1
   6 -11  -4 9291.20 647.774   3
  -5  11  -4 9542.85 392.695   4
   5   6  -4 9489.19 433.507   4
  -6  -5  -4 9282.58 658.894   4
  -6  -5  -4 7399.53 284.021   1
   5   6  -4 9667.45 521.352   2
 -11   5  -4 8999.85 576.028   1
 -11   5  -4 8740.54 608.164   2
   6 -11  -4 8829.02 474.218   1
  11  -6  -4 9420.63 631.531   4
 -11   5  -4 9035.31 597.815   4
  -6  -5  -1 62603.5 1333.12   2
  -5  11  -1 61959.2 1436.36   1
  -6  -5  -1 62196.1 1397.57   4
  -5  11  -1 63656.8 874.571   2
   6 -11  -1 61942.6 1183.06   3
  11  -6  -1 62497.3 1355.05   4
 -11   5  -1 60998.9 1288.33   1
 -11   5  -1 63697.3 1380.89   4
   5   6  -1 60605.7 1242.77   4
 -11   5  -1 62350.4 1300.97   2
  -6  -5  -1 60304.1 1260.15   3
   6 -11  -1 62885.3 1300.74   1
   5   6  -1 59870.2 1106.22   3
  11  -6  -1 59494.8 1358.33   2
  -5  11  -1 60565.4 1240.84   3
   5   6  -1 61428.2 1122.25   2
  11  -6  -1 55909.3 533.326   3
  -5  11   2 16643.0 684.246   3
 -11   5   2 16469.1 757.503   4
   5   6   2 16938.3 721.933   3
   5   6   2 15761.7 797.914   4
   5   6   2 16775.9 800.239   2
  -5  11   2 15146.6 650.502   1
  -6  -5   2 16351.1 647.526   2
  11  -6   2 16062.4 735.988   4
   6 -11   2 17060.0 843.874   1
  -6  -5   2 14808.4 551.165   3
   6 -11   2 15754.8 692.932   3
 -11   5   2 16461.9 797.100   2
  11  -6   2 17755.1 753.480   1
  11  -6   2 15909.5 696.916   2
  11  -6   2 14663.5 723.012   3
  -6  -5   2 16216.1 665.319   4
 -11   5   2 14116.4 708.268   1
  -6  -5   5 19693.5 762.888   2
 -11   5   5 21507.6 674.759   3
   5   6   5 20934.6 1032.10   3
  11  -6   5 19324.1 816.041   1
   6 -11   5 20800.1 1052.66   1
  -5  11   5 19719.8 654.708   1
  11  -6   5 19721.6 893.066   2
 -11   5   5 21504.5 1033.73   2
   6 -11   5 18865.3 465.476   2
  -6  -5   5 19303.0 774.837   3
  -6  -5   5 21695.1 636.885   4
  -6  -5   5 22827.2 1176.75   1
 -11   5   5 19398.0 821.100   4
  11  -6   5 19652.5 831.875   4
  11  -6   5 20282.6 1121.99   3
  -5  11   5 21719.4 930.141   3
  11  -6   8 19612.7 1375.02   3
  -5  11   8 13276.2 551.116   1
 -11   5   8 19424.9 947.393   3
   6 -11   8 18598.0 742.945   2
  -5  11   8 19797.2 1135.01   3
 -11   5   8 18311.1 901.818   4
   6 -11   8 17696.4 1137.49   1
 -11   5   8 18194.2 1128.13   2
  -5  11   8 13256.6 523.787   1
  11  -6   8 18587.9 908.550   1
  -6  -5   8 17998.4 921.311   2
   5   6   8 19388.4 1236.51   3
  11  -6   8 14712.3 822.733   4
  -6  -5   8 21600.2 1360.83   1
  -6  -5  11 14604.5 1334.83   1
 -11   5  11 13478.3 1016.51   3
  11  -6  11 12668.0 1349.95   3
 -11   5  11 11931.2 1130.42   2
   5   6  11 13397.9 1210.46   3
  -5  11  11 12381.4 1082.25   3
  -6  -5  11 12223.7 1215.87   3
   6 -11  11 13658.2 1167.43   1
 -11   5  11 11827.4 1097.35   1
  -5  11  11 9836.80 935.836   4
   6 -11  11 13447.9 1423.42   3
  -6  -5  11 10849.4 936.304   2
 -11   6  -8 17567.3 787.067   4
 -11   6  -5 19211.2 806.149   4
   6   5  -5 19228.3 553.001   4
  -6  11  -5 18308.2 487.973   4
 -11   6  -5 19569.9 868.041   1
   6   5  -2 17260.6 665.994   2
  -5  -6  -2 16497.3 592.886   1
   5 -11  -2 16611.3 655.953   1
  -5  -6  -2 17527.6 822.015   4
 -11   6  -2 17089.9 712.701   2
 -11   6  -2 16172.7 740.931   4
  -5  -6  -2 15618.8 754.418   3
  11  -5  -2 16166.2 781.162   2
  -6  11  -2 16307.8 615.892   4
  -5  -6  -2 15755.7 782.263   2
   6   5  -2 15868.1 644.871   4
   6   5  -2 17087.5 613.276   3
  11  -5  -2 17340.4 754.089   4
  -6  11  -2 16165.6 834.312   1
 -11   6  -2 16305.0 753.861   1
   5 -11  -2 17056.9 692.435   3
  -6  11  -2 16279.2 375.000   2
   6   5   1 55376.6 1330.76   4
  11  -5   1 54073.9 1087.46   3
   6   5   1 56515.2 1163.85   3
  -6  11   1 56078.3 1247.72   1
 -11   6   1 56136.6 1303.93   4
   5 -11   1 55297.8 1162.40   3
  -5  -6   1 55937.7 1094.63   2
  11  -5   1 56536.9 1307.58   4
  11  -5   1 58282.8 1278.69   1
  -5  -6   1 57385.9 1215.35   4
   5 -11   1 56621.3 1351.09   1
  -6  11   1 58606.6 1162.94   3
  -5  -6   1 54816.0 1067.24   3
   6   5   1 56524.0 1263.94   2
  11  -5   1 55257.8 1247.14   2
 -11   6   1 54930.5 1266.10   1
 -11   6   1 57023.2 1303.86   2
  -5  -6   1 59675.2 1420.10   1
  11  -5   4 8715.46 697.984   3
  -5  -6   4 8501.44 419.429   4
   6   5   4 8682.54 687.411   3
 -11   6   4 7483.81 577.811   1
  -5  -6   4 9530.51 784.068   1
 -11   6   4 8151.97 651.802   2
  11  -5   4 7719.32 522.660   1
  11  -5   4 7229.53 557.670   2
  -5  -6   4 7664.10 492.894   3
  -6  11   4 7785.05 484.981   1
  -5  -6   4 7270.69 434.847   2
 -11   6   4 8756.92 365.428   3
 -11   6   4 7943.02 569.289   4
   5 -11   4 9110.28 724.205   1
  11  -5   4 7389.26 546.171   4
  -6  11   4 8159.24 564.895   3
  11  -5   7 18589.3 1234.57   3
   6   5   7 19200.7 1129.99   3
  11  -5   7 16999.5 824.012   1
 -11   6   7 17164.7 1064.46   2
  -5  -6   7 18385.5 1185.97   1
  -5  -6   7 17715.0 832.225   2
  -6  11   7 16117.1 646.157   1
  11  -5   7 15202.0 841.641   4
   5 -11   7 17367.7 1075.01   1
   5 -11   7 17964.8 609.980   2
  -6  11   7 19038.6 1012.50   3
 -11   6   7 16940.5 812.944   3
 -11   6   7 18439.0 892.781   4
 -11   6  10 7153.78 736.098   3
  -5  -6  10 6913.13 733.964   2
  -5  -6  10 6730.89 968.317   3
 -11   6  10 5117.72 848.645   2
  -6  11  10 4874.76 703.180   4
   5 -11  10 6061.14 858.187   1
  11  -5  10 5235.27 576.060   1
   5 -11  10 5707.91 986.762   3
 -11   6  10 6381.93 823.911   1
   5 -11  10 6637.83 635.532   2
  -5  -6  10 7694.88 1038.00   1
 -11   6  10 6758.98 650.118   4
  -6  11  10 6743.68 792.411   3
  11  -5  10 5193.13 922.885   3
   6   5  10 6444.70 880.344   3
  -7  11  -6 1702.42 183.255   4
   7   4  -6 1958.81 250.651   4
 -11   7  -6 1819.66 326.163   4
 -11   7  -6 1253.95 377.214   1
  11  -4  -3 8092.89 627.358   2
   4 -11  -3 9143.43 468.341   1
  -4  -7  -3 8204.91 631.863   3
 -11   7  -3 8872.82 554.959   2
   4 -11  -3 8632.84 574.896   3
  -7  11  -3 9000.20 462.238   4
  11  -4  -3 8769.80 564.882   4
   7   4  -3 9539.32 505.567   4
   7   4  -3 8432.12 522.028   2
  -7  11  -3 7793.52 291.881   2
  -4  -7  -3 9350.28 388.063   1
 -11   7  -3 9052.31 615.919   1
 -11   7  -3 8850.25 566.245   4
  -7  11  -3 8933.81 670.960   1
   7   4   0 3432.36 374.787   2
  -4  -7   0 3621.85 431.760   4
   4 -11   0 3775.74 419.890   1
  11  -4   0 3243.74 257.315   3
   7   4   0 3387.42 316.599   3
  -4  -7   0 3159.62 336.835   3
 -11   7   0 3380.06 380.772   1
  -7  11   0 3589.96 439.656   1
  -4  -7   0 4102.39 451.736   1
  -7  11   0 4084.61 367.826   3
   7   4   0 3409.95 413.603   4
  -7  11   0 3217.96 360.358   2
  11  -4   0 3553.35 414.670   4
 -11   7   0 3674.76 439.059   4
  -4  -7   0 3526.09 382.099   2
  11  -4   0 3652.85 409.049   2
  -7  11   0 3823.71 409.256   4
 -11   7   0 3317.62 391.669   2
   4 -11   0 3736.74 362.931   3
  -7  11   3 22640.5 790.340   3
  11  -4   3 20302.2 860.332   2
  11  -4   3 20293.2 847.893   4
  -4  -7   3 21038.8 632.392   2
   7   4   3 21358.9 878.415   3
   7   4   3 20718.0 933.558   2
 -11   7   3 20684.5 848.125   1
 -11   7   3 22674.6 480.865   3
  -4  -7   3 20398.0 726.304   3
  11  -4   3 22835.5 822.318   1
  11  -4   3 22751.7 964.074   3
   4 -11   3 20912.3 846.456   3
 -11   7   3 20994.5 936.690   2
  -7  11   3 22862.7 825.773   1
  -4  -7   3 20564.1 1025.78   1
   4 -11   3 23141.9 1038.71   1
 -11   7   3 21571.0 855.807   4
  -4  -7   3 22777.4 694.314   4
   7   4   3 20412.6 911.100   4
   4 -11   6-5.91865 120.162   2
  -4  -7   6 609.259 485.717   1
  -7  11   6 291.756 335.196   3
  11  -4   6 170.323 421.522   3
  -4  -7   6 189.517 257.000   2
   4 -11   6-54.7283 428.608   1
   7   4   6 21.2291 408.078   3
  11  -4   6-170.951 286.075   4
 -11   7   6 53.5349 228.873   3
  -7  11   6 127.754 256.151   1
   4 -11   6 238.839 155.358   2
 -11   7   6 478.637 313.262   4
 -11   7   6-345.719 388.618   2
  11  -4   6 77.9228 281.320   1
   4 -11   9 2825.82 429.826   2
  11  -4   9 2150.21 643.307   3
   7   4   9 3346.66 687.527   3
  -7  11   9 1602.36 408.782   1
  -7  11   9 2801.61 559.061   4
  11  -4   9 2159.65 430.431   1
  -4  -7   9 3525.24 746.973   1
   4 -11   9 3442.09 733.227   1
 -11   7   9 1732.48 428.649   4
 -11   7   9 1955.63 601.786   2
  -7  11   9 2449.52 591.514   3
  -4  -7   9 2777.86 494.563   2
 -11   7   9 3265.07 512.889   3
  -8  11  -7 1707.11 174.733   4
 -11   8  -7 2933.19 358.361   4
   8   3  -4 14021.2 584.958   4
  -8  11  -4 14371.2 468.351   2
   3 -11  -4 15076.5 512.193   1
 -11   8  -4 13831.2 667.469   4
 -11   8  -4 14490.5 696.042   2
 -11   8  -4 14008.1 773.391   1
  -8  11  -4 13885.3 553.174   4
   8   3  -4 15588.9 748.720   2
  11  -3  -4 14530.1 695.453   4
  11  -3  -1 12941.2 678.621   4
 -11   8  -1 11477.3 635.619   4
  -8  11  -1 11320.5 584.028   4
  -3  -8  -1 10685.2 585.245   3
   8   3  -1 11251.2 614.896   2
  11  -3  -1 12084.0 659.943   2
   3 -11  -1 11537.3 601.722   1
  -3  -8  -1 11144.1 570.652   1
  -3  -8  -1 11834.5 645.977   2
   8   3  -1 11510.4 454.915   3
  -8  11  -1 11787.2 691.291   1
 -11   8  -1 11909.3 592.720   2
   3 -11  -1 11159.5 578.854   3
  -8  11  -1 11676.9 470.784   2
   8   3  -1 11285.6 619.371   4
 -11   8  -1 11434.5 670.726   1
  11  -3   2 48608.0 1149.45   1
  11  -3   2 46755.8 1193.56   3
   3 -11   2 49557.1 1419.58   1
 -11   8   2 47076.1 645.816   3
   8   3   2 48442.6 1283.93   2
  -3  -8   2 47522.5 889.055   2
  -8  11   2 49137.2 1046.01   3
   3 -11   2 45791.1 1132.48   3
   8   3   2 46860.4 1162.29   3
  -3  -8   2 47220.7 1398.32   1
 -11   8   2 47592.3 1240.50   4
  11  -3   2 45906.7 1214.73   2
  -3  -8   2 46555.6 1059.38   3
  -8  11   2 47818.3 1208.33   1
  -8  11   2 47618.9 1255.14   2
 -11   8   2 47467.6 1277.18   2
  11  -3   2 46773.3 1267.02   4
 -11   8   2 46257.1 1202.67   1
   8   3   2 46910.1 1302.80   4
  -8  11   5 18399.7 747.769   1
  11  -3   5 18243.6 1055.81   3
  -8  11   5 18866.1 818.029   3
 -11   8   5 18201.2 973.770   2
  11  -3   5 17321.6 870.942   4
  11  -3   5 19674.0 743.302   1
 -11   8   5 17697.5 846.815   1
   8   3   5 19115.3 1004.70   3
 -11   8   5 18061.5 846.754   4
   3 -11   5 19213.8 1039.31   1
  -3  -8   5 18977.8 1078.06   1
  -3  -8   5 18069.7 612.698   2
 -11   8   5 18397.4 659.397   3
   3 -11   8 4058.97 402.951   2
 -11   8   8 2833.92 608.200   2
  11  -3   8 2609.19 675.947   3
 -11   8   8 3517.78 486.638   3
  -8  11   8 3484.11 583.201   3
  -8  11   8 2162.66 374.908   1
   8   3   8 2684.83 631.076   3
   3 -11   8 3963.05 678.506   1
  11  -3   8 2936.26 384.511   1
  -8  11   8 2480.90 525.098   4
   3 -11   8 3286.08 354.898   2
  -3  -8   8 2555.42 397.802   2
 -11   8   8 2903.09 490.388   4
  -3  -8   8 3944.04 744.207   1
  -8  11  11 2659.63 535.977   4
   3 -11  11 2938.16 838.213   3
  11  -3  11 4199.48 945.613   3
  -3  -8  11 3528.71 828.798   1
  -8  11  11 3008.61 634.266   3
 -11   8  11 3220.22 669.392   1
  -3  -8  11 3976.03 922.466   3
   8   3  11 1987.76 647.083   3
 -11   8  11 2784.81 542.324   4
   3 -11  11 3815.64 820.277   1
  -8  11  11 2884.44 844.786   2
 -11   8  11 3471.78 772.573   2
 -11   8  11 3227.48 625.090   3
 -11   9  -8 13677.4 633.266   4
 -11   9  -5 15150.2 727.341   2
   9   2  -5 14058.9 598.086   4
  11  -2  -5 13858.7 688.937   4
   9   2  -5 13434.6 786.457   2
  -9  11  -5 13542.7 556.407   4
 -11   9  -5 14211.3 657.250   4
 -11   9  -2 16062.0 660.935   2
  -9  11  -2 17604.4 701.651   4
   2 -11  -2 16940.5 746.544   3
  11  -2  -2 15771.3 733.349   4
  -2  -9  -2 15228.7 747.394   3
  -2  -9  -2 17867.3 644.858   1
   2 -11  -2 17860.6 660.351   1
 -11   9  -2 17534.4 742.987   4
 -11   9  -2 16503.1 810.615   1
  -9  11  -2 17901.9 571.316   2
  -9  11  -2 16279.9 836.742   1
  11  -2  -2 17240.6 797.605   2
   9   2  -2 18051.9 747.438   4
   9   2  -2 17460.9 752.610   2
  11  -2   1 42005.0 1152.56   2
   9   2   1 43108.5 1166.09   2
   2 -11   1 45038.0 1282.38   1
  -2  -9   1 43937.7 897.553   2
  -2  -9   1 41693.8 1020.89   3
  11  -2   1 40340.3 897.835   3
  -2  -9   1 45774.3 1300.52   1
 -11   9   1 42453.4 1151.57   2
   9   2   1 43090.7 980.535   3
 -11   9   1 42771.8 1160.85   1
   9   2   1 44838.4 1242.19   4
  -9  11   1 44208.3 945.232   3
  -9  11   1 44986.1 1196.03   4
  -9  11   1 44936.9 1137.76   2
 -11   9   1 43962.9 1192.14   4
  11  -2   1 44172.4 1233.81   4
  -9  11   1 44565.8 1209.13   1
   2 -11   1 42878.6 1074.19   3
  -9  11   4 17523.3 935.916   2
  11  -2   4 15262.2 904.507   3
  -9  11   4 16990.6 752.090   1
   9   2   4 18861.4 929.598   3
 -11   9   4 15897.6 775.949   1
  -9  11   4 17513.8 856.742   4
  -2  -9   4 19256.6 1057.74   1
  11  -2   4 16751.0 856.729   4
  -2  -9   4 18160.2 503.258   2
  11  -2   4 17595.4 694.188   1
 -11   9   4 17275.0 930.569   2
  -9  11   4 18726.1 729.372   3
   2 -11   4 19114.8 1032.93   1
 -11   9   4 18895.9 613.521   3
 -11   9   4 16907.3 808.995   4
   2 -11   7 24065.6 1291.03   1
  11  -2   7 24679.8 1372.88   3
   9   2   7 24349.8 1338.76   3
 -11   9   7 23402.8 1050.67   4
  -9  11   7 25875.8 1099.76   3
 -11   9   7 25208.5 999.317   3
  -9  11   7 19426.3 836.881   1
   2 -11   7 21335.3 646.594   2
  -9  11   7 23678.9 1108.10   4
   2 -11   7 22317.4 645.278   2
  -2  -9   7 23040.6 791.080   2
 -11   9   7 25206.4 1316.20   2
  -9  11   7 24052.4 1313.41   2
  -2  -9   7 24246.2 1368.68   1
  11  -2   7 21678.8 770.262   1
  -2  -9  10 4008.94 570.206   2
   2 -11  10 4110.04 881.783   3
 -11   9  10 3226.27 527.518   4
  11  -2  10 4110.10 834.477   3
   9   2  10 4809.59 842.717   3
  -9  11  10 2694.51 521.270   1
  -9  11  10 3371.73 618.749   3
  -2  -9  10 3855.82 800.366   1
   2 -11  10 3628.65 785.267   1
 -11   9  10 4277.20 647.633   1
  -9  11  10 3578.59 566.436   4
  -9  11  10 4805.81 875.491   2
 -11   9  10 4259.72 651.496   3
 -11   9  10 4345.29 807.652   2
  -2  -9  10 3634.77 831.785   3
  10   1  -6 1809.75 301.038   4
  11  -1  -6 1825.82 349.644   4
 -10  11  -6 1541.68 261.910   4
 -11  10  -6 2047.14 300.503   4
  11  -1  -3 7093.55 582.691   2
   1 -11  -3 8444.54 436.731   1
 -10  11  -3 7237.27 425.523   2
 -11  10  -3 7550.58 479.539   2
 -10  11  -3 7390.72 633.657   1
  -1 -10  -3 8092.52 394.505   1
 -10  11  -3 7439.26 491.176   4
 -11  10  -3 7308.31 505.871   4
  10   1  -3 7671.03 510.840   4
  11  -1  -3 6841.84 507.395   4
 -11  10  -3 7515.05 625.319   1
  10   1  -3 8184.25 585.969   2
  10   1   0 914.442 322.168   2
 -10  11   0 534.547 301.827   4
  11  -1   0 391.987 275.641   2
  10   1   0 745.606 353.592   4
  -1 -10   0 1266.58 407.528   1
   1 -11   0 981.212 374.217   1
 -10  11   0 618.058 365.746   1
  10   1   0 770.123 222.390   3
  -1 -10   0 672.356 256.941   3
 -11  10   0 755.191 335.542   4
   1 -11   0 223.954 251.612   3
  11  -1   0 178.231 286.005   4
 -11  10   0 670.012 355.721   1
 -10  11   0 515.029 300.262   2
  11  -1   0 415.680 178.490   3
 -11  10   0 466.271 301.252   2
  -1 -10   3 3659.41 563.966   1
 -10  11   3 3850.03 444.775   1
 -10  11   3 4290.16 379.818   3
  10   1   3 2793.38 418.144   3
  11  -1   3 3823.15 467.186   4
  -1 -10   3 4462.42 429.917   3
 -11  10   3 4749.31 338.424   3
 -11  10   3 4117.85 457.700   1
 -10  11   3 4119.88 543.478   2
 -11  10   3 4385.72 497.517   4
  10   1   3 3941.05 492.884   4
  11  -1   3 4258.97 495.631   3
   1 -11   3 4058.34 595.661   1
 -11  10   3 4113.44 496.562   2
 -10  11   3 3967.13 460.749   4
  -1 -10   3 3871.72 235.265   2
 -11  10   6 1755.90 539.045   2
  11  -1   6 1556.35 501.145   3
 -11  10   6 1661.26 356.597   3
 -10  11   6 1610.89 400.465   4
  10   1   6 1386.14 496.024   3
   1 -11   6 1840.99 534.022   1
   1 -11   6 1494.74 185.829   2
 -10  11   6 1670.51 370.075   3
 -10  11   6 1353.83 354.433   1
 -10  11   6 1987.95 519.338   2
   1 -11   6 1295.61 185.415   2
 -11  10   6 1476.30 371.893   4
  11  -1   6 1395.15 291.879   1
  -1 -10   6 1966.53 567.720   1
  -1 -10   6 1482.25 235.224   2
  10   1   9 8490.52 984.282   3
 -11  10   9 7673.46 723.415   3
  11  -1   9 5784.47 846.382   3
 -10  11   9 7093.19 698.203   4
   1 -11   9 7357.55 535.614   2
 -10  11   9 6885.26 715.796   3
 -11  10   9 7698.34 922.632   2
  -1 -10   9 6094.72 878.776   1
  -1 -10   9 7747.19 604.643   2
 -11  10   9 6826.36 668.990   4
   1 -11   9 7619.53 898.705   1
 -10  11   9 6181.90 831.646   2
 -11  11  -7-76.3100 229.232   4
 -11  11  -4 19906.0 721.707   2
   0 -11  -4 19407.4 500.678   1
 -11  11  -4 19093.7 766.474   4
  11   0  -4 17587.7 742.970   4
 -11  11  -1-78.4134 250.933   2
 -11  11  -1 85.3870 370.403   1
  11   0  -1 29.5176 147.011   3
   0 -11  -1-84.6897 260.902   3
   0 -11  -1-169.526 294.700   1
  11   0  -1 111.352 297.966   4
 -11  11  -1-285.820 322.493   4
  11   0  -1 128.414 304.538   2
 -11  11   2 15499.4 550.889   3
  11   0   2 13427.6 767.130   2
 -11  11   2 14380.9 756.850   1
   0 -11   2 13167.4 663.349   3
  11   0   2 14455.9 801.420   4
 -11  11   2 14351.0 777.034   2
  11   0   2 15147.0 696.860   3
   0 -11   2 15411.7 888.253   1
 -11  11   2 16318.3 801.101   4
 -11  11   5 94.3282 404.570   2
  11   0   5 175.540 383.497   3
 -11  11   5 62.4958 259.109   3
   0 -11   5 290.584 428.502   1
 -11  11   5-86.8303 297.415   4
 -11  11   5 186.254 280.776   1
   0 -11   5 70.4293 90.2473   2
  11   0   8 6640.37 846.908   3
   0 -11   8 6922.17 460.096   2
 -11  11   8 6654.29 865.475   2
 -11  11   8 7334.96 673.482   3
 -11  11   8 6367.84 633.621   4
   0 -11   8 6849.20 874.248   1
   0 -11  11 211.740 707.195   3
 -11  11  11 923.776 474.950   3
  11   0  11-791.013 682.362   3
   0 -11  11 257.284 647.742   1
 -11  11  11-0.63072 617.040   2
 -11  11  11-273.066 427.477   4
 -12   0  -6 14372.3 969.337   2
 -12   0  -6 15355.5 919.291   4
 -12   0  -6 13306.8 605.808   1
  12 -12  -6 13601.4 801.664   3
   0  12  -3 255.029 228.761   4
 -12   0  -3 236.766 350.784   4
  12 -12  -3-27.0753 214.476   3
 -12   0  -3 386.963 346.003   3
  12 -12  -3-80.2687 292.041   1
 -12   0  -3-251.526 351.708   2
   0  12  -3 0.28684 89.4596   2
 -12   0  -3-165.856 234.286   1
   0  12   0 376.573 280.185   2
   0  12   0 137.094 293.966   4
   0  12   0 754.097 341.774   1
 -12   0   0 433.736 234.100   3
 -12   0   0-107.351 322.094   2
  12 -12   0-116.012 316.464   2
  12 -12   0 101.336 311.630   4
   0  12   0 229.309 272.901   3
  12 -12   0 86.6882 205.607   3
  12 -12   0 38.5885 334.454   1
 -12   0   0 61.5352 341.388   4
   0  12   3 282.478 316.346   3
 -12   0   3-38.4695 126.877   3
  12 -12   3-168.947 264.538   4
  12 -12   3 472.506 357.017   1
 -12   0   3 161.782 316.379   2
   0  12   3-258.552 227.103   1
  12 -12   3-209.918 239.790   2
 -12   0   3 34.9756 294.536   4
 -12   0   6 11843.6 669.783   3
   0  12   6 13573.1 923.131   3
  12 -12   6 11255.3 630.536   2
 -12   0   6 11985.6 831.406   2
  12 -12   6 12083.3 667.836   4
 -12   0   6 12517.0 569.516   3
 -12   0   6 12120.5 719.589   4
  12 -12   6 13222.3 935.191   1
  12 -12   9 195.662 618.225   3
 -12   0   9 1238.88 513.348   3
   0  12   9-41.6299 513.414   3
 -12   0   9 578.875 561.399   1
  12 -12   9 346.897 544.435   1
 -12   0   9-442.458 480.680   2
 -12   0   9 94.5180 319.563   4
 -12   1  -7 12953.9 617.793   1
 -11  -1  -7 17370.3 977.287   4
 -12   1  -7 17481.5 959.044   4
 -11  -1  -7 11725.6 477.837   1
 -11  -1  -4 22976.5 747.559   1
 -12   1  -4 22730.5 819.226   1
 -12   1  -4 22056.3 1034.33   2
 -11  -1  -4 22913.8 1058.83   2
  11 -12  -4 22388.2 842.496   3
  12 -11  -4 21159.6 759.451   3
  -1  12  -4 22449.4 639.657   4
   1  11  -4 22550.4 651.268   4
 -12   1  -4 23395.9 1048.09   4
 -11  -1  -4 22753.3 1034.70   4
 -12   1  -1 41763.7 1067.44   3
   1  11  -1 45576.8 911.279   2
   1  11  -1 43300.7 1352.57   1
 -11  -1  -1 45443.7 1273.85   2
  -1  12  -1 45869.8 847.931   2
  12 -11  -1 43282.4 1310.30   4
  11 -12  -1 43993.9 956.161   3
   1  11  -1 44378.2 1146.89   3
  -1  12  -1 44970.4 1166.28   3
  11 -12  -1 44088.7 1234.29   1
 -12   1  -1 45569.7 1169.38   1
  12 -11  -1 45151.3 1291.98   2
  -1  12  -1 43323.8 1348.45   1
 -12   1  -1 43218.9 1247.57   2
 -12   1  -1 39596.4 1250.20   4
 -11  -1  -1 46879.9 1355.47   4
  12 -11  -1 45113.0 890.070   3
 -11  -1  -1 41945.6 1074.99   3
  12 -11  -1 46799.9 1283.12   1
   1  11  -1 45203.6 1182.62   4
  -1  12   2 32519.1 1085.51   2
 -12   1   2 29820.2 1034.61   4
  12 -11   2 30565.9 1025.67   4
 -11  -1   2 31236.6 659.847   3
  12 -11   2 31287.7 931.208   2
  12 -11   2 31397.9 1123.36   1
   1  11   2 31784.3 1052.28   3
  -1  12   2 32274.6 960.575   1
   1  11   2 32269.8 1119.19   2
  11 -12   2 32179.8 1034.25   4
   1  11   2 31440.1 911.683   1
  -1  12   2 31836.6 1034.15   3
  11 -12   2 30756.5 862.488   2
 -11  -1   2 32834.0 1060.65   4
 -11  -1   2 31862.5 1058.22   2
  11 -12   2 31877.9 1161.80   1
 -12   1   2 31283.4 1071.87   2
 -12   1   5 12733.6 578.555   3
  -1  12   5 12152.9 802.469   3
 -11  -1   5 13002.7 693.653   4
 -11  -1   5 12036.1 509.223   3
 -12   1   5 13848.8 490.302   3
  11 -12   5 12302.6 640.625   4
  11 -12   5 11146.6 558.943   2
  -1  12   5 9082.01 322.671   1
  12 -11   5 11379.9 629.232   2
 -12   1   5 12679.7 814.439   2
 -11  -1   5 12470.9 773.555   2
 -12   1   5 11645.7 705.650   4
   1  11   5 12443.8 820.429   3
  11 -12   5 12959.1 861.683   1
  12 -11   5 12089.0 838.844   1
  12 -11   5 12409.0 672.590   4
 -11  -1   8 2080.85 668.968   1
  12 -11   8 3227.57 837.522   3
 -11  -1   8 2831.14 536.068   3
 -12   1   8 2433.88 413.689   4
  11 -12   8 2060.35 609.383   1
  -1  12   8 3276.77 621.384   3
 -11  -1   8 2512.77 419.738   4
  12 -11   8 2092.88 556.706   1
   1  11   8 3990.64 680.265   3
 -12   1   8 3447.60 551.182   3
 -12   1   8 2873.54 589.699   2
 -12   1   8 3155.54 685.291   1
 -11  -1   8 2379.49 489.450   2
 -12   2  -8 1755.49 368.496   1
 -12   2  -8 2879.93 496.931   4
 -12   2  -5 10328.5 727.897   4
  12 -10  -5 9327.58 579.399   3
 -10  -2  -5 9706.71 772.670   2
 -12   2  -5 10132.1 773.015   2
 -12   2  -5 10375.1 597.425   1
  -2  12  -5 9067.00 318.400   4
 -10  -2  -5 11386.7 479.282   1
   2  10  -5 9562.25 358.744   4
  -2  12  -5 9395.49 329.668   4
 -10  -2  -5 10095.0 746.185   4
  10 -12  -5 10441.1 689.073   3
 -10  -2  -2 16622.2 798.095   3
  12 -10  -2 18168.4 545.119   3
 -12   2  -2 17840.8 843.931   2
   2  10  -2 17432.5 918.664   1
 -10  -2  -2 18622.0 885.694   2
 -12   2  -2 18119.2 749.973   1
 -10  -2  -2 18744.2 691.509   1
  -2  12  -2 17213.0 917.851   1
  12 -10  -2 19042.8 908.403   4
   2  10  -2 17839.2 758.751   3
  12 -10  -2 18542.5 819.587   1
 -12   2  -2 18123.9 808.963   3
 -10  -2  -2 19541.3 923.030   4
   2  10  -2 18298.8 711.261   4
   2  10  -2 20410.7 578.788   2
  10 -12  -2 17399.4 775.938   1
  12 -10  -2 16697.5 887.128   2
  10 -12  -2 17770.9 660.326   3
 -12   2  -2 18848.3 893.077   4
  -2  12  -2 17330.4 365.889   2
  12 -10   1 18153.1 753.916   2
 -10  -2   1 18990.6 597.194   3
  -2  12   1 18282.2 789.702   1
  -2  12   1 19113.5 780.040   3
  10 -12   1 18955.9 699.574   3
  12 -10   1 19079.1 867.046   1
   2  10   1 17462.9 729.830   3
 -10  -2   1 19337.1 834.006   4
  12 -10   1 18324.2 812.651   4
   2  10   1 18340.5 757.329   1
   2  10   1 19461.3 796.512   2
 -12   2   1 19157.3 851.327   4
  10 -12   1 18251.7 881.780   1
 -10  -2   1 19002.3 804.833   2
  10 -12   1 18496.8 686.137   2
   2  10   1 18633.7 854.773   4
  -2  12   1 18997.8 742.782   2
 -12   2   1 19426.8 845.723   2
 -12   2   4 3749.93 211.629   3
  12 -10   4 4219.04 517.291   1
 -12   2   4 4180.14 465.526   4
  -2  12   4 3743.64 324.342   1
  -2  12   4 3977.13 473.577   3
 -10  -2   4 3823.86 302.268   3
  10 -12   4 3946.42 318.489   2
  12 -10   4 3475.93 403.084   2
  10 -12   4 3896.86 396.299   4
  10 -12   4 3985.71 546.167   1
   2  10   4 4320.05 512.146   3
 -12   2   4 3556.03 264.346   3
 -10  -2   4 4377.59 443.308   4
 -10  -2   4 3763.61 433.645   2
 -12   2   4 3182.48 458.927   2
  12 -10   4 3150.07 400.081   4
  12 -10   7 3879.27 788.926   3
 -12   2   7 3129.19 449.189   3
 -10  -2   7 3051.59 522.995   3
  10 -12   7 2738.10 598.796   1
  -2  12   7 2961.21 565.315   3
 -10  -2   7 3283.54 390.933   4
  10 -12   7 2754.74 385.937   2
  12 -10   7 3197.47 569.486   1
   2  10   7 3029.29 567.010   3
  12 -10   7 2276.76 393.585   4
 -12   2   7 3250.91 602.488   2
 -10  -2   7 2955.84 497.064   2
 -10  -2   7 2970.40 639.183   1
 -12   2   7 2493.22 423.674   4
 -12   2  10 4671.35 665.735   3
 -10  -2  10 4597.07 764.349   3
  10 -12  10 4817.42 979.633   3
  12 -10  10 3581.17 928.582   3
  10 -12  10 4272.20 710.715   1
 -10  -2  10 3413.54 805.193   1
   2  10  10 3719.14 758.624   3
  -2  12  10 4028.33 754.371   3
 -10  -2  10 3971.85 647.331   2
  12 -10  10 3309.22 681.268   1
 -12   2  10 3669.11 653.928   2
 -12   2  10 4818.98 828.274   1
  -9  -3  -6 4740.52 567.138   4
 -12   3  -6 5216.49 623.749   2
 -12   3  -6 4507.19 522.096   4
 -12   3  -6 4671.13 475.029   1
  -9  -3  -3 836.867 402.774   4
   9 -12  -3 131.873 248.363   3
  -9  -3  -3-47.4153 322.869   3
  12  -9  -3 659.063 193.242   3
   9 -12  -3 555.232 309.185   1
 -12   3  -3 465.715 363.052   2
 -12   3  -3 382.440 271.902   1
 -12   3  -3 524.127 329.933   4
  -9  -3  -3-16.6034 340.296   2
  12  -9  -3 0.75287 315.339   4
  -9  -3  -3 488.199 214.740   1
   3   9  -3 693.968 212.079   2
   3   9  -3 201.627 208.088   4
   3   9   0 10215.9 536.059   2
  -9  -3   0 9189.93 494.394   3
 -12   3   0 10590.2 665.101   4
  12  -9   0 10147.3 409.651   3
   3   9   0 9188.98 540.927   3
   9 -12   0 10379.3 530.174   3
  -3  12   0 10561.2 609.629   3
   3   9   0 9270.67 604.747   4
 -12   3   0 10322.2 613.198   1
  12  -9   0 9939.33 619.288   4
 -12   3   0 8764.27 613.992   2
  12  -9   0 10318.4 625.287   2
  -3  12   0 9898.08 641.964   1
  -9  -3   0 10682.7 665.507   4
  12  -9   0 10025.1 654.689   1
  -9  -3   0 10311.3 631.807   2
   9 -12   0 9656.84 662.100   1
   9 -12   3 2199.16 251.304   2
  12  -9   3 2672.34 449.762   1
   3   9   3 2096.01 393.050   3
  -9  -3   3 2307.94 254.586   3
  -9  -3   3 2574.70 393.749   2
   9 -12   3 2425.65 472.868   1
 -12   3   3 2678.24 464.201   2
  -3  12   3 2395.13 336.897   1
  -3  12   3 3203.63 419.717   3
  12  -9   3 2332.66 367.274   4
 -12   3   3 2500.95 396.835   4
  -9  -3   3 2202.29 365.554   4
  12  -9   3 2616.61 387.794   2
  12  -9   6 11150.5 668.493   4
  12  -9   6 12385.4 1028.96   3
  12  -9   6 12623.4 801.122   1
   3   9   6 13139.1 908.894   3
 -12   3   6 13193.9 639.504   3
  -9  -3   6 12432.5 758.912   2
  -9  -3   6 12307.6 944.727   1
  -3  12   6 13058.2 847.055   3
   9 -12   6 11929.9 516.744   2
 -12   3   6 13092.2 743.093   4
  -9  -3   6 12053.9 599.282   4
 -12   3   6 13048.8 863.506   2
   9 -12   6 12735.5 887.287   1
   9 -12   9 2539.11 686.851   1
  -9  -3   9 2181.67 593.022   3
  12  -9   9 3253.83 885.141   3
 -12   3   9 2191.63 617.448   2
  -3  12   9 1250.90 485.731   3
 -12   3   9 1834.92 602.098   1
  12  -9   9 1678.55 553.320   1
  -9  -3   9 699.880 425.218   2
 -12   3   9 1683.28 410.608   4
   3   9   9 1081.87 597.340   3
   9 -12   9 2212.97 750.333   3
 -12   3   9 1060.66 406.022   3
  -9  -3   9 2164.74 701.618   1
 -12   4  -7 20842.3 951.541   4
 -12   4  -7 18216.0 849.628   1
 -12   4  -4 19061.2 808.951   1
   8 -12  -4 20056.6 870.370   3
  -8  -4  -4 19441.2 534.576   1
   4   8  -4 19595.1 601.381   4
 -12   4  -4 17514.0 871.695   2
  -8  -4  -4 19521.9 989.098   2
   4   8  -4 18479.7 645.338   2
  12  -8  -4 19434.1 628.580   3
   8 -12  -4 18669.5 738.958   1
  -4  12  -4 20452.1 573.005   4
 -12   4  -4 19456.0 885.688   4
  -8  -4  -4 19144.9 935.642   4
   4   8  -1 73968.3 1233.78   2
 -12   4  -1 70191.0 1420.61   1
  -4  12  -1 72104.8 1634.64   1
 -12   4  -1 72715.9 1586.42   4
  -8  -4  -1 69126.9 1378.30   3
  12  -8  -1 73199.9 1556.73   4
  -8  -4  -1 74734.2 1602.70   4
   8 -12  -1 72076.7 1304.81   3
   4   8  -1 72441.6 1323.85   3
  -4  12  -1 69478.8 1408.23   3
  12  -8  -1 70579.1 1551.55   2
   4   8  -1 73920.6 1443.50   4
 -12   4  -1 72709.2 1498.44   2
  12  -8  -1 72002.6 1525.54   1
  -8  -4  -1 70874.2 1503.76   2
  12  -8  -1 72858.4 813.549   3
   8 -12  -1 69571.8 1443.03   1
   4   8   2 8195.97 604.469   2
 -12   4   2 7885.31 600.323   1
   4   8   2 7901.64 615.020   4
   4   8   2 8517.54 573.607   3
  -8  -4   2 7057.69 402.982   3
  -4  12   2 7711.93 540.922   3
  12  -8   2 8738.95 604.468   1
 -12   4   2 8085.58 601.376   4
   8 -12   2 7868.36 654.685   1
  12  -8   2 7548.46 529.962   2
 -12   4   2 8605.23 635.960   2
   8 -12   2 7382.84 525.193   3
  12  -8   2 7610.75 561.074   4
  -8  -4   2 8715.65 555.576   4
  -8  -4   2 8360.59 554.197   2
  -4  12   2 8118.64 528.776   1
   8 -12   2 6837.63 357.463   2
  12  -8   5 34090.6 1087.89   4
  12  -8   5 31520.2 1088.85   2
  12  -8   5 35685.6 1174.30   1
   8 -12   5 34542.0 686.472   2
  -4  12   5 32972.3 794.992   1
   4   8   5 33720.5 1288.60   3
  -8  -4   5 34688.6 974.706   3
  -4  12   5 35734.9 1209.39   3
   8 -12   5 35660.6 1341.77   1
 -12   4   5 36858.3 828.972   3
  -8  -4   5 37103.9 1495.08   1
  12  -8   5 35439.4 1499.63   3
 -12   4   5 35923.5 1324.62   2
 -12   4   5 36922.8 1158.39   4
  -8  -4   5 34365.0 1081.04   2
  -8  -4   5 35225.6 935.942   4
  12  -8   8 177.930 418.831   1
  -8  -4   8 186.006 163.226   4
  -8  -4   8-301.946 438.084   3
   4   8   8-486.788 504.349   3
  -8  -4   8 324.553 365.462   2
  12  -8   8-133.812 597.853   3
 -12   4   8 425.512 364.523   3
   8 -12   8-735.053 517.798   1
   8 -12   8 221.176 263.408   2
 -12   4   8 538.888 453.517   2
  -4  12   8 222.589 468.567   3
 -12   4   8 167.947 370.941   4
  -8  -4   8 181.896 544.149   1
  -8  -4  11 11351.5 1259.66   1
   8 -12  11 10642.5 1335.48   3
 -12   4  11 10957.8 921.219   3
 -12   4  11 10801.8 1099.53   1
   8 -12  11 11465.0 1086.67   1
   4   8  11 11481.6 1160.52   3
  -8  -4  11 10403.6 1068.38   3
  -4  12  11 8752.34 985.063   3
 -12   4  11 10612.2 1072.51   2
  -8  -4  11 11468.9 975.894   2
  12  -8  11 10476.2 1351.20   3
 -12   5  -8 4099.41 487.712   4
 -12   5  -5 49023.4 1438.55   2
  -5  12  -5 45527.0 738.523   4
 -12   5  -5 47340.7 1273.63   1
   5   7  -5 47616.3 834.473   4
 -12   5  -5 48883.3 1348.21   4
  -7  -5  -2 3102.15 475.964   2
 -12   5  -2 2971.39 419.338   2
 -12   5  -2 3575.69 444.437   1
  -7  -5  -2 3032.08 423.483   3
   7 -12  -2 3320.87 394.069   1
  -5  12  -2 3116.58 528.463   1
  12  -7  -2 3399.83 424.567   4
  12  -7  -2 3623.38 487.956   2
   7 -12  -2 2916.95 358.872   3
   5   7  -2 2760.31 354.076   3
   5   7  -2 2832.51 344.197   4
 -12   5  -2 3852.83 469.310   4
   5   7  -2 3938.13 382.290   2
  -7  -5  -2 3628.74 488.757   4
  -7  -5   1 14873.6 587.539   3
   5   7   1 14529.6 766.261   4
  12  -7   1 16615.3 788.506   1
  12  -7   1 14840.3 708.743   2
  -5  12   1 16473.7 701.154   3
  -7  -5   1 15739.1 729.012   4
  -7  -5   1 15308.3 664.460   2
 -12   5   1 15365.3 762.158   4
   7 -12   1 15408.0 818.903   1
  12  -7   1 14763.8 720.130   4
   5   7   1 15872.4 682.157   3
   5   7   1 14419.6 700.011   2
 -12   5   1 14860.5 755.334   2
 -12   5   1 15308.9 738.403   1
   7 -12   1 15760.3 656.060   3
  -5  12   1 15516.7 723.848   1
 -12   5   4 10741.8 354.596   3
  12  -7   4 12077.7 681.981   2
  -7  -5   4 12916.8 582.854   4
   7 -12   4 13155.9 846.591   1
   5   7   4 13076.9 776.173   3
  -5  12   4 11115.6 538.140   1
  -5  12   4 11775.2 680.153   3
  12  -7   4 12635.7 699.059   1
  -7  -5   4 13746.0 929.834   1
  -7  -5   4 12253.4 612.674   2
  -7  -5   4 12470.7 572.890   3
 -12   5   4 12557.8 796.244   2
  12  -7   4 11957.6 667.453   4
 -12   5   4 12396.7 693.472   4
  12  -7   4 12794.4 873.594   3
 -12   5   7 13543.7 723.283   3
   5   7   7 13260.7 988.326   3
   7 -12   7 12539.4 963.099   1
  -7  -5   7 9404.44 388.446   4
  -7  -5   7 12128.4 741.185   2
  -5  12   7 9417.82 451.004   1
  -5  12   7 13504.0 912.957   3
   7 -12   7 12232.4 528.575   2
  12  -7   7 11130.0 741.492   1
  12  -7   7 11517.9 1049.70   3
 -12   5   7 12298.7 751.910   4
  -7  -5   7 12818.8 1051.34   1
 -12   5   7 13103.3 959.301   2
  12  -7   7 11454.8 732.109   4
  12  -7  10 2532.75 501.685   1
  -7  -5  10 3298.24 807.823   1
  -7  -5  10 3581.34 695.827   3
  12  -7  10 3076.62 837.491   3
 -12   5  10 3462.29 563.225   3
  -5  12  10 3468.30 686.522   3
  -7  -5  10 3169.53 586.392   2
   7 -12  10 3425.38 969.126   3
 -12   5  10 2486.61 485.795   4
   7 -12  10 2179.56 639.076   1
 -12   5  10 3002.16 676.523   2
 -12   5  10 3630.49 685.440   1
   5   7  10 3043.98 744.577   3
 -12   6  -6 7408.58 565.030   4
   6   6  -6 6079.89 309.978   4
 -12   6  -6 7542.86 663.393   2
 -12   6  -6 6654.43 597.759   1
 -12   6  -3 2605.00 416.056   2
  12  -6  -3 3016.40 409.260   4
  -6  -6  -3 2581.12 425.410   3
   6 -12  -3 2719.99 398.747   3
 -12   6  -3 2890.18 421.881   1
   6 -12  -3 3056.29 357.147   1
  -6  12  -3 2963.55 316.075   4
  -6  -6  -3 2836.04 480.283   2
  -6  -6  -3 2561.22 281.673   1
   6   6  -3 3014.46 332.102   4
 -12   6  -3 2848.21 434.302   4
   6   6  -3 2771.43 347.920   2
  -6  -6  -3 3101.37 446.641   4
  12  -6   0 81583.9 1614.13   4
   6   6   0 79883.3 1573.17   4
  -6  12   0 79563.9 1627.87   1
   6   6   0 80243.7 1423.08   2
  12  -6   0 79542.1 1569.02   1
  -6  -6   0 77552.3 1370.59   3
   6   6   0 78688.2 1306.31   3
   6 -12   0 77405.7 1380.18   3
  -6  -6   0 78809.0 1454.62   2
 -12   6   0 78675.3 1540.76   1
  -6  12   0 78547.6 1409.23   3
  12  -6   0 79227.2 1561.39   2
  -6  12   0 80831.1 1293.60   2
   6 -12   0 82680.4 1611.94   1
  -6  -6   0 79809.9 1573.49   4
 -12   6   0 77245.8 1585.03   4
  12  -6   0 79348.8 1086.13   3
 -12   6   0 79280.7 1532.85   2
   6 -12   3 3224.94 531.936   1
  12  -6   3 3004.95 494.121   3
   6   6   3 3441.00 452.957   3
  -6  12   3 2629.87 367.459   1
  -6  -6   3 2496.21 311.032   3
  -6  -6   3 2962.33 351.501   2
  12  -6   3 3077.59 421.976   1
 -12   6   3 3423.96 487.616   2
 -12   6   3 3384.34 439.929   1
  12  -6   3 3157.10 414.586   4
  -6  -6   3 2800.55 507.451   1
  12  -6   3 3195.04 412.925   2
  -6  -6   3 3593.43 369.074   4
  -6  12   3 3356.19 414.474   3
 -12   6   3 2802.75 395.547   4
 -12   6   6 7687.35 615.806   4
  12  -6   6 7978.35 846.239   3
 -12   6   6 7534.48 716.187   2
 -12   6   6 8643.96 519.489   3
   6   6   6 7498.67 723.997   3
  -6  -6   6 6844.10 538.499   2
  12  -6   6 7163.81 571.683   1
   6 -12   6 7420.32 721.055   1
  -6  12   6 7788.79 666.725   3
   6 -12   6 6221.82 300.850   2
  -6  -6   6 7347.08 788.045   1
  -6  12   6 6647.82 465.780   1
  -6  -6   6 6472.54 335.070   4
  12  -6   6 6647.93 583.268   4
  -6  -6   9-246.841 576.088   1
  -6  -6   9-193.928 498.293   3
  12  -6   9-36.8745 611.350   3
  12  -6   9-33.5945 367.930   1
 -12   6   9 416.835 348.833   3
   6   6   9-62.0660 510.675   3
 -12   6   9 388.945 387.492   4
 -12   6   9 1007.15 558.973   2
   6 -12   9-24.3609 528.880   1
  -6  12   9 393.621 465.232   3
  -6  12   9 55.4294 212.958   1
  -6  -6   9 231.904 381.167   2
 -12   7  -7 10154.2 636.524   4
  12  -5  -4 12373.1 688.685   4
  -7  12  -4 11722.9 488.913   4
   7   5  -4 12566.0 547.294   4
 -12   7  -4 10840.0 678.383   1
  -5  -7  -4 9608.13 307.626   1
 -12   7  -4 11533.0 673.497   2
  -5  -7  -4 10803.3 308.932   1
 -12   7  -4 11341.1 653.787   4
   5 -12  -4 12180.5 539.931   1
   7   5  -4 12049.2 645.667   2
  -5  -7  -1 17668.6 724.452   1
 -12   7  -1 17458.8 774.698   1
  -7  12  -1 16929.3 849.136   1
  -5  -7  -1 16268.1 727.235   3
  -7  12  -1 18097.0 545.348   2
  12  -5  -1 17606.1 794.056   4
  -7  12  -1 19352.2 755.825   4
  -5  -7  -1 16859.9 773.642   2
   5 -12  -1 19814.0 800.895   1
  -5  -7  -1 18208.1 830.431   4
 -12   7  -1 18129.6 810.520   4
 -12   7  -1 17832.8 754.444   2
   5 -12  -1 17026.5 698.416   3
  12  -5  -1 18079.6 837.390   2
   7   5  -1 17997.7 762.353   4
   7   5  -1 17764.7 624.578   3
   7   5  -1 17480.0 700.664   2
  12  -5   2 2930.72 435.870   3
  -5  -7   2 2997.35 340.257   2
   7   5   2 2704.50 435.123   4
   7   5   2 2819.72 446.383   2
   7   5   2 2949.82 381.915   3
  -7  12   2 3163.80 362.166   3
  12  -5   2 2782.28 404.818   1
  -5  -7   2 3013.87 332.790   3
  -7  12   2 2652.29 410.189   1
   5 -12   2 3249.56 515.980   1
   5 -12   2 2788.04 389.319   3
 -12   7   2 3153.35 418.657   1
 -12   7   2 3129.04 466.337   2
  -5  -7   2 3603.88 407.000   4
 -12   7   2 2716.21 433.899   4
  12  -5   2 2786.43 410.035   4
  -5  -7   2 2612.64 491.722   1
  12  -5   2 2808.77 420.463   2
  -5  -7   5 51742.4 1145.63   2
  -5  -7   5 57025.4 1818.42   1
   5 -12   5 55086.5 1712.37   1
 -12   7   5 56486.2 1033.63   3
   7   5   5 54261.3 1671.69   3
  -7  12   5 55013.4 1404.85   3
  12  -5   5 51574.2 1422.91   4
  12  -5   5 52129.0 1295.76   1
 -12   7   5 54279.1 1636.76   2
 -12   7   5 52711.4 1410.30   4
  -7  12   5 50260.5 1185.53   1
  12  -5   5 54938.6 1788.51   3
  -5  -7   5 52031.9 922.818   4
   5 -12   8 3551.29 375.912   2
   5 -12   8 3233.22 329.788   2
 -12   7   8 3102.18 440.063   3
   7   5   8 2785.97 602.194   3
  12  -5   8 4518.27 796.791   3
  12  -5   8 3231.12 474.583   1
  -7  12   8 1862.08 343.418   1
 -12   7   8 3219.99 506.894   4
  -5  -7   8 3650.53 764.087   1
 -12   7   8 2232.60 590.281   2
   5 -12   8 4135.29 692.611   1
  -7  12   8 3715.00 611.316   3
  -5  -7   8 3058.74 456.654   2
   7   5  11 10715.4 1173.19   3
 -12   7  11 12413.8 996.796   3
  -5  -7  11 11979.1 1238.79   1
  -5  -7  11 11931.9 907.049   2
   5 -12  11 12215.9 1390.85   3
   5 -12  11 11084.7 1140.14   1
  -5  -7  11 11861.3 1210.03   3
  12  -5  11 12219.8 1368.81   3
  -7  12  11 11479.0 995.640   4
 -12   7  11 11276.4 1058.35   1
 -12   7  11 11106.2 1110.90   2
  -7  12  11 11872.4 1080.28   3
 -12   8  -8 192.206 277.463   4
  -8  12  -5 36441.4 820.806   4
 -12   8  -5 40151.1 1220.49   2
  12  -4  -5 36870.6 1161.25   4
   8   4  -5 36639.8 892.529   4
   8   4  -5 36875.7 1183.89   2
 -12   8  -5 37683.6 1119.80   4
  -8  12  -2 7645.99 644.188   1
  -4  -8  -2 7386.85 585.378   3
   4 -12  -2 7156.84 515.816   3
  -4  -8  -2 7749.52 473.019   1
  -4  -8  -2 7494.91 609.687   2
   8   4  -2 8363.87 435.926   3
   4 -12  -2 7607.57 519.679   1
 -12   8  -2 7797.14 535.622   2
   8   4  -2 8687.54 536.925   2
  -8  12  -2 8465.36 505.970   4
   8   4  -2 8535.21 556.886   4
  12  -4  -2 7540.21 558.273   4
 -12   8  -2 7816.34 571.940   4
 -12   8  -2 8467.78 641.025   1
  -8  12  -2 8319.31 365.150   2
  12  -4  -2 7814.80 614.808   2
  -4  -8   1 70332.3 1392.23   4
  12  -4   1 67291.6 1531.66   4
 -12   8   1 68669.3 1478.45   2
  -4  -8   1 64939.1 1256.50   3
   4 -12   1 65521.9 1335.83   3
  -8  12   1 70605.2 1282.99   3
 -12   8   1 68889.3 1505.44   4
  -8  12   1 68055.8 1488.25   1
   8   4   1 71125.0 1567.97   4
 -12   8   1 64620.8 1445.37   1
  12  -4   1 68165.3 1215.86   3
  -4  -8   1 68510.5 1231.61   2
  -4  -8   1 71040.4 1632.42   1
   8   4   1 68819.3 1282.97   3
  -8  12   1 68411.2 1383.77   2
   4 -12   1 70594.5 1598.24   1
  12  -4   1 65923.0 1440.68   2
   8   4   1 67132.1 1434.75   2
  12  -4   4 21089.2 831.151   1
  12  -4   4 20949.9 1060.16   3
   4 -12   4 21386.1 1080.73   1
  -4  -8   4 22208.0 1120.62   1
   8   4   4 21476.3 986.526   3
  -8  12   4 20057.4 821.948   3
 -12   8   4 21017.3 1011.97   2
 -12   8   4 22330.5 578.508   3
  -4  -8   4 18406.6 767.082   3
  12  -4   4 19170.6 896.307   4
 -12   8   4 20442.8 884.069   4
  -8  12   4 19348.2 796.325   1
  -4  -8   4 19917.3 638.584   2
  12  -4   7 22807.4 1361.79   3
   8   4   7 22196.5 1271.46   3
 -12   8   7 22788.1 913.457   3
 -12   8   7 21293.4 1210.80   2
  -4  -8   7 23802.6 1369.22   1
  -8  12   7 21064.2 1031.23   3
  12  -4   7 20697.8 850.290   1
  -4  -8   7 19596.8 809.327   2
 -12   8   7 19950.2 967.835   4
   4 -12   7 18711.0 561.348   2
   4 -12   7 21181.3 1216.39   1
  -8  12   7 17489.4 761.655   1
   4 -12   7 17358.8 516.901   2
  -4  -8  10 1994.14 721.688   3
  12  -4  10 2376.81 761.279   3
  -8  12  10 1736.39 528.164   4
  -4  -8  10 2312.29 504.704   2
  -4  -8  10 3268.68 832.228   1
 -12   8  10 2732.49 546.610   3
  -8  12  10 2545.22 607.840   3
   4 -12  10 1102.62 678.765   1
   8   4  10 1957.74 622.628   3
 -12   8  10 1713.78 618.096   2
 -12   8  10 1957.14 432.249   4
 -12   8  10 1318.00 552.910   1
 -12   9  -6 12494.8 657.601   4
 -12   9  -6 12843.1 757.019   2
  -9  12  -6 11283.1 468.131   4
   9   3  -6 11819.3 537.755   4
  -3  -9  -3 2775.54 279.622   1
   3 -12  -3 2194.39 315.863   1
  -9  12  -3 2080.95 304.454   4
  -9  12  -3 2873.59 269.621   2
  12  -3  -3 2066.60 363.534   4
 -12   9  -3 3195.61 481.517   1
   9   3  -3 2589.54 389.899   2
 -12   9  -3 1654.84 338.805   2
 -12   9  -3 2526.50 383.223   4
   9   3  -3 2340.92 341.477   4
   9   3   0 11590.6 671.568   4
  12  -3   0 12004.5 699.858   4
  12  -3   0 10848.8 389.894   3
   9   3   0 11792.3 512.513   3
   3 -12   0 10756.2 585.222   3
 -12   9   0 10035.9 643.864   1
  -9  12   0 11749.7 562.235   3
  -9  12   0 12334.4 680.878   4
  12  -3   0 11182.9 649.171   2
 -12   9   0 11620.0 689.217   4
  -3  -9   0 11741.8 695.693   1
   3 -12   0 11584.1 681.000   1
  -9  12   0 11711.5 573.267   2
  -3  -9   0 11125.6 593.832   2
 -12   9   0 11316.5 625.862   2
  -3  -9   0 10760.6 585.106   3
  -9  12   0 11049.4 687.613   1
   9   3   0 11704.0 637.154   2
   9   3   3 262.388 298.869   3
  -3  -9   3 444.031 442.423   1
  12  -3   3 344.022 290.136   4
  -9  12   3 184.788 313.181   4
 -12   9   3 159.446 284.423   1
 -12   9   3 345.885 361.442   2
   3 -12   3-320.965 417.453   1
  -9  12   3-19.5185 259.394   3
  12  -3   3 450.669 350.089   3
 -12   9   3 414.805 168.286   3
  -9  12   3 597.319 308.916   1
  -3  -9   3 137.758 227.542   3
  -9  12   3 146.965 341.420   2
  12  -3   3 427.978 285.841   1
 -12   9   3 738.998 328.738   4
  -3  -9   3 273.154 194.973   2
  -9  12   6 3260.90 441.920   3
  -9  12   6 3109.47 425.101   1
  -3  -9   6 4165.89 676.902   1
   9   3   6 3250.08 605.016   3
  12  -3   6 4086.23 615.928   3
 -12   9   6 2647.21 449.774   4
 -12   9   6 4148.09 410.007   3
   3 -12   6 4018.15 621.827   1
  -9  12   6 3970.50 539.539   4
 -12   9   6 4291.86 615.730   2
  -3  -9   6 3006.57 331.781   2
  12  -3   6 3411.37 393.880   1
 -12   9   9 97.2093 358.186   4
  12  -3   9-205.208 552.815   3
  -9  12   9 659.873 401.752   3
 -12   9   9 223.409 378.893   3
  -9  12   9 113.642 591.485   2
  12  -3   9 520.951 306.530   1
  -3  -9   9 471.687 578.504   1
   3 -12   9 985.865 599.664   1
 -12   9   9 445.991 513.097   2
   3 -12   9 5.88544 266.634   2
   9   3   9 978.972 651.375   3
  -3  -9   9 1013.31 408.707   2
  -9  12   9 599.202 456.842   4
 -12  10  -7 2604.31 381.825   4
 -10  12  -7 1887.66 262.017   4
 -10  12  -4 4473.41 339.317   2
   2 -12  -4 4283.34 299.312   1
 -12  10  -4 4104.94 426.943   2
  10   2  -4 3430.91 442.125   2
  -2 -10  -4 3503.75 228.036   1
 -10  12  -4 4266.74 384.280   4
  12  -2  -4 3461.25 416.569   4
 -12  10  -4 3888.67 411.981   4
  10   2  -4 3252.76 362.284   4
 -10  12  -1 15659.6 712.441   4
  10   2  -1 16019.8 774.624   4
  12  -2  -1 14959.1 337.376   3
   2 -12  -1 15839.1 729.599   1
  12  -2  -1 16351.7 795.515   4
  -2 -10  -1 14965.2 719.910   3
   2 -12  -1 15643.2 718.958   3
  10   2  -1 16149.4 521.252   3
 -10  12  -1 14549.2 802.293   1
 -12  10  -1 15858.0 828.660   1
  12  -2  -1 14934.0 766.857   2
 -12  10  -1 16464.8 775.324   4
 -10  12  -1 15355.9 608.526   2
  10   2  -1 15521.5 733.836   2
  -2 -10  -1 16433.1 735.825   1
 -12  10  -1 16714.8 704.615   2
  12  -2   2 17389.0 823.786   2
  -2 -10   2 18724.1 968.430   1
  10   2   2 16201.5 813.880   2
 -10  12   2 15687.6 784.789   2
  10   2   2 17105.2 742.978   3
 -10  12   2 18790.6 855.421   4
  -2 -10   2 16733.8 713.616   3
  -2 -10   2 17005.3 551.299   2
 -12  10   2 18635.4 849.221   4
   2 -12   2 19853.7 981.810   1
 -10  12   2 16787.3 818.312   1
  12  -2   2 18178.6 777.303   3
 -10  12   2 19140.7 685.003   3
   2 -12   2 16364.6 743.781   3
 -12  10   2 17675.4 498.137   3
  12  -2   2 16896.3 853.152   4
 -12  10   2 17388.2 863.986   2
  10   2   2 17574.0 878.138   4
 -12  10   2 17534.9 814.309   1
  12  -2   5 11133.5 586.706   1
   2 -12   5 12476.1 930.505   1
  12  -2   5 10443.3 887.332   3
 -12  10   5 11356.6 835.139   2
  10   2   5 11266.0 844.593   3
 -10  12   5 10944.8 845.191   2
 -12  10   5 10931.2 718.664   4
 -10  12   5 11651.3 763.045   4
 -10  12   5 11650.8 636.135   3
 -10  12   5 10770.1 650.659   1
  -2 -10   5 9862.06 404.539   2
  -2 -10   5 12364.7 911.211   1
 -12  10   5 12043.7 563.233   3
 -12  10   8 3646.74 510.584   3
  -2 -10   8 2861.57 400.143   2
  12  -2   8 2771.94 366.914   1
  12  -2   8 3097.55 705.220   3
  10   2   8 3772.25 687.138   3
  -2 -10   8 2689.65 704.977   1
 -10  12   8 3433.47 542.525   3
 -10  12   8 3034.48 506.424   4
   2 -12   8 3014.37 708.980   1
 -12  10   8 3412.77 659.897   2
 -12  10   8 3197.37 512.672   4
   2 -12   8 3167.20 319.232   2
 -10  12   8 2483.84 657.922   2
 -11  12  -8 1120.63 222.116   4
 -12  11  -8 1400.85 303.079   4
  12  -1  -5 9700.18 600.468   4
 -11  12  -5 11878.9 584.041   2
  11   1  -5 9470.04 563.202   4
 -12  11  -5 11533.6 628.780   2
 -11  12  -5 11305.2 576.006   4
 -12  11  -5 10676.6 608.516   4
 -12  11  -2 33272.3 933.084   2
  -1 -11  -2 34044.8 928.524   1
   1 -12  -2 34715.7 944.394   1
  11   1  -2 32774.0 1087.72   2
  11   1  -2 34227.7 1076.29   4
 -12  11  -2 30743.0 1146.72   1
 -11  12  -2 33817.8 871.486   2
 -11  12  -2 33436.3 1018.99   4
 -12  11  -2 33166.2 1060.64   4
  12  -1  -2 33013.8 1080.79   4
  12  -1  -2 32557.3 1116.37   2
  11   1   1 44838.2 1271.80   2
   1 -12   1 43623.1 1327.39   1
  12  -1   1 43055.3 1242.17   2
  12  -1   1 44722.5 981.621   3
  11   1   1 44716.8 1032.60   3
   1 -12   1 43221.1 1143.97   3
  -1 -11   1 44321.0 1131.65   3
  11   1   1 46761.9 1336.89   4
 -11  12   1 45661.2 1331.81   1
 -12  11   1 47729.2 1309.64   4
 -11  12   1 48375.1 1245.80   2
  -1 -11   1 48664.4 1409.10   1
 -12  11   1 48147.9 1289.75   2
 -11  12   1 46509.1 1301.37   4
  12  -1   1 43640.8 1324.46   4
 -12  11   1 46370.6 1329.47   1
 -11  12   1 46547.7 991.824   3
  12  -1   4 23188.5 1095.63   3
 -11  12   4 21693.2 918.396   1
 -12  11   4 25320.5 756.856   3
  -1 -11   4 18248.3 432.352   2
 -12  11   4 19955.9 905.685   1
 -12  11   4 22539.9 1089.84   2
 -11  12   4 24200.3 800.043   3
  -1 -11   4 24538.3 1226.76   1
 -12  11   4 22664.2 985.735   4
  11   1   4 23341.9 1090.17   3
 -11  12   4 24274.0 1118.18   2
 -11  12   4 22770.4 1007.25   4
   1 -12   4 25450.3 1225.78   1
   1 -12   7 21368.6 1290.62   1
  12  -1   7 18997.9 1232.23   3
  11   1   7 18988.8 1222.80   3
 -11  12   7 20741.3 962.403   3
 -12  11   7 19618.4 904.381   3
 -12  11   7 17851.9 1172.43   2
  -1 -11   7 16612.6 583.916   2
   1 -12   7 14822.6 458.071   2
 -11  12   7 19011.2 1226.94   2
 -12  11   7 18131.4 971.315   4
  -1 -11   7 20338.5 1290.40   1
 -11  12   7 17712.9 979.826   4
  -1 -11  10 9398.44 1133.79   1
  12  -1  10 8244.30 1015.87   3
  11   1  10 9951.14 1131.78   3
 -12  11  10 8908.92 820.958   3
 -11  12  10 8532.02 852.623   3
   1 -12  10 11101.5 1180.18   1
 -12  11  10 9939.59 1054.20   2
 -11  12  10 8910.32 1037.47   2
 -12  11  10 8469.21 805.697   4
 -11  12  10 8570.65 825.864   4
 -12  12  -6 13237.9 646.651   4
  12   0  -6 13436.1 699.620   4
 -12  12  -3 265.094 266.508   2
 -12  12  -3 261.729 257.777   4
  12   0  -3 135.343 270.875   4
   0 -12  -3 306.962 234.196   1
  12   0   0 383.190 308.030   4
  12   0   0 166.471 301.046   2
 -12  12   0 723.756 378.764   1
   0 -12   0 652.864 389.678   1
  12   0   0 359.045 192.042   3
   0 -12   0 308.979 276.950   3
 -12  12   0 626.488 321.874   4
 -12  12   0 1380.56 363.531   2
 -12  12   3-245.988 314.939   1
 -12  12   3-209.092 390.630   2
  12   0   3 202.453 324.782   3
   0 -12   3-156.734 437.914   1
 -12  12   3-2.27760 218.562   3
 -12  12   3 89.7174 319.211   4
 -12  12   6 13183.9 964.732   2
  12   0   6 13110.7 1013.91   3
 -12  12   6 12662.2 815.736   4
   0 -12   6 13098.4 1014.20   1
 -12  12   6 13127.8 691.973   3
   0 -12   9 325.081 270.466   2
 -12  12   9 490.567 408.744   3
  12   0   9 736.364 621.495   3
 -12  12   9-279.495 394.810   4
   0 -12   9 595.765 654.047   1
 -12  12   9 129.337 564.170   2
 -13   0  -7 53.6607 271.245   1
 -13   0  -7 108.549 407.091   4
 -13   0  -4 89354.1 1602.05   1
  13 -13  -4 87228.4 1617.19   3
 -13   0  -4 90196.6 2101.17   2
   0  13  -4 90891.9 1424.55   4
 -13   0  -4 86235.2 2064.41   4
 -13   0  -1-4.53054 265.113   3
  13 -13  -1-391.526 359.778   1
   0  13  -1 253.481 205.179   2
 -13   0  -1-160.162 306.985   2
   0  13  -1 60.6759 266.863   4
   0  13  -1 470.128 268.925   3
  13 -13  -1-81.1146 333.582   2
 -13   0  -1 5.09362 277.599   1
 -13   0  -1-177.447 328.087   4
  13 -13  -1 48.5540 200.164   3
 -13   0   2 57871.9 1506.69   4
  13 -13   2 56485.8 1567.57   1
   0  13   2 54002.3 1401.58   3
   0  13   2 59095.8 1512.22   2
  13 -13   2 56259.1 1331.15   3
  13 -13   2 55213.5 1449.05   4
  13 -13   2 52560.4 1234.62   2
   0  13   2 56570.5 1334.58   1
 -13   0   2 57694.1 1497.17   2
  13 -13   5-319.199 276.671   2
   0  13   5 484.065 381.571   3
 -13   0   5-97.9846 329.054   4
  13 -13   5 878.896 417.816   1
 -13   0   5-19.2479 148.983   3
  13 -13   5 9.02472 287.505   4
 -13   0   5 303.926 384.909   2
 -13   0   8 23637.8 1015.77   4
 -13   0   8 26195.5 1151.01   3
   0  13   8 26927.2 1428.06   3
  13 -13   8 26952.8 1399.55   1
 -13   0   8 27507.8 1552.66   1
 -13   0   8 25592.5 1275.13   2
 -13   1  -8 1424.45 437.608   4
  13 -12  -5 3080.11 410.428   3
 -12  -1  -5 4085.32 529.832   4
 -13   1  -5 4449.22 599.824   2
 -13   1  -5 4137.98 539.641   4
 -12  -1  -5 3452.56 570.052   2
 -13   1  -5 3759.92 437.094   1
  -1  13  -5 3550.21 269.103   4
 -12  -1  -5 3581.75 393.780   1
   1  12  -5 3282.41 259.007   4
  12 -13  -5 3806.26 490.968   3
 -13   1  -2 6779.82 553.968   3
 -13   1  -2 6822.69 597.921   2
 -12  -1  -2 7817.56 619.779   2
 -13   1  -2 7303.60 626.077   4
  12 -13  -2 6938.54 455.359   3
  -1  13  -2 7644.48 526.700   4
  13 -12  -2 6772.16 408.877   3
  13 -12  -2 7491.52 594.259   1
 -12  -1  -2 6778.75 568.888   3
 -12  -1  -2 7408.26 499.908   1
   1  12  -2 7242.21 553.497   3
  -1  13  -2 7202.71 560.250   3
 -13   1  -2 7233.60 532.504   1
  -1  13  -2 7641.54 320.743   2
  12 -13  -2 7578.99 615.847   1
 -12  -1  -2 8325.90 699.282   4
   1  12  -2 8389.11 394.410   2
   1  12  -2 7443.71 516.183   4
 -13   1   1 20147.7 904.857   2
  12 -13   1 18563.3 768.353   2
 -13   1   1 15975.5 476.287   3
  12 -13   1 17190.8 870.042   1
 -12  -1   1 17709.5 573.087   3
   1  12   1 20319.1 836.876   2
  13 -12   1 21161.0 961.101   1
  -1  13   1 20853.5 841.657   2
   1  12   1 19566.8 827.989   3
 -12  -1   1 21843.1 937.217   4
  -1  13   1 18845.5 811.211   3
  12 -13   1 19092.0 724.931   3
   1  12   1 19298.3 844.538   1
  13 -12   1 19655.0 712.277   3
  13 -12   1 19324.7 814.544   2
  12 -13   1 16415.1 835.076   4
  13 -12   1 19233.9 876.829   4
  -1  13   1 18002.1 823.004   1
 -13   1   1 20575.1 931.578   4
 -12  -1   1 19771.5 881.164   2
  13 -12   4 1137.61 304.629   2
 -12  -1   4 1355.66 401.304   2
  -1  13   4 1226.50 405.006   3
   1  12   4 1490.91 393.786   3
 -13   1   4 1201.85 145.769   3
  -1  13   4 1132.45 251.833   1
  12 -13   4 1065.35 445.445   1
  12 -13   4 1517.27 341.743   4
  13 -12   4 1266.71 411.057   1
 -12  -1   4 1070.91 193.262   3
 -13   1   4 1029.06 386.894   2
  13 -12   4 1288.78 343.383   4
 -12  -1   4 1296.09 354.271   4
 -13   1   4 1114.45 348.537   4
  12 -13   4 1039.26 273.859   2
 -12  -1   7 19833.5 972.983   3
  12 -13   7 15348.4 734.581   2
 -13   1   7 18512.3 852.447   3
  12 -13   7 19010.5 1151.34   1
  -1  13   7 18284.3 1139.33   3
  13 -12   7 18662.6 1123.08   1
 -12  -1   7 16877.7 742.416   3
 -13   1   7 18062.3 1076.46   2
  12 -13   7 15673.0 733.400   4
 -12  -1   7 18650.1 1029.76   2
  13 -12   7 16932.3 817.012   4
 -13   1   7 19158.3 930.292   4
   1  12   7 18704.5 1154.44   3
 -12  -1   7 18710.5 865.573   4
  12 -13  10 2173.00 776.790   3
  13 -12  10 3129.57 924.623   3
 -12  -1  10 3618.75 678.423   3
 -13   1  10 3759.41 618.100   3
   1  12  10 3226.15 724.010   3
  -1  13  10 3735.33 714.167   3
  12 -13  10 2791.54 717.283   1
 -12  -1  10 3502.38 621.821   2
  13 -12  10 2517.47 673.993   1
 -12  -1  10 3573.68 848.653   1
 -13   1  10 4202.02 869.162   1
 -13   1  10 3911.36 746.587   2
  13 -11  -6 2878.78 454.424   3
 -11  -2  -6 2336.99 286.874   1
 -13   2  -6 3111.37 577.607   2
 -13   2  -6 2902.76 417.557   1
 -11  -2  -6 3579.64 555.065   4
 -13   2  -6 2898.78 501.701   4
  -2  13  -3 9640.57 514.107   4
 -11  -2  -3 9087.63 685.738   2
  11 -13  -3 9579.22 627.966   1
  13 -11  -3 9677.73 459.825   3
  11 -13  -3 10511.6 589.163   3
 -13   2  -3 9079.82 576.017   1
 -13   2  -3 9127.21 672.682   2
 -11  -2  -3 9843.44 742.770   3
 -11  -2  -3 9291.25 512.007   1
 -13   2  -3 10774.9 736.538   4
   2  11  -3 9400.15 391.835   2
   2  11  -3 10186.7 536.482   4
 -11  -2  -3 9999.23 715.335   4
 -13   2  -3 8586.70 677.832   3
  11 -13   0 1671.49 439.590   1
 -11  -2   0 1529.90 401.159   2
 -13   2   0 1297.84 248.245   3
  13 -11   0 1226.17 340.250   2
 -13   2   0 2068.05 420.570   2
 -13   2   0 1095.39 380.211   4
 -11  -2   0 1175.80 270.007   3
 -11  -2   0 1727.30 408.289   4
   2  11   0 1535.97 372.722   1
  11 -13   0 1344.69 277.897   3
  -2  13   0 1632.83 332.780   3
  -2  13   0 1673.28 296.732   2
   2  11   0 1665.69 354.264   4
 -13   2   0 1660.43 359.802   1
   2  11   0 1275.53 323.641   3
  13 -11   0 1448.65 359.138   4
  13 -11   0 1361.11 236.914   3
   2  11   0 1301.88 305.960   2
  13 -11   0 1764.79 403.162   1
  11 -13   0 1384.56 358.544   2
  -2  13   0 887.158 373.294   1
 -11  -2   3 20131.2 862.120   4
  -2  13   3 17522.4 836.982   3
   2  11   3 17421.4 867.260   3
 -11  -2   3 17406.3 540.588   3
  13 -11   3 16985.7 808.037   4
  11 -13   3 19322.3 977.431   1
  -2  13   3 18568.0 725.908   1
 -11  -2   3 19727.4 883.413   2
  13 -11   3 18698.2 783.154   2
  11 -13   3 16817.5 612.366   2
  13 -11   3 18980.7 920.927   1
 -13   2   3 18169.2 907.298   2
  11 -13   3 16274.3 760.139   4
 -13   2   3 19872.3 890.986   4
  -2  13   6 3452.28 532.306   3
  11 -13   6 4349.35 640.263   1
   2  11   6 4724.78 655.824   3
 -13   2   6 3982.89 419.895   3
 -11  -2   6 3529.69 362.551   3
  13 -11   6 4186.01 487.626   4
 -11  -2   6 4222.48 552.362   2
  11 -13   6 3759.40 396.883   4
 -13   2   6 5006.41 633.381   2
  13 -11   6 4065.43 478.898   2
 -11  -2   6 4778.59 479.355   4
  13 -11   6 5427.14 664.055   1
  11 -13   6 3917.40 378.595   2
 -13   2   6 4540.48 545.237   4
 -11  -2   9 5837.61 739.053   3
  11 -13   9 4462.95 913.575   3
 -13   2   9 3986.61 574.967   3
  13 -11   9 4603.08 939.434   3
   2  11   9 4948.27 769.155   3
  -2  13   9 4566.27 714.611   3
 -13   2   9 3696.48 641.560   2
  13 -11   9 3335.20 642.698   1
 -13   2   9 4567.30 535.187   4
  11 -13   9 4908.43 799.336   1
 -13   2   9 4031.53 771.969   1
 -11  -2   9 5740.55 906.747   1
 -11  -2   9 3423.63 577.236   2
 -13   3  -7 657.315 382.142   4
 -13   3  -7 541.829 308.400   1
  13 -10  -4 40446.7 933.562   3
   3  10  -4 41101.4 857.197   2
 -10  -3  -4 45143.3 1471.33   4
  10 -13  -4 45117.9 1267.22   3
 -10  -3  -4 45878.1 958.035   1
 -13   3  -4 45489.0 1227.83   1
 -13   3  -4 43015.6 1379.34   2
 -13   3  -4 43729.2 1386.76   4
 -10  -3  -4 46129.7 1499.07   2
   3  10  -4 44062.4 936.077   4
  -3  13  -4 44554.2 911.205   4
  10 -13  -4 43842.0 1202.41   1
   3  10  -1 1582.71 357.805   4
  -3  13  -1 1131.25 376.364   1
 -13   3  -1 1126.02 336.755   1
   3  10  -1 1201.23 265.501   2
 -10  -3  -1 826.069 292.185   3
  10 -13  -1 1140.17 354.503   1
  13 -10  -1 1497.47 215.544   3
 -10  -3  -1 1149.55 372.499   2
  13 -10  -1 1153.78 378.595   1
  10 -13  -1 1186.46 260.398   3
  -3  13  -1 1503.15 227.390   2
   3  10  -1 1587.95 336.261   3
  -3  13  -1 984.948 333.084   3
 -10  -3  -1 1178.11 379.124   4
  13 -10  -1 1398.48 379.323   2
  13 -10  -1 775.213 328.221   4
 -13   3  -1 1451.86 384.992   2
 -13   3  -1 1641.48 397.047   4
  13 -10   2 93658.8 1802.82   4
 -13   3   2 93152.5 1844.15   2
   3  10   2 99394.4 1895.47   2
 -10  -3   2 92679.8 1312.71   3
  -3  13   2 94926.2 1737.51   3
  13 -10   2 95857.9 1887.92   1
  10 -13   2 95328.0 1718.17   3
 -10  -3   2 94439.8 1730.61   2
  10 -13   2 89001.5 1318.55   2
  10 -13   2 97450.8 2001.16   1
 -13   3   2 97898.6 1876.87   4
  -3  13   2 93474.1 1662.23   1
 -10  -3   2 97066.1 1773.30   4
   3  10   2 95707.3 1790.05   3
  13 -10   2 94019.2 1681.51   2
 -10  -3   5 1813.41 412.260   2
  10 -13   5 1928.61 512.846   1
  13 -10   5 1950.25 402.359   2
  10 -13   5 1406.51 244.627   2
  -3  13   5 1100.37 229.645   1
 -13   3   5 1451.36 368.674   4
   3  10   5 1080.09 400.652   3
  -3  13   5 1198.15 401.743   3
  13 -10   5 1580.04 363.230   4
  13 -10   5 1321.75 429.293   1
 -10  -3   5 1222.28 246.782   3
 -13   3   5 1800.88 470.533   2
 -10  -3   5 1820.86 365.755   4
 -13   3   5 1294.27 220.240   3
 -10  -3   8 26642.5 1336.61   3
  13 -10   8 31030.5 1755.72   3
 -13   3   8 26574.9 1060.20   3
  -3  13   8 26449.3 1358.88   3
 -10  -3   8 24402.1 1161.74   2
  10 -13   8 27354.9 1370.81   1
 -10  -3   8 25057.7 1504.69   1
   3  10   8 27032.8 1429.97   3
 -13   3   8 26188.3 1337.90   2
 -13   3   8 26727.1 1110.16   4
 -10  -3   8 21138.4 751.016   4
  13 -10   8 25985.1 1227.66   1
 -13   4  -8 3096.32 495.614   4
  -9  -4  -5 8547.88 702.742   4
  13  -9  -5 7632.31 497.022   3
 -13   4  -5 8357.37 659.486   4
   4   9  -5 7184.01 360.693   4
 -13   4  -5 7353.19 572.687   1
  -9  -4  -5 7692.17 352.203   1
 -13   4  -5 8291.49 704.514   2
  -4  13  -5 7256.37 331.533   4
  -4  13  -5 7544.67 330.424   4
   4   9  -2 6519.25 418.147   2
 -13   4  -2 5553.65 527.180   2
 -13   4  -2 6866.10 596.909   4
  -4  13  -2 4234.21 173.446   2
  13  -9  -2 5498.37 267.299   3
   9 -13  -2 6016.36 469.187   3
  -9  -4  -2 6007.71 581.758   2
 -13   4  -2 6099.59 512.372   1
   4   9  -2 6964.53 481.695   4
   4   9  -2 6148.15 477.484   3
  -9  -4  -2 6458.79 581.379   4
   9 -13  -2 5986.16 504.571   1
  -9  -4  -2 5816.94 531.255   3
  -4  13   1 30082.9 1015.44   1
  -9  -4   1 32497.5 1015.05   2
   4   9   1 30909.5 992.132   2
  13  -9   1 30866.3 1058.68   4
  -9  -4   1 31394.9 839.849   3
   4   9   1 29947.0 953.356   3
  -4  13   1 32256.0 998.042   3
 -13   4   1 30912.3 1063.08   1
   9 -13   1 30909.4 923.768   3
  -9  -4   1 32269.0 1062.50   4
 -13   4   1 33575.1 1122.33   4
  13  -9   1 30149.8 999.052   2
  13  -9   1 32691.8 1110.75   1
   9 -13   1 32441.4 1162.69   1
 -13   4   1 30829.9 1093.09   2
   4   9   1 30623.4 1099.75   4
  -4  13   4 15957.5 648.094   1
  13  -9   4 17557.9 870.127   1
  -9  -4   4 15174.4 591.988   3
 -13   4   4 13058.6 299.790   3
  -9  -4   4 16390.6 773.493   2
   9 -13   4 17139.4 965.670   1
  13  -9   4 16580.5 794.577   4
 -13   4   4 16489.8 903.739   2
   4   9   4 16864.6 885.619   3
   9 -13   4 14577.1 448.760   2
 -13   4   4 17017.5 831.211   4
  -9  -4   4 17875.5 745.893   4
  -4  13   4 18441.7 878.305   3
  13  -9   4 15237.3 763.426   2
 -13   4   7 3750.57 514.994   4
  13  -9   7 3412.23 731.491   3
  13  -9   7 3201.19 523.882   1
 -13   4   7 2762.29 385.572   3
   4   9   7 2658.84 591.443   3
  -4  13   7 1850.33 184.811   1
  -4  13   7 2175.50 492.046   3
  -9  -4   7 3104.57 496.036   2
   9 -13   7 2668.27 607.997   1
  13  -9   7 2130.94 437.109   4
  -9  -4   7 2422.20 320.387   4
 -13   4   7 3645.96 613.844   2
  -9  -4   7 2775.96 696.409   1
   9 -13   7 2493.60 305.289   2
   9 -13  10 3612.55 756.500   1
 -13   4  10 4122.06 596.318   3
  13  -9  10 4605.64 703.788   1
  -4  13  10 3504.91 723.309   3
  13  -9  10 2864.88 919.978   3
  -9  -4  10 3491.23 832.638   1
 -13   4  10 3393.31 500.785   4
   9 -13  10 3520.92 919.780   3
  -9  -4  10 4001.41 723.966   3
 -13   4  10 2921.48 668.736   2
  -9  -4  10 3741.45 623.511   2
 -13   4  10 3858.84 708.369   1
   4   9  10 4815.97 816.578   3
 -13   5  -6 5956.04 556.851   1
   5   8  -6 5066.44 265.743   4
 -13   5  -6 6510.12 691.206   2
 -13   5  -6 6727.25 587.949   4
 -13   5  -3 19763.3 857.554   1
 -13   5  -3 20070.0 901.423   2
   8 -13  -3 18580.6 809.363   3
   8 -13  -3 19098.4 775.693   1
  -8  -5  -3 20908.9 993.284   2
 -13   5  -3 19767.2 908.877   4
  -5  13  -3 20151.3 695.851   4
   5   8  -3 19302.2 682.317   2
   5   8  -3 20146.9 721.580   4
  -8  -5  -3 20948.3 974.777   4
  -5  13   0 9751.61 665.513   1
 -13   5   0 10620.1 682.043   4
  -8  -5   0 10873.8 655.320   2
   5   8   0 10751.8 581.918   3
   8 -13   0 10227.6 567.347   3
  -5  13   0 9613.50 559.739   3
  13  -8   0 10472.4 663.115   1
  -8  -5   0 10715.2 574.594   3
   5   8   0 11135.2 675.159   4
  13  -8   0 10947.5 657.014   2
  13  -8   0 9929.18 641.963   4
   8 -13   0 11201.7 717.865   1
   5   8   0 11395.4 593.984   2
 -13   5   0 10269.0 633.232   1
  -8  -5   0 11125.3 688.577   4
 -13   5   0 9489.98 647.978   2
  -5  13   3 15067.2 679.873   1
   5   8   3 15275.5 799.756   3
  -5  13   3 16154.7 768.557   3
  -8  -5   3 14282.0 582.896   3
   8 -13   3 14861.0 873.220   1
 -13   5   3 16252.7 811.194   4
  13  -8   3 15859.6 798.620   1
 -13   5   3 16346.1 871.539   2
  13  -8   3 14640.7 737.277   2
  13  -8   3 13655.0 736.048   4
  -8  -5   3 16400.0 714.106   4
  -8  -5   3 15988.1 720.331   2
  13  -8   6 2195.99 613.315   3
  13  -8   6 2678.76 417.306   4
  13  -8   6 2980.01 493.089   1
  -5  13   6 2672.95 312.401   1
   5   8   6 2679.01 545.394   3
 -13   5   6 3376.39 358.951   3
   8 -13   6 3584.07 611.647   1
  -8  -5   6 3048.05 338.070   4
  -8  -5   6 3493.76 692.066   1
 -13   5   6 3632.64 510.002   4
   8 -13   6 2753.39 237.989   2
  -8  -5   6 2948.08 411.899   2
 -13   5   6 3280.29 587.558   2
  -5  13   6 3453.17 533.207   3
  13  -8   9 3657.57 585.901   1
  13  -8   9 4934.08 924.641   3
 -13   5   9 3783.68 548.542   4
 -13   5   9 4337.26 559.417   3
   5   8   9 4206.37 735.552   3
  -5  13   9 3099.47 662.406   3
  -8  -5   9 5365.31 916.011   1
   8 -13   9 4489.01 740.990   1
  -8  -5   9 4161.53 612.112   2
 -13   5   9 3281.07 643.272   2
  -8  -5   9 4216.29 714.510   3
 -13   6  -7 1463.55 397.369   4
  -7  -6  -4 29682.4 1181.31   4
 -13   6  -4 28457.7 1056.13   4
 -13   6  -4 29203.3 1078.79   2
  -7  -6  -4 27513.7 634.916   1
 -13   6  -4 27763.3 1024.49   1
  -6  13  -4 29124.7 748.955   4
   6   7  -4 27347.4 865.240   2
   6   7  -4 27943.9 791.439   4
   7 -13  -4 29011.8 881.828   1
  -7  -6  -4 29931.2 612.283   1
  -6  13  -1 19132.4 910.342   1
  -7  -6  -1 20067.3 822.351   3
   6   7  -1 20304.4 814.919   4
  -7  -6  -1 20434.2 869.682   2
   7 -13  -1 20374.4 774.702   3
   7 -13  -1 21287.5 879.454   1
 -13   6  -1 20278.3 843.939   1
  13  -7  -1 19514.0 884.895   2
  13  -7  -1 17839.6 352.297   3
   6   7  -1 21059.0 733.103   3
 -13   6  -1 20179.9 842.353   2
  -6  13  -1 22010.4 599.406   2
  -6  13  -1 21318.9 829.179   3
 -13   6  -1 21267.0 901.929   4
  13  -7  -1 20587.4 896.380   4
  -7  -6  -1 21895.7 927.700   4
   6   7  -1 20582.5 745.327   2
  -7  -6   2 21837.0 792.829   2
 -13   6   2 22174.9 920.188   4
  13  -7   2 21582.1 891.310   3
  -6  13   2 21771.5 851.167   1
  13  -7   2 20179.6 862.623   1
  -7  -6   2 19845.4 682.138   3
  -6  13   2 20619.3 802.936   3
   7 -13   2 20660.8 958.570   1
 -13   6   2 19675.8 881.545   1
   7 -13   2 21418.1 833.984   3
   6   7   2 22425.4 862.712   3
  -7  -6   2 20556.7 1022.58   1
  13  -7   2 20900.3 879.543   4
 -13   6   2 21692.2 957.100   2
   6   7   2 20320.1 954.090   4
   6   7   2 21595.6 946.683   2
  13  -7   2 20924.6 867.719   2
  -7  -6   2 21504.2 820.618   4
  -7  -6   5 12980.8 967.398   1
  -7  -6   5 10821.6 609.824   3
 -13   6   5 11709.5 456.183   3
   6   7   5 12069.1 837.532   3
  -6  13   5 10556.4 554.779   1
  -6  13   5 12649.7 731.569   3
   7 -13   5 11475.9 852.428   1
  13  -7   5 12037.6 716.286   1
  13  -7   5 10540.7 865.774   3
 -13   6   5 11688.3 724.545   4
  -7  -6   5 11539.3 624.091   2
  13  -7   5 11129.2 700.796   4
 -13   6   5 10966.3 806.555   2
  -7  -6   5 11693.8 551.026   4
  -7  -6   8 5797.00 589.289   2
  13  -7   8 6905.76 914.636   3
  -6  13   8 6981.74 744.485   3
   6   7   8 6027.91 796.106   3
 -13   6   8 7846.72 617.159   3
  13  -7   8 6484.06 635.960   1
   7 -13   8 7058.11 845.964   1
  -7  -6   8 7767.71 981.898   1
 -13   6   8 6469.19 648.545   4
 -13   6   8 5635.93 736.413   2
 -13   7  -8 6955.88 584.085   4
 -13   7  -5 9878.19 688.678   1
 -13   7  -5 11380.7 744.203   2
   7   6  -5 10435.5 642.141   2
   7   6  -5 10036.0 474.886   4
  -7  13  -5 10797.3 445.900   4
 -13   7  -5 9334.31 638.534   4
  -6  -7  -2 21919.9 982.793   4
  -7  13  -2 17548.9 912.795   1
 -13   7  -2 20177.0 846.228   2
  -7  13  -2 19231.2 455.112   2
  -6  -7  -2 19023.9 884.671   3
   6 -13  -2 18401.4 771.061   3
  -6  -7  -2 20589.1 932.804   2
 -13   7  -2 19541.1 867.327   1
   7   6  -2 20069.2 710.636   3
  -7  13  -2 21878.1 784.578   4
  13  -6  -2 19762.1 875.084   4
  13  -6  -2 18761.6 906.219   2
 -13   7  -2 18286.0 836.876   4
   7   6  -2 19946.5 790.592   4
   7   6  -2 20113.8 773.859   2
  -6  -7  -2 20340.9 730.095   1
   6 -13  -2 20174.8 784.301   1
   7   6   1 20680.3 854.277   2
   7   6   1 21636.3 790.997   3
  -6  -7   1 22104.4 799.052   2
  13  -6   1 21362.7 759.964   3
 -13   7   1 21817.1 903.184   2
  -7  13   1 20155.6 871.168   1
  13  -6   1 21816.9 919.263   4
   6 -13   1 20263.8 796.024   3
  -7  13   1 22372.4 808.262   3
  -6  -7   1 23482.2 878.518   4
  -6  -7   1 23269.9 1019.60   1
   6 -13   1 20892.4 939.092   1
 -13   7   1 21384.4 914.462   4
  -6  -7   1 21121.1 747.996   3
 -13   7   1 21457.2 893.462   1
  13  -6   1 21690.4 882.638   1
  13  -6   1 20331.8 861.664   2
   7   6   1 22483.6 939.297   4
  13  -6   4 29361.4 1011.95   1
  13  -6   4 30253.1 1264.57   3
 -13   7   4 29010.3 558.214   3
  -6  -7   4 28762.0 858.532   2
   7   6   4 29614.2 1157.79   3
   6 -13   4 32230.6 1311.69   1
  -7  13   4 29719.6 1029.48   3
  -6  -7   4 32863.6 1372.83   1
  -6  -7   4 30638.9 866.803   4
  -6  -7   4 27166.6 885.371   3
  -7  13   4 29122.2 939.714   1
 -13   7   4 29077.0 1081.12   4
 -13   7   4 30582.4 1206.29   2
  13  -6   4 28256.8 1059.89   4
  -7  13   7 735.301 315.497   1
 -13   7   7 844.628 316.354   3
   7   6   7 1862.95 554.983   3
  -7  13   7 864.138 429.957   3
 -13   7   7 1312.92 522.264   2
  13  -6   7 693.889 397.759   1
   6 -13   7-237.927 526.413   1
  13  -6   7 844.262 507.286   3
  -6  -7   7 1315.97 585.289   1
   6 -13   7 858.171 163.794   2
   6 -13   7 1295.14 194.098   2
  -6  -7   7 764.762 308.949   2
 -13   7   7 1215.66 414.425   4
  13  -6  10 5662.42 983.691   3
 -13   7  10 7289.35 899.018   2
 -13   7  10 5816.37 639.444   3
  -7  13  10 5713.49 747.484   3
   6 -13  10 7031.23 916.500   1
  13  -6  10 4792.61 589.029   1
 -13   7  10 5014.56 747.258   1
 -13   7  10 5623.49 660.211   4
  -7  13  10 5147.96 728.129   4
  -6  -7  10 6513.44 707.723   2
  -6  -7  10 6008.19 881.837   3
  -6  -7  10 6438.28 1009.93   1
   7   6  10 7239.65 930.160   3
 -13   8  -9 1984.32 372.445   4
   8   5  -6 2670.36 283.751   4
 -13   8  -6 2532.71 470.947   2
  -8  13  -6 2265.16 234.781   4
 -13   8  -6 2701.41 410.339   4
   5 -13  -3 15898.4 650.820   1
 -13   8  -3 17124.9 797.486   2
  -8  13  -3 14499.9 376.769   2
  -8  13  -3 15847.7 647.230   4
  13  -5  -3 15114.2 773.370   4
 -13   8  -3 16182.9 830.779   1
   8   5  -3 16287.9 732.820   2
  -5  -8  -3 17706.8 588.663   1
 -13   8  -3 16355.5 791.412   4
   8   5  -3 16313.5 697.764   4
  13  -5   0 9124.90 631.254   2
  13  -5   0 9519.25 394.405   3
 -13   8   0 9401.04 639.986   1
  13  -5   0 9366.40 640.408   4
   8   5   0 11014.3 543.204   3
   5 -13   0 9723.50 566.858   3
  -5  -8   0 11087.6 666.985   4
   5 -13   0 11147.0 695.458   1
   8   5   0 8963.65 588.231   2
  -8  13   0 9983.25 564.158   3
  -8  13   0 10479.9 546.676   2
  -5  -8   0 10070.2 670.539   1
  -8  13   0 10244.6 647.993   4
  -5  -8   0 10453.8 597.209   2
 -13   8   0 10259.7 676.238   4
   8   5   0 10130.7 669.174   4
 -13   8   0 10131.8 640.084   2
  -5  -8   0 9547.78 550.628   3
  -8  13   0 9794.39 673.951   1
 -13   8   3 19204.4 865.906   4
  13  -5   3 18591.5 920.998   3
   5 -13   3 19211.4 1018.51   1
   8   5   3 17760.2 844.797   3
  13  -5   3 19821.1 841.739   1
  -8  13   3 18702.7 767.175   3
  -5  -8   3 16039.3 692.661   3
 -13   8   3 15750.4 336.538   3
  13  -5   3 17123.4 846.401   4
  -8  13   3 18456.1 800.446   1
  -5  -8   3 19347.1 674.299   2
 -13   8   3 18648.5 941.473   2
  -5  -8   3 20527.9 1076.00   1
  -5  -8   3 19860.5 734.247   4
 -13   8   6 6343.69 706.340   2
  13  -5   6 6794.09 797.610   3
   8   5   6 7373.86 805.273   3
 -13   8   6 5789.48 567.182   4
 -13   8   6 6675.91 451.826   3
  -8  13   6 6666.36 607.059   3
  -5  -8   6 6341.33 470.929   2
  -5  -8   6 7901.14 840.222   1
  13  -5   6 5995.63 526.253   1
  -8  13   6 6308.58 542.575   1
   5 -13   6 6950.22 765.133   1
  13  -5   9 2476.20 447.427   1
  13  -5   9 2114.04 704.172   3
  -8  13   9 2899.97 595.482   4
 -13   8   9 3295.70 507.770   3
   8   5   9 3737.53 771.332   3
  -8  13   9 3013.10 597.599   3
 -13   8   9 1971.64 453.487   4
   5 -13   9 3358.03 734.605   1
  -5  -8   9 3338.84 794.295   1
   5 -13   9 1979.16 315.663   2
  -5  -8   9 2366.35 481.499   2
 -13   8   9 2083.98 674.085   2
  -9  13  -7 1359.87 181.015   4
 -13   9  -7 1590.43 348.756   4
  -9  13  -4 17758.1 671.805   4
  13  -4  -4 17448.1 820.584   4
  -9  13  -4 15238.7 463.365   2
   9   4  -4 17664.3 824.491   2
 -13   9  -4 17665.5 801.078   2
   4 -13  -4 18560.1 639.035   1
   9   4  -4 17319.8 699.160   4
  -4  -9  -4 15768.8 431.154   1
 -13   9  -4 17011.5 797.023   4
  -9  13  -1 30581.4 771.179   2
  -4  -9  -1 31316.8 988.007   1
  13  -4  -1 28873.1 1052.46   2
   4 -13  -1 29043.3 956.445   3
   9   4  -1 29938.8 969.401   2
   9   4  -1 31065.7 1047.65   4
   9   4  -1 30570.0 785.811   3
   4 -13  -1 31171.0 1007.89   1
  -4  -9  -1 29642.4 1010.97   2
  -4  -9  -1 28355.0 982.825   3
  -9  13  -1 32348.2 1009.21   4
 -13   9  -1 30409.9 1045.84   4
  -9  13  -1 29479.7 1136.36   1
  13  -4  -1 30474.1 1085.18   4
 -13   9  -1 30128.5 1092.81   1
 -13   9  -1 30416.5 974.500   2
  13  -4   2 7270.43 553.921   3
   4 -13   2 8113.56 695.290   1
  -4  -9   2 7906.56 450.295   2
  -9  13   2 7896.48 515.002   3
 -13   9   2 7831.47 612.995   1
 -13   9   2 8040.27 621.385   4
  -9  13   2 7440.80 596.347   1
  -9  13   2 7631.10 621.260   4
  13  -4   2 8454.63 587.212   1
  -4  -9   2 8331.08 722.087   1
  13  -4   2 7423.55 621.352   4
 -13   9   2 7255.35 608.491   2
  -9  13   2 6645.82 570.413   2
  -4  -9   2 7350.42 477.575   3
  13  -4   2 7728.84 613.458   2
   9   4   2 7660.37 543.384   3
  13  -4   5 8038.67 767.944   3
  13  -4   5 7694.31 560.066   1
   9   4   5 8425.41 769.151   3
 -13   9   5 8298.54 437.012   3
  -9  13   5 8333.84 590.650   3
  -4  -9   5 7245.98 425.825   2
 -13   9   5 8341.21 730.830   2
   4 -13   5 9345.72 842.907   1
 -13   9   5 6706.10 582.034   4
  -9  13   5 8026.67 591.824   1
  -4  -9   5 9202.62 855.446   1
  -4  -9   8 3554.36 766.450   1
  13  -4   8 3487.53 766.769   3
 -13   9   8 4867.60 536.331   3
   9   4   8 3651.49 694.888   3
  -9  13   8 3027.26 536.939   3
  13  -4   8 2650.30 426.050   1
   4 -13   8 3829.23 736.117   1
  -9  13   8 4316.13 624.671   4
   4 -13   8 2872.66 271.382   2
 -13   9   8 3208.77 523.302   4
 -13   9   8 3350.80 649.861   2
  -4  -9   8 3626.30 459.670   2
 -13  10  -8 20710.4 835.336   4
 -10  13  -8 13893.5 410.456   4
 -10  13  -5 1662.51 295.138   4
  13  -3  -5 538.428 306.225   4
   3 -13  -5 1584.78 220.251   1
 -13  10  -5 1900.88 363.079   2
  10   3  -5 1418.17 298.672   4
 -13  10  -5 1371.25 330.993   4
  -3 -10  -2 101113. 1593.82   1
  10   3  -2 101607. 1343.50   3
   3 -13  -2 98548.9 1606.53   1
 -10  13  -2 100624. 1701.96   4
  13  -3  -2 97772.5 1876.06   4
 -13  10  -2 97880.1 1819.97   4
  10   3  -2 101455. 1826.17   4
 -13  10  -2 97690.1 1682.92   2
 -10  13  -2 99602.4 1335.10   2
  10   3  -2 98305.0 1796.76   2
  10   3   1 679.887 338.828   2
 -13  10   1 1155.92 348.876   1
 -10  13   1 695.518 356.687   1
 -10  13   1 922.947 358.242   4
 -10  13   1 608.361 303.111   2
  -3 -10   1 978.935 309.578   3
   3 -13   1 732.658 290.813   3
  -3 -10   1 988.502 282.478   2
   3 -13   1 1267.16 437.573   1
  10   3   1 608.746 263.446   3
 -10  13   1 1342.05 293.644   3
 -13  10   1 1388.47 394.970   4
  -3 -10   1 896.495 393.230   1
  13  -3   1 898.261 249.346   3
  10   3   1 1680.77 406.421   4
  13  -3   1 809.935 357.157   4
  13  -3   1 723.042 333.041   2
 -13  10   1 594.794 325.955   2
  -3 -10   4 42596.7 834.359   2
   3 -13   4 48001.4 1619.38   1
 -13  10   4 42587.9 1334.23   4
 -10  13   4 45530.2 1177.20   3
  13  -3   4 46215.6 1518.04   3
 -13  10   4 40179.4 1419.20   2
  -3 -10   4 45239.8 1630.49   1
 -10  13   4 46327.8 1532.72   2
 -10  13   4 45401.9 1419.97   4
  13  -3   4 44137.9 1183.73   1
 -10  13   4 41522.4 1248.89   1
  10   3   4 44505.4 1424.71   3
 -13  10   4 47160.2 902.825   3
  -3 -10   7 805.683 296.632   2
 -10  13   7 479.305 349.209   3
  13  -3   7 340.335 284.216   1
  -3 -10   7 1522.07 616.309   1
  13  -3   7 697.628 510.809   3
  10   3   7 718.339 511.752   3
 -13  10   7 189.096 273.172   3
   3 -13   7 252.499 519.070   1
 -13  10   7 75.3235 454.083   2
 -10  13   7 354.921 364.473   4
 -13  10   7 87.9795 358.363   4
 -10  13   7 846.469 536.167   2
 -10  13   7 700.641 349.758   1
  10   3  10 23165.2 1567.21   3
   3 -13  10 23800.4 1572.01   1
 -13  10  10 20457.0 1130.47   4
 -13  10  10 24567.2 1230.06   3
 -10  13  10 24323.3 1662.34   2
 -10  13  10 22471.1 1284.90   4
 -13  10  10 20863.1 1441.38   2
  13  -3  10 25237.1 1674.72   3
 -10  13  10 22523.3 1293.43   3
  -3 -10  10 25464.5 1669.86   1
 -13  11  -9 2436.70 352.982   4
 -13  11  -6 3777.95 424.706   4
 -13  11  -6 4640.92 488.337   2
  11   2  -6 4366.82 414.811   4
 -11  13  -6 4212.89 394.253   4
  11   2  -3 20384.5 847.220   4
 -11  13  -3 22145.7 697.259   2
  -2 -11  -3 22948.5 689.396   1
 -11  13  -3 22298.2 834.912   4
   2 -13  -3 21623.7 743.406   1
  13  -2  -3 20859.4 894.702   4
  11   2  -3 20663.9 928.367   2
 -13  11  -3 21512.5 889.329   4
 -13  11  -3 21854.3 833.957   2
  13  -2   0 1298.39 356.881   2
  11   2   0 1468.18 348.690   2
  -2 -11   0 1733.82 403.556   1
  -2 -11   0 1250.66 318.665   3
  13  -2   0 1438.88 215.809   3
  13  -2   0 674.243 334.068   4
 -11  13   0 1390.59 327.342   2
  11   2   0 1354.90 257.246   3
   2 -13   0 1251.18 320.892   3
 -11  13   0 1529.45 384.875   4
 -13  11   0 1382.76 358.378   4
   2 -13   0 1087.98 396.430   1
  11   2   0 1381.89 370.589   4
 -13  11   0 582.873 362.493   1
 -11  13   0 1509.98 427.073   1
 -13  11   0 1741.33 386.883   2
   2 -13   3 10726.5 846.617   1
  13  -2   3 9890.11 689.561   3
  11   2   3 10246.1 685.193   3
  -2 -11   3 9222.33 392.963   2
 -11  13   3 10759.5 575.768   3
 -13  11   3 10196.3 445.254   3
 -11  13   3 10593.0 711.510   4
  -2 -11   3 10062.7 805.509   1
 -11  13   3 9531.22 711.869   2
 -13  11   3 10301.6 690.401   4
 -11  13   3 9427.97 664.918   1
 -13  11   3 10148.4 730.105   2
 -13  11   6 3120.06 370.325   3
 -13  11   6 2585.75 455.717   4
  13  -2   6 3800.42 700.740   3
  -2 -11   6 3209.62 642.984   1
  11   2   6 3194.46 599.981   3
 -11  13   6 1950.45 556.284   2
 -11  13   6 2460.26 406.873   3
   2 -13   6 3000.92 650.300   1
 -11  13   6 2971.71 518.665   4
 -13  11   6 3079.92 609.286   2
  13  -2   6 2733.55 389.627   1
  -2 -11   6 2596.13 261.797   2
   2 -13   9 7275.51 917.004   1
  11   2   9 9063.01 992.607   3
 -13  11   9 8108.45 702.185   3
  -2 -11   9 9063.06 1080.88   1
 -13  11   9 8025.93 936.924   2
 -11  13   9 7959.40 793.772   4
 -11  13   9 8813.31 812.174   3
 -11  13   9 7962.46 982.077   2
  13  -2   9 7965.56 996.447   3
 -13  11   9 8149.21 754.029   4
  -2 -11   9 7435.87 541.948   2
 -13  12  -7 13382.4 684.224   4
 -12  13  -7 12590.6 610.481   4
  12   1  -7 12978.2 694.299   4
 -13  12  -4 1546.50 322.466   2
 -12  13  -4 1118.56 284.191   2
 -13  12  -4 1083.41 319.926   4
   1 -13  -4 1422.74 242.716   1
  -1 -12  -4 1714.84 240.254   1
 -12  13  -4 1786.87 355.288   4
  13  -1  -4 1005.07 322.327   4
  12   1  -4 1257.84 332.360   4
   1 -13  -1 20993.8 870.599   1
  -1 -12  -1 20621.0 856.259   1
  13  -1  -1 20369.8 479.119   3
  12   1  -1 20755.1 579.944   3
  12   1  -1 18158.0 864.296   2
 -12  13  -1 19595.4 856.914   4
 -12  13  -1 18454.3 727.177   2
  13  -1  -1 19314.1 907.175   4
 -13  12  -1 21011.7 895.395   4
  12   1  -1 18922.4 901.963   4
 -13  12  -1 18819.5 761.194   2
  13  -1   2 8001.59 552.436   3
  12   1   2 8072.03 560.668   3
 -12  13   2 7375.92 622.387   2
 -12  13   2 6913.12 595.993   1
 -13  12   2 6855.89 600.641   2
  -1 -12   2 7690.85 388.284   2
 -12  13   2 7647.44 455.994   3
   1 -13   2 8230.28 728.973   1
 -12  13   2 8151.97 636.569   4
 -13  12   2 8038.83 644.039   4
  -1 -12   2 7844.51 721.924   1
 -13  12   2 7763.50 409.197   3
  -1 -12   5 2262.20 177.684   2
  13  -1   5 3485.83 611.062   3
  12   1   5 3149.37 590.763   3
 -13  12   5 2792.20 467.151   4
 -12  13   5 3248.57 403.884   3
   1 -13   5 2834.32 600.115   1
 -13  12   5 3175.61 373.444   3
 -12  13   5 2921.01 548.931   2
 -13  12   5 3004.28 575.114   2
  -1 -12   5 4583.90 691.096   1
 -12  13   5 2738.15 479.176   4
  13  -1   8 2012.38 666.672   3
   1 -13   8 1120.52 180.929   2
  12   1   8 2874.41 709.527   3
  -1 -12   8 2977.76 738.345   1
   1 -13   8 1742.59 594.775   1
 -13  12   8 1747.12 411.941   3
 -12  13   8 2703.63 537.384   4
 -13  12   8 1796.23 588.100   2
 -13  12   8 1588.70 477.373   4
 -12  13   8 1561.33 579.888   2
  -1 -12   8 1930.72 264.115   2
 -12  13   8 1521.46 455.197   3
 -13  13  -8 20788.4 773.877   4
 -13  13  -5 195.658 266.695   4
 -13  13  -5 134.001 283.425   2
  13   0  -5 42.0929 270.087   4
   0 -13  -5 142.109 120.822   1
   0 -13  -2 60046.5 1323.36   1
 -13  13  -2 58972.8 1448.92   4
 -13  13  -2 57755.2 1253.81   2
  13   0   1 347.424 235.047   3
   0 -13   1-84.7527 376.896   1
 -13  13   1 595.247 335.099   4
 -13  13   1-244.307 300.655   2
  13   0   4 90256.3 2076.16   3
 -13  13   4 93067.3 1533.83   3
 -13  13   4 86628.4 1979.03   4
 -13  13   4 84431.1 2085.63   2
   0 -13   4 92802.9 2363.25   1
 -13  13   7-273.870 387.913   4
  13   0   7-130.908 470.275   3
   0 -13   7-518.578 555.714   1
   0 -13   7 98.0050 108.276   2
   0 -13   7 42.9424 93.0916   2
 -13  13   7-746.918 523.645   2
 -13  13   7-460.255 329.847   3
   0 -13  10 23245.4 1621.67   1
  13   0  10 24073.3 1645.44   3
 -13  13  10 22021.0 1188.28   3
 -13  13  10 19603.5 1209.51   4
 -13  13  10 21461.2 1541.98   2
 -14   0  -8 4295.01 620.724   4
 -14   0  -5-89.4686 381.652   4
  14 -14  -5-353.658 319.444   3
 -14   0  -5-218.734 330.167   1
 -14   0  -5 177.028 409.465   2
   0  14  -5-124.107 191.278   4
 -14   0  -2 9995.25 674.439   3
  14 -14  -2 9326.74 685.789   1
 -14   0  -2 9051.70 598.229   1
 -14   0  -2 9796.34 722.306   2
  14 -14  -2 9637.56 525.353   3
   0  14  -2 10527.8 683.719   3
   0  14  -2 10053.1 624.296   4
 -14   0  -2 11467.4 807.303   4
   0  14  -2 11847.6 458.901   2
  14 -14   1-47.5859 292.479   2
 -14   0   1 152.273 332.153   2
  14 -14   1-191.680 342.235   1
   0  14   1 213.962 284.886   3
   0  14   1-127.303 281.035   2
  14 -14   1-36.9925 217.189   3
 -14   0   1 483.583 358.185   4
   0  14   1 199.943 302.620   1
 -14   0   1 65.9633 180.205   3
   0  14   4 2246.35 466.596   3
 -14   0   4 1846.29 199.487   3
  14 -14   4 2092.57 507.812   1
 -14   0   4 1719.59 439.571   2
  14 -14   4 1516.77 323.610   2
 -14   0   4 2417.74 443.994   4
   0  14   7 395.978 458.359   3
  14 -14   7 35.3227 483.587   1
 -14   0   7 52.1149 221.147   3
 -14   0   7-52.3350 345.090   4
 -14   0   7 93.7865 364.269   3
 -14   0   7 224.664 459.856   2
 -14   0  10 6218.63 741.119   3
  14 -14  10 6890.80 1139.00   3
   0  14  10 4934.43 852.538   3
 -14   0  10 5430.23 793.541   2
  14 -14  10 5021.58 806.604   1
 -14   0  10 6393.67 985.849   1
 -13  -1  -6 1704.39 475.195   4
 -14   1  -6 1105.95 360.628   1
 -14   1  -6 1544.41 447.954   4
 -14   1  -6 1627.14 513.257   2
 -13  -1  -6 2155.63 542.508   2
  -1  14  -6 733.134 108.045   4
   1  13  -6 1027.73 136.759   4
 -13  -1  -6 1132.40 326.766   1
  14 -13  -6 1561.22 431.888   3
   1  13  -3 13131.9 639.230   4
 -14   1  -3 13971.2 872.132   4
  14 -13  -3 12207.0 576.321   3
  13 -14  -3 13147.1 634.028   3
 -13  -1  -3 13327.7 855.504   2
 -14   1  -3 12583.4 831.000   2
 -14   1  -3 11804.6 650.559   1
  13 -14  -3 13877.7 788.080   1
   1  13  -3 11506.5 396.103   2
 -13  -1  -3 11421.8 626.633   1
 -13  -1  -3 13682.4 875.697   4
  -1  14  -3 12261.0 619.077   4
  14 -13  -3 13456.1 791.315   1
  13 -14   0 4019.10 508.070   1
 -14   1   0 3850.24 355.454   3
 -13  -1   0 3006.18 344.606   3
  13 -14   0 3774.77 479.165   2
   1  13   0 4431.31 405.900   2
   1  13   0 3632.72 491.866   1
  -1  14   0 4246.59 392.675   2
 -13  -1   0 3652.59 531.565   4
   1  13   0 3605.52 437.997   3
  14 -13   0 4003.80 351.031   3
  -1  14   0 3697.38 461.139   3
  14 -13   0 3596.94 464.956   2
  14 -13   0 4337.48 531.715   1
  -1  14   0 4895.46 563.495   1
 -14   1   0 4240.60 537.788   2
  13 -14   0 3930.65 378.893   3
 -14   1   0 3901.47 531.546   4
 -13  -1   0 3679.16 489.167   2
 -13  -1   3 10045.4 703.658   2
  14 -13   3 9255.62 733.890   1
   1  13   3 9726.67 704.034   3
 -13  -1   3 8546.93 382.293   3
  -1  14   3 9190.61 683.967   3
  14 -13   3 8616.17 575.451   2
  13 -14   3 8660.47 528.811   2
 -14   1   3 8480.93 677.079   2
  13 -14   3 8459.09 624.725   4
  -1  14   3 8643.28 543.360   1
 -14   1   3 9875.52 690.992   4
 -13  -1   3 10140.2 688.581   4
  13 -14   3 10248.4 783.964   1
  13 -14   6 845.290 311.662   2
 -14   1   6 1079.99 395.084   4
  14 -13   6 813.567 337.009   2
 -14   1   6 1320.77 313.267   3
   1  13   6 1377.56 516.156   3
  13 -14   6 1409.06 568.567   1
  14 -13   6 1125.35 376.670   4
 -13  -1   6 544.410 199.061   3
  14 -13   6 1768.73 546.934   1
 -13  -1   6 1232.24 431.158   2
  13 -14   6 779.924 320.544   4
  -1  14   6 568.276 439.723   3
 -13  -1   6 718.230 342.961   4
 -14   1   6 1855.50 511.227   2
 -14   1   6 657.640 198.860   3
 -14   1   9 4321.15 605.689   3
  13 -14   9 4641.16 986.242   3
  14 -13   9 3659.77 898.594   3
   1  13   9 4231.81 788.922   3
 -13  -1   9 3880.97 828.598   1
  13 -14   9 3648.86 741.036   1
 -13  -1   9 3382.91 640.743   2
  14 -13   9 4265.61 751.602   1
 -14   1   9 3298.63 485.505   4
  -1  14   9 4121.56 750.610   3
 -14   1   9 2432.09 688.864   1
 -13  -1   9 4183.54 653.568   3
 -13  -1   9 3922.97 493.907   4
 -14   1   9 3619.33 676.715   2
 -12  -2  -7 14225.2 966.636   4
 -14   2  -7 13231.5 897.691   4
 -14   2  -7 12521.4 693.982   1
 -14   2  -4 9516.73 738.658   4
  12 -14  -4 9553.29 665.744   1
  12 -14  -4 8908.88 606.926   3
  14 -12  -4 8909.33 503.536   3
 -12  -2  -4 9605.50 528.419   1
 -14   2  -4 9279.02 748.841   2
 -12  -2  -4 10571.1 794.704   4
 -12  -2  -4 10233.3 814.102   2
   2  12  -4 7687.75 365.938   2
   2  12  -4 9488.71 498.562   4
  -2  14  -4 9998.16 514.244   4
 -14   2  -4 8937.72 610.946   1
 -14   2  -1 20415.1 782.490   3
 -12  -2  -1 20595.8 830.408   3
  -2  14  -1 23896.6 661.108   2
 -14   2  -1 22256.6 911.024   1
 -14   2  -1 20137.4 930.374   2
  12 -14  -1 22170.3 768.178   3
  14 -12  -1 21208.6 645.299   3
  12 -14  -1 22873.2 972.047   1
   2  12  -1 24074.0 744.198   2
   2  12  -1 21770.3 869.091   3
  -2  14  -1 22491.8 906.104   3
 -12  -2  -1 22900.3 1000.58   2
 -14   2  -1 19964.3 975.439   4
 -12  -2  -1 23695.2 1064.58   4
  14 -12  -1 21851.4 973.255   1
   2  12  -1 23047.2 916.607   4
 -12  -2   2 14892.8 794.944   2
  14 -12   2 13609.3 811.585   1
 -12  -2   2 13155.3 517.684   3
   2  12   2 14717.1 818.977   2
   2  12   2 14929.9 786.507   3
  -2  14   2 13103.6 726.440   3
  -2  14   2 13516.5 767.211   2
  12 -14   2 14296.2 869.147   1
  12 -14   2 13089.9 608.859   2
  14 -12   2 13329.4 708.259   2
  -2  14   2 13732.4 716.522   1
 -12  -2   2 14509.8 793.498   4
 -14   2   2 14029.2 810.514   2
 -14   2   2 14336.1 819.210   4
  14 -12   5 34928.7 1338.79   1
 -14   2   5 29907.1 727.317   3
 -12  -2   5 34761.3 1263.02   2
  14 -12   5 32938.1 1160.23   4
   2  12   5 34959.8 1356.14   3
  12 -14   5 31753.5 868.329   2
  12 -14   5 34736.5 1413.22   1
 -12  -2   5 31779.0 821.540   3
 -14   2   5 32861.1 630.844   3
  14 -12   5 30774.8 1051.42   2
  12 -14   5 27421.4 1007.56   4
  -2  14   5 30142.1 749.862   1
 -14   2   5 35218.6 1366.41   2
 -14   2   5 37329.9 1280.79   4
 -12  -2   5 34889.0 1152.09   4
  -2  14   5 35946.5 1334.13   3
 -12  -2   8 19222.0 1086.03   3
 -14   2   8 18174.2 897.855   3
   2  12   8 21244.9 1320.02   3
  -2  14   8 18948.2 1200.47   3
 -14   2   8 17876.6 1142.15   2
  14 -12   8 21861.0 1614.17   3
 -12  -2   8 20027.2 1381.62   1
  12 -14   8 18889.5 1219.09   1
 -14   2   8 17682.1 943.132   4
 -12  -2   8 18346.9 1083.28   2
 -12  -2   8 16770.5 800.777   4
  14 -12   8 18663.6 1156.56   1
 -14   3  -8 2295.11 499.379   4
  14 -11  -5 5966.81 470.363   3
 -14   3  -5 6528.16 640.438   4
 -14   3  -5 6345.17 676.327   2
 -11  -3  -5 6740.11 708.871   2
 -14   3  -5 6320.46 558.573   1
   3  11  -5 6099.27 358.524   4
  -3  14  -5 6594.35 350.300   4
  -3  14  -5 6059.95 343.279   4
 -11  -3  -5 6146.46 406.282   1
 -11  -3  -5 6275.93 661.269   4
  -3  14  -2 9602.57 301.685   2
 -11  -3  -2 9477.73 646.765   3
   3  11  -2 10609.2 512.232   2
 -11  -3  -2 10327.3 734.719   2
 -14   3  -2 10373.6 713.253   2
  11 -14  -2 10099.8 574.942   3
  14 -11  -2 9735.12 411.334   3
   3  11  -2 8914.99 601.172   3
 -14   3  -2 8763.87 594.744   1
 -14   3  -2 10155.7 734.578   4
  11 -14  -2 10696.4 674.144   1
   3  11  -2 9751.38 599.081   4
 -11  -3  -2 9689.73 738.313   4
  14 -11  -2 9620.89 667.891   1
 -11  -3   1 8169.10 618.995   2
  11 -14   1 7431.69 504.152   2
 -14   3   1 8717.18 651.091   4
 -11  -3   1 8164.31 471.271   3
  14 -11   1 8531.59 653.585   1
   3  11   1 7967.24 565.551   3
  -3  14   1 8038.40 579.069   3
  -3  14   1 8571.86 559.322   2
 -11  -3   1 8345.70 636.187   4
  14 -11   1 8215.56 598.239   2
  11 -14   1 8449.89 686.680   1
   3  11   1 7944.83 563.448   2
  -3  14   1 8387.02 625.767   1
 -14   3   1 8032.52 634.547   2
  11 -14   1 7990.15 516.465   3
  14 -11   4 17615.9 923.340   1
 -14   3   4 17674.1 882.499   4
   3  11   4 15824.8 880.403   3
  -3  14   4 15639.4 847.438   3
 -11  -3   4 14940.4 564.627   3
 -11  -3   4 16588.1 837.519   2
  14 -11   4 15464.6 817.328   4
  11 -14   4 14416.3 534.626   2
 -11  -3   4 16172.0 781.487   4
 -14   3   4 17264.4 946.296   2
  -3  14   4 15781.0 675.431   1
  11 -14   4 16125.0 961.176   1
  14 -11   4 14223.2 745.939   2
  11 -14   7 1901.73 581.207   1
  -3  14   7 2098.46 519.129   3
   3  11   7 2147.71 592.556   3
 -11  -3   7 1989.26 366.528   4
 -14   3   7 1953.75 442.260   4
  11 -14   7 957.284 277.673   2
  14 -11   7 1302.24 573.595   3
 -11  -3   7 1767.26 467.367   2
  14 -11   7 1306.33 528.083   1
 -14   3   7 2154.37 389.758   3
 -11  -3   7 2131.65 624.924   1
 -14   3   7 1967.77 515.308   2
  11 -14  10 6969.30 1159.50   3
 -11  -3  10 5452.10 809.242   3
  14 -11  10 5259.52 765.087   1
  11 -14  10 5124.18 868.763   1
 -14   3  10 5133.93 639.737   3
   3  11  10 6082.91 880.387   3
  14 -11  10 6578.86 1150.19   3
 -14   3  10 4360.35 782.572   1
 -14   3  10 5039.19 777.176   2
 -11  -3  10 4781.90 694.892   2
  -3  14  10 4223.06 757.982   3
 -11  -3  10 4615.41 945.739   1
 -14   4  -9 3713.66 529.757   4
 -14   4  -6-264.919 333.550   4
 -14   4  -6 570.867 368.010   1
 -14   4  -6-43.8918 441.202   2
 -10  -4  -6 275.562 380.323   4
 -10  -4  -6 278.129 126.598   1
   4  10  -6 346.129 121.544   4
   4  10  -3 6559.36 406.529   2
 -14   4  -3 6590.05 546.654   1
  14 -10  -3 5966.59 312.640   3
 -14   4  -3 7001.51 620.520   2
  10 -14  -3 6652.56 519.762   3
 -10  -4  -3 7625.54 650.810   2
 -10  -4  -3 7448.68 449.361   1
   4  10  -3 7352.12 484.796   4
 -14   4  -3 7230.83 623.716   4
  10 -14  -3 6568.44 534.703   1
 -10  -4  -3 8333.43 694.429   4
   4  10   0 1114.09 329.658   4
  14 -10   0 478.493 359.699   1
 -14   4   0 1308.06 355.799   1
 -14   4   0 1336.04 410.365   2
  -4  14   0 1079.06 397.720   1
 -10  -4   0 796.837 273.098   3
 -10  -4   0 1344.92 398.301   4
   4  10   0 1046.26 289.734   2
 -10  -4   0 847.084 346.856   2
  10 -14   0 816.648 269.813   3
   4  10   0 1245.44 302.148   3
  14 -10   0 1353.61 380.308   2
  -4  14   0 1250.57 347.738   3
  14 -10   0 736.110 187.794   3
  10 -14   0 798.703 385.772   1
 -14   4   0 1076.06 382.467   4
  14 -10   3 3162.12 427.236   2
 -10  -4   3 3245.06 295.895   3
   4  10   3 3264.22 430.075   3
  14 -10   3 4268.48 506.444   1
 -14   4   3 3271.27 467.276   4
  10 -14   3 3026.47 278.456   2
  10 -14   3 3650.00 566.921   1
  14 -10   3 3361.08 453.547   4
  -4  14   3 3426.15 393.548   1
 -14   4   3 3495.28 507.749   2
 -10  -4   3 3583.18 421.704   4
  -4  14   3 4078.31 472.157   3
 -10  -4   3 3111.55 432.757   2
  14 -10   6 3367.17 679.083   3
 -10  -4   6 3451.46 485.272   2
   4  10   6 5188.82 704.728   3
 -14   4   6 3501.19 487.172   4
  -4  14   6 4081.01 572.217   3
 -10  -4   6 3389.89 390.222   3
  10 -14   6 4457.38 682.592   1
 -10  -4   6 3612.08 399.200   4
 -14   4   6 4567.94 380.714   3
 -10  -4   6 4702.82 745.620   1
 -14   4   6 3992.76 590.944   2
  10 -14   6 3336.56 290.815   2
  -4  14   6 2810.59 291.376   1
  14 -10   6 4354.56 587.638   1
 -14   4   9 6563.89 806.276   2
 -10  -4   9 6041.66 821.023   3
  10 -14   9 4579.24 758.519   1
  14 -10   9 6904.58 1039.12   3
 -14   4   9 7208.42 640.814   3
   4  10   9 6202.32 871.915   3
  -4  14   9 7133.02 822.683   3
  14 -10   9 6213.06 752.246   1
 -10  -4   9 7028.07 996.160   1
 -14   4   9 5890.50 607.049   4
 -10  -4   9 5610.32 646.929   2
 -14   5  -7 12756.6 795.839   1
 -14   5  -7 15722.9 894.515   4
 -14   5  -4 4133.10 516.679   4
  -5  14  -4 4363.83 351.533   4
 -14   5  -4 3601.36 509.882   2
 -14   5  -4 3152.57 443.193   1
   9 -14  -4 3964.63 427.296   1
   5   9  -4 3894.58 360.609   2
  -9  -5  -4 4388.60 576.822   2
  -9  -5  -4 4348.13 318.078   1
  14  -9  -4 3255.64 276.229   3
   5   9  -4 4084.32 359.384   4
  -9  -5  -4 4020.28 537.045   4
   5   9  -1 16848.6 679.865   2
   9 -14  -1 15489.6 807.065   1
  14  -9  -1 15824.8 825.187   1
 -14   5  -1 16038.8 798.138   2
  -5  14  -1 14940.5 878.439   1
  -9  -5  -1 15673.9 807.778   2
   9 -14  -1 15849.2 706.394   3
  14  -9  -1 15977.8 417.141   3
  -9  -5  -1 14137.4 721.925   3
  14  -9  -1 14349.9 814.937   2
   5   9  -1 15576.2 687.682   3
  -5  14  -1 15999.4 758.711   3
 -14   5  -1 16397.0 783.435   1
 -14   5  -1 16444.3 852.932   4
  -9  -5  -1 17036.8 869.766   4
   5   9  -1 16548.5 785.930   4
  -9  -5   2 17983.5 785.555   2
  -5  14   2 16992.7 771.960   1
  14  -9   2 16762.9 802.697   2
   5   9   2 16824.9 875.413   2
   5   9   2 16342.1 782.660   3
  -9  -5   2 16447.4 632.892   3
  -5  14   2 18049.6 801.352   3
  14  -9   2 16390.9 828.362   4
   9 -14   2 15290.2 860.147   1
  14  -9   2 18394.3 879.675   1
 -14   5   2 17984.8 872.657   4
 -14   5   2 17309.5 874.016   2
  -9  -5   2 18725.9 825.058   4
  14  -9   5 28723.1 1401.43   3
  -5  14   5 23603.8 786.845   1
 -14   5   5 22570.6 553.283   3
   5   9   5 27495.6 1224.24   3
  14  -9   5 25815.7 1080.89   1
  -5  14   5 26506.2 1098.80   3
   9 -14   5 25960.9 1216.02   1
 -14   5   5 27031.7 1092.09   4
  -9  -5   5 24574.1 841.953   3
  -9  -5   5 25845.2 1343.75   1
 -14   5   5 27697.3 1232.47   2
  -9  -5   5 28207.1 920.011   4
  -9  -5   5 25189.5 960.910   2
  14  -9   8 7026.19 1018.45   3
  14  -9   8 7272.70 708.621   1
 -14   5   8 7114.85 566.736   3
  -9  -5   8 7044.67 656.941   2
   5   9   8 7172.57 852.253   3
  -5  14   8 7257.11 805.123   3
   9 -14   8 6521.45 805.967   1
  -9  -5   8 4907.22 319.672   4
  -9  -5   8 8092.41 946.760   1
 -14   5   8 6132.53 767.506   2
 -14   5   8 6283.83 633.445   4
 -14   6  -8 3781.95 516.253   4
 -14   6  -5 16021.2 903.233   2
 -14   6  -5 13851.3 796.860   1
  -8  -6  -5 11423.6 348.783   1
   6   8  -5 14931.7 702.632   2
  -6  14  -5 17035.7 536.969   4
  -8  -6  -5 13222.8 374.574   1
   6   8  -5 15622.7 572.741   4
 -14   6  -5 16062.8 877.005   4
 -14   6  -2 3827.56 480.757   2
   6   8  -2 3145.92 373.035   2
   8 -14  -2 3781.53 450.139   1
  -8  -6  -2 3078.20 455.241   3
  -6  14  -2 2996.18 191.194   2
   8 -14  -2 3064.47 381.021   3
  -8  -6  -2 4227.42 529.879   2
   6   8  -2 2934.44 383.619   3
   6   8  -2 3319.76 400.220   4
 -14   6  -2 3691.43 477.474   4
 -14   6  -2 3159.24 447.936   1
  -8  -6  -2 3372.34 505.129   4
  14  -8   1 62992.5 1545.50   4
  -6  14   1 65686.8 1544.79   1
  -8  -6   1 66202.4 1419.67   2
  -6  14   1 68775.9 1450.30   3
  -8  -6   1 64940.5 1286.46   3
  14  -8   1 69971.6 1607.12   1
   6   8   1 67000.7 1414.24   3
   8 -14   1 64056.7 1381.30   3
  -8  -6   1 67017.3 1525.71   4
   8 -14   1 68995.5 1675.88   1
   6   8   1 69689.2 1539.67   2
 -14   6   1 68536.6 1619.17   4
   6   8   1 67129.9 1655.56   4
  14  -8   1 64740.4 1520.70   2
 -14   6   1 66607.4 1572.41   2
  14  -8   4 14152.0 936.200   3
  -8  -6   4 14556.0 988.491   1
  -6  14   4 10984.9 607.846   1
   6   8   4 11644.9 785.845   3
  -6  14   4 12182.9 723.522   3
   8 -14   4 12664.7 887.882   1
  -8  -6   4 10658.3 559.927   3
  14  -8   4 13343.9 769.746   1
 -14   6   4 11787.6 808.361   2
 -14   6   4 12535.1 757.859   4
  -8  -6   4 12122.7 622.870   4
  -8  -6   4 12456.4 658.821   2
  14  -8   7 2840.03 737.604   3
 -14   6   7 3609.20 407.406   3
  -6  14   7 2902.72 331.039   1
  14  -8   7 3922.68 550.906   1
   6   8   7 2919.67 562.005   3
  -8  -6   7 3190.36 292.247   4
  -6  14   7 3465.01 562.626   3
 -14   6   7 3089.00 501.696   4
  -8  -6   7 3880.92 795.531   1
   8 -14   7 3644.58 624.525   1
  -8  -6   7 2880.85 445.660   2
 -14   6   7 3356.48 609.834   2
   8 -14   7 2273.96 218.099   2
  -8  -6  10 2604.80 736.700   1
  -8  -6  10 3952.67 756.961   3
 -14   6  10 4531.41 578.087   3
   6   8  10 4254.97 801.601   3
  -6  14  10 4522.19 738.729   3
  14  -8  10 3790.83 606.187   1
  14  -8  10 4380.82 1044.98   3
   8 -14  10 4432.67 950.025   3
 -14   6  10 3071.70 672.767   1
 -14   6  10 4352.76 616.982   4
 -14   6  10 3783.19 730.966   2
   8 -14  10 3918.12 837.769   1
  -8  -6  10 3141.83 558.897   2
 -14   7  -9 1408.17 406.033   4
 -14   7  -6 3279.81 552.854   2
  -7  14  -6 1837.30 197.832   4
   7   7  -6 2637.30 268.721   4
 -14   7  -6 2939.33 446.884   4
  -7  -7  -3 14589.7 851.776   4
  -7  -7  -3 14124.2 586.607   1
 -14   7  -3 13543.2 752.974   2
  -7  -7  -3 13429.0 850.883   2
 -14   7  -3 13312.1 770.483   4
  -7  14  -3 14157.9 629.515   4
   7   7  -3 13793.3 670.205   2
 -14   7  -3 12324.6 750.152   1
   7   7  -3 12892.8 633.366   4
   7 -14  -3 12903.2 649.333   1
 -14   7   0 1127.81 339.478   1
  14  -7   0 1499.75 391.079   1
 -14   7   0 951.911 360.444   2
   7 -14   0 1341.58 403.130   1
   7   7   0 1259.30 331.080   2
  -7  -7   0 1408.55 301.759   3
   7 -14   0 1264.91 298.762   3
  -7  14   0 1222.27 377.834   1
  -7  -7   0 1518.92 361.929   2
   7   7   0 1216.51 285.352   3
  -7  14   0 1561.79 331.608   3
   7   7   0 1381.00 372.014   4
  14  -7   0 842.922 323.457   4
  14  -7   0 1361.34 243.168   3
 -14   7   0 1619.41 401.945   4
  -7  -7   0 1881.55 427.161   1
  -7  14   0 1676.75 325.439   2
  14  -7   0 1129.49 377.494   2
  -7  -7   0 1712.94 404.257   4
  -7  -7   3 12859.7 621.070   2
  14  -7   3 13719.8 824.159   3
   7   7   3 13205.3 752.969   3
 -14   7   3 14198.4 833.453   2
   7 -14   3 13475.2 885.517   1
  -7  14   3 14366.9 725.836   3
  -7  -7   3 12292.5 592.100   3
  -7  -7   3 14273.4 948.048   1
  -7  -7   3 13818.0 676.974   4
  -7  14   3 13112.0 683.107   1
 -14   7   3 12880.7 773.085   4
  14  -7   3 13463.0 765.692   1
 -14   7   6 3360.11 325.431   3
  -7  14   6 3493.27 524.321   3
   7 -14   6 3744.44 666.838   1
   7   7   6 3020.53 570.930   3
  -7  14   6 2537.38 399.536   1
  14  -7   6 3118.97 488.447   1
  14  -7   6 2745.96 632.693   3
  -7  -7   6 2350.70 355.638   2
 -14   7   6 3449.28 490.711   4
 -14   7   6 2838.17 552.323   2
  -7  -7   6 2864.28 627.304   1
  -7  -7   6 3282.39 327.186   4
  -7  -7   9 2038.17 757.618   1
 -14   7   9 2737.61 644.790   2
  14  -7   9 901.650 728.540   3
 -14   7   9 2102.77 424.464   3
   7   7   9 1895.25 623.698   3
  -7  14   9 1845.22 529.858   3
  14  -7   9 1923.31 488.186   1
 -14   7   9 1369.48 420.875   4
   7 -14   9 1175.23 562.153   1
  -7  -7   9 2441.46 513.402   2
 -14   8  -7 3079.16 469.634   4
   8   6  -7 2602.51 269.476   4
 -14   8  -4 11677.6 710.882   4
  -6  -8  -4 11085.5 422.660   1
 -14   8  -4 11402.2 701.868   2
   8   6  -4 11021.7 645.392   2
  -8  14  -4 11113.8 535.504   4
   6 -14  -4 12219.0 595.207   1
   8   6  -4 11245.7 574.918   4
 -14   8  -1 64316.2 1469.43   2
  -8  14  -1 67640.4 1103.39   2
   6 -14  -1 61499.6 1401.36   3
  -6  -8  -1 68473.7 1478.95   1
  -6  -8  -1 63803.1 1513.87   2
  -6  -8  -1 69197.8 1645.33   4
   8   6  -1 67087.4 1266.41   3
  -6  -8  -1 64238.5 1495.34   3
  -8  14  -1 68448.5 1467.99   4
   8   6  -1 64733.5 1503.73   4
 -14   8  -1 67156.1 1597.90   4
   6 -14  -1 67476.9 1518.23   1
   8   6  -1 65448.5 1399.97   2
 -14   8  -1 61622.8 1518.92   1
  -6  -8   2 2467.74 380.364   4
 -14   8   2 2456.25 464.136   2
  14  -6   2 1925.77 386.130   3
  -6  -8   2 2666.51 374.085   2
  14  -6   2 2142.38 399.714   1
  -6  -8   2 2536.98 500.631   1
   8   6   2 2203.19 379.032   3
  -6  -8   2 2002.17 312.865   3
   6 -14   2 2133.93 483.845   1
  -8  14   2 1482.29 326.015   3
 -14   8   2 1681.91 366.687   4
  -8  14   2 1979.44 381.524   1
  14  -6   5 17353.4 1079.65   3
 -14   8   5 16496.3 988.720   2
   8   6   5 17612.8 1011.13   3
   6 -14   5 20028.2 1143.20   1
 -14   8   5 18078.2 538.349   3
  -8  14   5 17724.4 872.930   3
  -8  14   5 15112.2 748.359   1
  -6  -8   5 19423.2 1198.55   1
 -14   8   5 17736.2 912.250   4
  14  -6   5 18075.9 866.409   1
  -6  -8   5 16237.7 686.086   2
  -6  -8   5 17256.6 642.654   4
  -6  -8   8 4027.51 841.035   1
  14  -6   8 2731.72 723.270   3
 -14   8   8 4202.86 486.470   3
  -8  14   8 3546.87 560.912   3
  14  -6   8 4077.60 533.462   1
  -6  -8   8 3462.02 469.404   2
   6 -14   8 2801.07 226.074   2
   6 -14   8 3905.41 723.006   1
 -14   8   8 4039.88 568.925   4
 -14   8   8 3394.94 709.495   2
   8   6   8 4339.87 756.604   3
 -14   9  -8 5856.08 556.449   4
 -14   9  -5 23048.1 959.685   4
 -14   9  -5 25721.2 1051.30   2
  -9  14  -5 23624.0 737.082   4
   5 -14  -5 23542.8 722.691   1
   9   5  -5 22800.8 968.926   2
   9   5  -5 22189.7 765.586   4
  -9  14  -2 16412.1 730.589   4
 -14   9  -2 14663.9 749.422   2
   5 -14  -2 16405.4 747.069   1
  -5  -9  -2 16752.4 698.856   1
  -5  -9  -2 17548.3 886.278   2
   9   5  -2 15368.0 621.511   3
   9   5  -2 16329.0 767.313   4
   9   5  -2 15807.3 760.866   2
  -9  14  -2 15925.1 506.550   2
 -14   9  -2 15773.3 822.376   4
  -5  -9   1 14731.4 754.412   4
   9   5   1 13804.6 748.073   2
  14  -5   1 14639.0 627.518   3
   9   5   1 14774.9 673.762   3
   5 -14   1 15382.1 866.000   1
  -5  -9   1 13581.3 668.378   3
  -9  14   1 13105.8 769.762   1
  -9  14   1 15292.0 694.204   3
  -9  14   1 14029.3 772.326   4
  -9  14   1 14368.3 727.382   2
 -14   9   1 14907.4 806.806   4
  -5  -9   1 15175.2 867.498   1
 -14   9   1 13708.5 779.655   2
  -5  -9   1 14343.3 658.517   2
 -14   9   4 4306.51 575.951   2
  14  -5   4 4439.89 600.661   3
   5 -14   4 4082.76 611.051   1
   9   5   4 4270.08 532.046   3
  -5  -9   4 3555.56 350.539   2
  14  -5   4 3628.83 442.464   1
  -9  14   4 3827.14 443.109   3
 -14   9   4 4148.32 257.519   3
  -9  14   4 3817.43 469.751   1
 -14   9   4 3920.02 499.350   4
  -5  -9   4 4729.96 666.065   1
  14  -5   7 17283.4 1220.40   3
   9   5   7 20388.2 1248.37   3
 -14   9   7 17628.3 756.083   3
  -9  14   7 17320.0 970.799   3
  -9  14   7 13139.5 741.081   1
  -5  -9   7 15898.0 726.494   2
 -14   9   7 15371.9 906.963   4
   5 -14   7 18164.9 1225.49   1
  14  -5   7 16522.4 832.183   1
 -14   9   7 17278.8 1118.33   2
  -5  -9   7 17977.9 1284.01   1
  -5  -9  10 1481.42 653.442   3
  14  -5  10 488.738 621.588   3
  -5  -9  10 861.771 726.757   1
   9   5  10 1504.53 591.458   3
 -14   9  10 1771.10 463.368   3
  -9  14  10 2735.59 678.912   3
  -5  -9  10 1684.77 484.301   2
 -14   9  10 595.786 385.999   4
  -9  14  10 1481.64 541.549   4
 -14   9  10 684.032 557.607   2
  -9  14  10 1096.49 713.698   2
   5 -14  10 1758.38 779.132   1
 -14  10  -9 4416.97 460.659   4
 -14  10  -6 2389.91 372.299   4
 -10  14  -6 3147.59 331.360   4
  10   4  -6 3143.13 357.034   4
 -14  10  -3 3368.89 454.119   2
 -10  14  -3 4483.23 314.470   2
  10   4  -3 4118.24 461.330   2
   4 -14  -3 4778.16 433.692   1
  10   4  -3 4420.34 452.689   4
 -10  14  -3 4156.03 412.709   4
 -14  10  -3 4116.01 476.301   4
  -4 -10  -3 4761.91 373.727   1
  -4 -10   0 802.576 351.762   1
  10   4   0 126.117 292.433   2
  10   4   0 682.652 320.913   4
  -4 -10   0 535.854 258.636   3
  10   4   0 852.760 269.024   3
  -4 -10   0 751.141 312.750   2
   4 -14   0 743.323 360.449   1
 -10  14   0 1018.45 316.413   3
 -14  10   0 553.967 315.438   4
 -10  14   0 774.902 295.754   2
 -10  14   0 951.076 394.509   1
 -14  10   0 280.062 311.086   2
 -10  14   0 900.216 349.160   4
  14  -4   0 950.073 199.320   3
  14  -4   3 6862.62 569.293   1
  14  -4   3 7790.52 652.481   3
  -4 -10   3 6859.45 418.132   2
   4 -14   3 6710.82 680.206   1
  10   4   3 6378.00 563.864   3
 -10  14   3 6940.53 608.401   1
 -14  10   3 6425.06 286.684   3
 -10  14   3 8403.57 693.696   4
 -10  14   3 6758.46 647.282   2
 -14  10   3 8112.51 654.964   4
 -14  10   3 6236.71 627.482   2
  -4 -10   3 7261.35 713.103   1
 -10  14   3 6710.19 511.320   3
  10   4   6 678.715 506.957   3
  -4 -10   6 193.621 237.532   2
  14  -4   6 744.276 549.952   3
  14  -4   6 359.653 308.020   1
 -14  10   6 507.921 254.497   3
 -10  14   6 737.839 340.420   3
 -14  10   6 544.965 468.285   2
   4 -14   6 561.258 502.941   1
 -10  14   6 492.808 411.310   4
 -10  14   6 403.758 329.903   1
 -10  14   6 450.684 486.136   2
 -14  10   6 488.433 351.149   4
  -4 -10   6 1114.12 577.565   1
 -14  10   9 3318.17 586.692   4
  14  -4   9 4054.92 802.135   3
  -4 -10   9 4117.21 822.656   1
 -14  10   9 3629.60 490.429   3
  10   4   9 3427.05 696.630   3
 -10  14   9 2430.23 541.074   3
 -10  14   9 3634.25 650.415   4
   4 -14   9 3896.04 775.158   1
 -10  14   9 3856.52 838.897   2
 -14  10   9 3181.70 719.051   2
  -4 -10   9 3209.92 465.060   2
  14  -4   9 3228.98 449.997   1
  11   3  -7 1161.84 309.665   4
 -11  14  -7 1514.41 265.403   4
  11   3  -4 16006.1 745.456   4
   3 -14  -4 15911.1 613.326   1
 -14  11  -4 16086.0 787.635   2
 -14  11  -4 15380.3 793.497   4
 -11  14  -4 16359.0 566.985   2
 -11  14  -4 16702.5 726.623   4
  -3 -11  -4 17366.2 508.461   1
  11   3  -1 7697.56 585.842   2
  14  -3  -1 7427.54 243.250   3
   3 -14  -1 8678.60 610.821   1
  11   3  -1 8271.51 442.114   3
  11   3  -1 8012.02 611.605   4
 -11  14  -1 7964.91 586.830   4
 -11  14  -1 8801.36 513.479   2
 -14  11  -1 8283.45 577.886   2
 -14  11  -1 8534.86 650.050   4
  -3 -11  -1 7880.76 602.033   1
 -14  11   2 9306.99 684.667   4
  -3 -11   2 9864.61 776.159   1
   3 -14   2 9604.80 757.080   1
  14  -3   2 9026.14 584.111   3
  11   3   2 9037.02 596.758   3
 -14  11   2 9383.99 707.442   2
  -3 -11   2 9845.51 483.579   2
 -11  14   2 9301.32 669.210   2
 -11  14   2 9899.66 571.067   3
 -11  14   2 10223.2 703.966   4
 -11  14   2 9974.13 722.219   1
  -3 -11   5 5255.36 339.282   2
  14  -3   5 6164.09 705.484   3
  11   3   5 5788.69 670.682   3
 -11  14   5 6377.04 535.289   3
 -14  11   5 5899.91 412.557   3
 -11  14   5 5012.28 586.177   4
 -11  14   5 6181.23 729.173   2
 -14  11   5 6040.29 609.321   4
 -14  11   5 5212.37 678.137   2
   3 -14   5 5661.60 748.332   1
  -3 -11   5 6372.59 771.640   1
 -11  14   5 4381.38 531.398   1
  14  -3   5 6085.95 522.165   1
  -3 -11   8 2148.62 337.765   2
  14  -3   8 4233.92 797.531   3
  -3 -11   8 2862.06 708.784   1
  11   3   8 2922.89 677.196   3
 -14  11   8 2372.94 486.886   4
 -14  11   8 2271.49 421.176   3
 -11  14   8 2190.82 487.543   3
   3 -14   8 2558.57 660.873   1
 -11  14   8 3284.88 733.940   2
 -11  14   8 3219.09 569.085   4
 -14  11   8 2988.52 685.913   2
  14  -3   8 2634.66 392.381   1
 -14  12  -8 14094.2 716.729   4
 -12  14  -8 12680.0 537.087   4
   2 -14  -5 35472.8 754.750   1
 -14  12  -5 36713.5 1163.70   2
 -14  12  -5 35363.6 1134.57   4
  12   2  -5 32852.7 1051.94   4
 -12  14  -5 37191.2 1067.32   4
 -12  14  -5 36521.0 932.424   2
  -2 -12  -2 14547.5 687.780   1
 -12  14  -2 14816.9 753.140   4
   2 -14  -2 14868.7 700.649   1
 -14  12  -2 14791.0 791.641   4
  12   2  -2 15256.9 520.054   3
  12   2  -2 14472.8 788.705   4
 -14  12  -2 14082.4 703.965   2
 -12  14  -2 14789.5 625.994   2
   2 -14   1 26554.4 1137.31   1
 -12  14   1 23492.8 792.723   3
  14  -2   1 23893.9 761.095   3
  12   2   1 24293.8 824.233   3
 -12  14   1 24468.8 951.444   2
  -2 -12   1 23185.9 766.300   2
 -12  14   1 24991.4 1029.05   4
 -14  12   1 23779.6 1006.49   4
 -14  12   1 22433.2 968.658   2
  -2 -12   1 24756.3 1108.55   1
  14  -2   4 9653.24 766.991   3
  12   2   4 8636.91 750.194   3
  -2 -12   4 6893.37 331.172   2
 -12  14   4 9390.80 575.259   3
 -14  12   4 8382.90 454.526   3
 -12  14   4 8364.19 689.830   4
 -14  12   4 9125.76 714.262   4
 -14  12   4 8533.38 741.308   2
   2 -14   4 9145.45 837.097   1
  -2 -12   4 9662.17 872.265   1
 -12  14   4 8254.66 743.229   2
   2 -14   7 15354.3 1162.21   1
  14  -2   7 15628.9 1201.14   3
  12   2   7 14835.6 1142.02   3
 -14  12   7 14668.8 755.037   3
 -12  14   7 14587.6 830.668   3
 -14  12   7 13932.3 916.594   4
 -14  12   7 15276.3 1089.48   2
 -12  14   7 13946.3 964.748   4
 -12  14   7 15018.2 1134.79   2
  -2 -12   7 17769.6 1280.97   1
  -2 -12   7 11116.9 466.864   2
  -2 -12  10 6688.54 1046.46   1
   2 -14  10 6034.13 968.662   1
 -14  12  10 7198.15 726.568   3
 -12  14  10 7444.51 785.455   3
  12   2  10 6224.52 938.676   3
 -12  14  10 8471.83 1090.28   2
 -12  14  10 5048.29 714.694   4
 -14  12  10 5166.29 686.058   4
 -14  12  10 5305.64 886.817   2
  14  -2  10 6506.24 1022.70   3
 -14  13  -9 3021.14 385.792   4
 -13  14  -6 1230.67 329.191   4
 -14  13  -6 1542.09 401.876   2
  13   1  -6 935.874 345.470   4
 -14  13  -6 491.204 284.953   4
 -13  14  -3 11178.4 589.350   2
 -14  13  -3 11273.2 631.937   2
   1 -14  -3 10824.6 573.129   1
  -1 -13  -3 10886.9 551.741   1
 -14  13  -3 10422.7 671.466   4
 -13  14  -3 10870.0 664.523   4
  -1 -13   0 4382.69 542.480   1
   1 -14   0 3903.50 519.303   1
 -14  13   0 4006.63 482.071   4
  13   1   0 4173.33 348.908   3
  14  -1   0 4128.09 309.908   3
 -13  14   0 3859.44 483.615   4
 -13  14   0 4172.34 453.469   2
 -14  13   0 4002.37 464.762   2
 -13  14   3 13232.4 848.071   2
  14  -1   3 14898.2 810.654   3
  13   1   3 13115.7 788.032   3
 -13  14   3 14235.0 841.017   4
  -1 -13   3 13793.7 960.135   1
 -13  14   3 13784.2 639.783   3
  -1 -13   3 10896.4 400.141   2
 -14  13   3 14082.8 567.766   3
 -14  13   3 14239.1 847.191   4
   1 -14   3 14374.7 988.823   1
 -14  13   3 12942.7 837.239   2
 -14  13   6 513.790 447.300   2
  14  -1   6 1694.06 557.998   3
  13   1   6 1620.06 539.913   3
  -1 -13   6 1348.98 552.272   1
 -14  13   6 1012.04 310.926   3
 -13  14   6 1957.98 375.758   3
  -1 -13   6 597.387 115.810   2
 -13  14   6 825.578 396.820   4
 -14  13   6 1138.92 420.861   4
 -13  14   6 459.631 485.479   2
   1 -14   6 915.051 556.217   1
  -1 -13   9 6750.71 999.653   1
   1 -14   9 6927.96 980.179   1
 -14  13   9 6057.67 721.938   4
  14  -1   9 7551.36 985.598   3
  13   1   9 6862.45 975.974   3
 -14  13   9 6591.35 647.908   3
 -13  14   9 6014.69 687.851   3
 -13  14   9 6779.37 763.700   4
 -13  14   9 9549.05 1076.88   2
 -14  13   9 6016.41 912.605   2
 -14  14  -7-85.6742 272.693   4
   0 -14  -4 1946.27 297.997   1
 -14  14  -4 1675.60 358.658   2
 -14  14  -4 1720.79 387.422   4
 -14  14  -1-62.4498 289.731   2
 -14  14  -1 302.696 325.964   4
   0 -14  -1-222.096 333.710   1
  14   0  -1 140.943 177.271   3
   0 -14   2 11553.4 868.423   1
 -14  14   2 11324.2 534.523   3
  14   0   2 9869.02 612.271   3
 -14  14   2 10449.6 738.660   2
 -14  14   2 11527.3 783.658   4
  14   0   5 514.901 453.467   3
 -14  14   5-294.549 416.647   2
   0 -14   5 88.3722 466.391   1
 -14  14   5-60.3070 254.408   3
 -14  14   5 197.133 362.426   4
   0 -14   8 4825.76 836.733   1
  14   0   8 3801.38 743.448   3
 -14  14   8 4133.54 524.160   3
 -14  14   8 4210.79 779.701   2
 -14  14   8 3576.34 604.199   4
   0  15  -6 8684.79 365.107   4
 -15   0  -6 9395.23 648.659   1
   0  15  -6 10400.9 425.784   4
 -15   0  -6 11202.5 886.571   4
 -15   0  -3 80.3899 275.218   1
   0  15  -3 419.908 296.986   4
  15 -15  -3-174.456 369.506   1
   0  15  -3-195.109 122.905   2
  15 -15  -3-157.431 245.241   3
 -15   0  -3 158.068 393.085   2
 -15   0  -3 203.991 401.651   4
 -15   0   0 32009.7 1216.83   2
   0  15   0 33739.0 1013.16   2
  15 -15   0 30937.2 916.970   3
   0  15   0 31010.8 1109.59   3
  15 -15   0 32865.1 1266.07   1
 -15   0   0 32242.9 1258.70   4
 -15   0   3-705.868 411.332   2
  15 -15   3 138.501 270.277   2
 -15   0   3 55.2373 123.959   3
   0  15   3-438.847 323.346   3
   0  15   3-256.049 297.874   1
 -15   0   3-151.249 374.063   4
  15 -15   3-163.476 390.686   1
 -15   0   6 21653.4 802.758   3
   0  15   6 24146.8 1254.41   3
 -15   0   6 20847.4 622.221   3
 -15   0   6 22456.3 1186.42   2
 -15   0   6 25584.8 1149.12   4
  15 -15   6 20034.0 852.424   2
  15 -15   6 23148.8 1261.43   1
 -15   0   9-533.104 377.488   3
   0  15   9-1037.92 614.406   3
 -15   0   9 196.957 639.158   1
  15 -15   9-881.931 698.255   3
  15 -15   9 137.348 591.812   1
 -15   0   9 153.193 353.179   4
 -15   0   9-486.800 474.172   2
 -15   1  -7 12658.4 1013.86   2
 -15   1  -7 11214.0 907.005   4
 -14  -1  -7 11178.5 907.620   4
 -15   1  -4 15204.4 778.696   1
  15 -14  -4 14097.4 672.950   3
  14 -15  -4 15567.2 881.623   1
  14 -15  -4 15802.1 776.286   3
 -14  -1  -4 15649.5 733.084   1
 -15   1  -4 15938.0 966.828   2
   1  14  -4 16982.8 708.914   4
 -14  -1  -4 15278.0 953.321   2
 -15   1  -4 16183.8 990.562   4
  -1  15  -4 17028.7 705.830   4
 -14  -1  -4 18159.0 1042.13   4
 -15   1  -1 21858.8 859.581   3
 -14  -1  -1 20524.0 843.773   3
   1  14  -1 24138.8 766.245   2
 -15   1  -1 22073.1 1027.81   2
 -14  -1  -1 23325.9 1057.53   2
  -1  15  -1 24440.1 734.934   2
  14 -15  -1 22572.4 802.933   3
  15 -14  -1 21460.4 721.557   3
   1  14  -1 22276.3 939.132   3
  -1  15  -1 22962.4 961.700   3
  14 -15  -1 21777.9 1008.50   1
  15 -14  -1 23073.4 1048.15   1
 -15   1  -1 24252.3 1114.59   4
 -14  -1  -1 22985.7 1095.45   4
 -14  -1   2 11755.2 771.760   2
  14 -15   2 11145.6 811.371   1
  -1  15   2 11351.0 711.539   1
 -14  -1   2 10361.9 446.196   3
  14 -15   2 10467.7 615.990   2
   1  14   2 11264.0 725.271   3
  -1  15   2 10365.6 706.544   3
  15 -14   2 12028.9 816.375   1
 -15   1   2 11603.9 775.766   4
 -14  -1   2 12021.3 786.757   4
 -15   1   2 10985.4 768.200   2
   1  14   2 11450.3 683.546   1
  15 -14   2 10617.6 658.956   2
 -15   1   5 14763.1 544.650   3
 -15   1   5 17539.8 1028.09   2
   1  14   5 17485.0 1016.50   3
  -1  15   5 18186.9 1027.82   3
 -15   1   5 14275.1 430.676   3
 -14  -1   5 15224.7 528.115   3
  14 -15   5 15256.5 848.038   4
  14 -15   5 17171.8 1073.25   1
  14 -15   5 14776.1 683.205   2
 -15   1   5 18471.8 953.451   4
 -14  -1   5 18626.7 938.786   4
  15 -14   5 15592.5 775.476   2
 -14  -1   5 17195.4 970.208   2
  15 -14   5 17495.0 1042.35   1
 -15   1   8 4018.61 481.128   3
 -14  -1   8 4910.55 878.279   1
 -14  -1   8 4346.30 565.645   3
  -1  15   8 5059.78 739.626   3
   1  14   8 3672.98 722.012   3
  14 -15   8 3205.17 705.245   1
 -15   1   8 4516.85 571.144   4
  15 -14   8 5866.60 1016.41   3
  15 -14   8 4420.00 729.435   1
 -15   1   8 4840.48 728.836   2
 -14  -1   8 3917.62 518.170   4
 -14  -1   8 3916.96 648.578   2
 -15   2  -8 2019.52 515.424   4
  15 -13  -5 1642.20 329.710   3
 -15   2  -5 1611.53 420.552   1
   2  13  -5 2070.91 279.697   4
 -13  -2  -5 2553.52 556.069   4
 -15   2  -5 2144.91 533.052   2
 -13  -2  -5 1593.29 347.963   1
 -13  -2  -5 1974.76 526.869   2
  -2  15  -5 1713.56 269.734   4
 -15   2  -5 2508.74 510.859   4
  -2  15  -2 3427.09 244.006   2
  -2  15  -2 3423.87 412.620   4
 -15   2  -2 3192.19 487.435   4
 -15   2  -2 2997.56 437.089   3
   2  13  -2 2865.60 421.433   3
 -13  -2  -2 2398.87 428.268   3
 -13  -2  -2 3082.40 399.065   1
  15 -13  -2 2702.08 297.494   3
  13 -15  -2 2629.16 349.853   3
 -13  -2  -2 2478.34 483.618   2
  -2  15  -2 3310.14 455.061   3
  15 -13  -2 2727.61 475.020   1
   2  13  -2 3789.66 342.096   2
  13 -15  -2 2912.70 470.047   1
 -15   2  -2 2736.63 441.869   2
 -13  -2  -2 3638.64 547.752   4
   2  13  -2 3488.12 422.983   4
 -15   2   1 23518.2 1036.53   2
 -15   2   1 17138.5 492.689   3
 -15   2   1 24056.3 1064.71   4
 -13  -2   1 23100.1 1008.71   2
  13 -15   1 22979.3 1066.34   1
 -13  -2   1 24760.8 1057.59   4
 -13  -2   1 20209.3 691.917   3
   2  13   1 23793.9 947.311   2
  -2  15   1 23909.3 930.543   2
   2  13   1 22173.3 923.805   3
  -2  15   1 22974.8 949.036   3
  13 -15   1 20494.9 800.497   3
  15 -13   1 22320.5 780.727   3
  15 -13   1 24187.7 1072.77   1
  13 -15   1 21960.0 871.247   2
  15 -13   1 20969.3 924.852   2
  -2  15   1 21394.0 971.364   1
  15 -13   4 9726.40 773.804   1
  15 -13   4 8458.49 609.540   2
   2  13   4 8439.20 697.609   3
  -2  15   4 9001.62 707.997   3
 -13  -2   4 8821.90 417.947   3
  -2  15   4 9467.93 560.640   1
  13 -15   4 7754.47 475.132   2
 -15   2   4 9935.87 717.541   4
  13 -15   4 10042.0 837.498   1
 -15   2   4 9224.54 730.289   2
 -13  -2   4 10299.9 703.567   4
 -13  -2   4 8980.40 676.217   2
 -13  -2   7 10578.8 750.762   3
 -15   2   7 9715.26 592.563   3
 -15   2   7 9482.02 754.581   4
   2  13   7 10094.7 918.130   3
  -2  15   7 10049.1 885.435   3
 -13  -2   7 9474.08 796.831   2
  13 -15   7 8943.48 916.850   1
  15 -13   7 12753.2 1202.32   3
 -15   2   7 8985.43 835.454   2
 -13  -2   7 8476.06 655.394   4
 -13  -2   7 11161.4 1035.80   1
  15 -13   7 9017.83 850.528   1
  15 -13  10 1003.71 596.638   1
 -13  -2  10 1162.33 584.136   3
 -15   2  10 465.981 513.508   2
  13 -15  10 761.414 848.954   3
 -15   2  10-353.066 655.578   1
   2  13  10 117.979 536.078   3
  -2  15  10 467.715 550.972   3
  13 -15  10 244.496 602.738   1
  15 -13  10-789.100 802.452   3
 -13  -2  10 221.858 434.477   2
 -13  -2  10-63.5051 621.465   1
 -15   3  -9 303.836 369.988   4
  -3  15  -6 5615.81 244.743   4
  15 -12  -6 7672.75 597.521   3
 -12  -3  -6 6830.13 417.759   1
 -15   3  -6 7855.03 649.982   1
   3  12  -6 7119.32 331.289   4
 -15   3  -6 8683.03 803.246   2
  -3  15  -6 6785.98 270.522   4
 -15   3  -6 9026.80 780.109   4
 -12  -3  -6 10186.0 853.885   4
 -12  -3  -3 638.512 381.280   4
 -12  -3  -3 600.346 264.842   1
  15 -12  -3 443.808 205.431   3
 -15   3  -3 432.685 299.466   1
  12 -15  -3 502.929 277.884   3
 -15   3  -3 714.372 397.292   2
  12 -15  -3 503.245 341.146   1
   3  12  -3 446.974 255.467   4
 -12  -3  -3 428.577 350.578   2
   3  12  -3 355.183 214.689   2
 -15   3  -3 668.345 401.166   4
  12 -15   0 12629.4 797.095   1
 -12  -3   0 11858.7 739.233   2
   3  12   0 12158.8 637.635   2
 -12  -3   0 11245.5 607.024   3
 -15   3   0 11578.2 751.115   2
  -3  15   0 12598.9 592.541   2
  12 -15   0 11463.7 612.377   3
   3  12   0 12007.0 672.454   3
  15 -12   0 11926.7 504.743   3
  -3  15   0 12569.3 708.085   3
  -3  15   0 10573.0 760.293   1
 -15   3   0 12147.0 789.608   4
 -12  -3   0 13600.6 820.885   4
  15 -12   0 11018.9 744.506   1
 -15   3   3 8229.71 657.758   4
  12 -15   3 7939.26 739.278   1
  -3  15   3 7302.38 545.765   1
  15 -12   3 8794.87 716.350   1
   3  12   3 8095.88 661.361   3
 -12  -3   3 6687.90 405.317   3
  12 -15   3 6613.04 425.462   2
 -12  -3   3 7782.66 616.067   4
  -3  15   3 8191.44 650.889   3
  15 -12   3 7626.97 588.615   2
 -15   3   3 7469.82 654.703   2
 -12  -3   3 7605.20 639.282   2
  15 -12   6 2896.55 719.831   3
 -15   3   6 2271.86 479.347   4
  12 -15   6 1760.05 516.600   1
   3  12   6 1489.75 515.186   3
  -3  15   6 1738.65 452.450   3
 -15   3   6 1746.05 216.230   3
 -12  -3   6 1880.37 465.953   2
 -12  -3   6 1774.39 296.208   3
  15 -12   6 1863.53 504.929   1
  -3  15   6 1441.99 216.074   1
 -12  -3   6 2174.22 426.535   4
 -15   3   6 2228.84 287.359   3
 -15   3   6 2091.45 534.846   2
  12 -15   6 1678.21 293.865   2
 -12  -3   9 854.098 497.020   3
  15 -12   9 1221.73 727.904   3
 -15   3   9 357.049 338.253   3
  12 -15   9 1320.85 656.752   1
   3  12   9 1369.66 603.063   3
  -3  15   9 1077.67 510.828   3
 -15   3   9 407.151 487.427   2
 -15   3   9 1200.35 444.986   4
 -12  -3   9 1396.72 501.934   2
  15 -12   9 672.293 517.147   1
 -12  -3   9 1405.48 677.780   1
 -15   4  -7 15011.8 1050.89   2
 -15   4  -7 14864.7 924.407   4
  15 -11  -4 16798.8 586.017   3
  -4  15  -4 21963.3 760.883   4
 -15   4  -4 18273.9 981.149   2
   4  11  -4 17231.2 608.208   2
 -11  -4  -4 19026.7 1042.02   2
  11 -15  -4 20419.0 899.366   1
 -11  -4  -4 19802.5 689.297   1
 -15   4  -4 16831.0 856.540   1
 -15   4  -4 19172.2 1012.31   4
   4  11  -4 19153.6 713.582   4
 -11  -4  -4 20879.1 1096.37   4
 -11  -4  -1 6336.47 616.875   4
 -15   4  -1 6329.37 599.329   2
 -11  -4  -1 5589.53 506.625   3
  15 -11  -1 6552.72 614.225   1
  11 -15  -1 5717.85 546.111   1
 -11  -4  -1 5990.67 564.557   2
  11 -15  -1 4958.82 441.682   3
  -4  15  -1 6720.08 385.967   2
  15 -11  -1 6562.98 337.046   3
   4  11  -1 5703.45 503.183   3
  -4  15  -1 5946.05 539.994   3
 -15   4  -1 6043.46 617.928   4
   4  11  -1 5846.52 442.215   2
   4  11  -1 5848.46 519.001   4
  11 -15   2 10281.3 796.960   1
 -11  -4   2 9703.29 495.906   3
  11 -15   2 9143.79 491.270   2
   4  11   2 9368.71 641.253   3
 -15   4   2 11211.7 746.844   4
  -4  15   2 10462.4 664.607   3
  15 -11   2 10625.5 735.129   1
 -15   4   2 9410.45 702.710   2
 -11  -4   2 10109.3 677.681   2
  15 -11   2 9881.91 659.955   2
 -11  -4   2 10928.3 712.323   4
  -4  15   2 9405.03 632.844   1
 -15   4   5 31418.6 1328.50   2
  15 -11   5 31810.5 1268.46   1
   4  11   5 30198.8 1292.46   3
 -15   4   5 33230.6 1247.58   4
  -4  15   5 31236.7 1229.41   3
 -11  -4   5 27206.6 837.663   3
 -15   4   5 25047.5 453.914   3
 -11  -4   5 31868.9 1075.08   4
  11 -15   5 32032.4 1398.24   1
  11 -15   5 25634.4 650.363   2
  -4  15   5 29852.7 884.662   1
 -11  -4   5 30745.7 1149.03   2
 -11  -4   8 7926.37 785.313   3
  15 -11   8 8098.17 1094.17   3
 -11  -4   8 8332.39 1031.03   1
  15 -11   8 6310.10 744.765   1
 -15   4   8 8402.77 610.104   3
   4  11   8 6961.98 882.571   3
 -11  -4   8 6880.09 676.216   2
  11 -15   8 6618.38 844.339   1
 -15   4   8 6364.90 810.594   2
 -11  -4   8 5165.07 431.630   4
 -15   4   8 7330.46 694.245   4
  -4  15   8 7485.95 836.928   3
 -15   5  -8 1833.08 430.083   4
 -10  -5  -5 19552.1 1063.83   4
 -15   5  -5 18082.0 998.774   2
 -10  -5  -5 17544.5 1055.66   2
 -15   5  -5 15162.4 839.827   1
  -5  15  -5 18263.1 585.317   4
   5  10  -5 16530.6 608.750   4
 -10  -5  -5 18287.6 562.688   1
 -15   5  -5 17267.6 950.123   4
 -15   5  -2 15518.7 828.481   2
 -10  -5  -2 13602.4 787.034   3
  15 -10  -2 12886.7 389.158   3
   5  10  -2 15431.7 750.719   4
  10 -15  -2 15102.8 722.523   3
 -10  -5  -2 16930.8 908.556   2
  10 -15  -2 16624.9 810.155   1
   5  10  -2 14632.8 734.822   3
  -5  15  -2 13147.8 369.076   2
 -15   5  -2 15912.8 882.940   4
   5  10  -2 17018.2 691.747   2
 -10  -5  -2 17523.7 933.138   4
  -5  15   1 47928.3 1392.39   1
  15 -10   1 50963.1 1447.74   1
 -10  -5   1 49477.9 1327.80   2
   5  10   1 48803.2 1342.78   2
 -10  -5   1 46514.2 1124.16   3
  10 -15   1 49721.7 1491.06   1
   5  10   1 48226.3 1272.38   3
  -5  15   1 47717.4 1292.02   3
 -15   5   1 51021.5 1473.65   4
 -10  -5   1 50729.1 1425.34   4
 -15   5   1 48342.7 1405.37   2
  15 -10   1 45822.3 1321.19   2
  15 -10   4 19336.8 1098.02   3
  -5  15   4 16485.2 744.074   1
 -15   5   4 17668.0 987.413   2
   5  10   4 18039.7 948.288   3
  -5  15   4 18138.3 898.149   3
  15 -10   4 18150.5 938.357   1
 -15   5   4 19635.0 969.776   4
 -10  -5   4 16076.7 651.175   3
  10 -15   4 19626.1 1070.90   1
 -10  -5   4 18398.0 841.449   2
 -10  -5   4 18956.7 839.975   4
  10 -15   7 2935.96 666.236   1
  15 -10   7 3102.40 736.347   3
 -15   5   7 3675.32 382.909   3
  15 -10   7 3496.94 556.704   1
   5  10   7 3312.66 633.857   3
  -5  15   7 3117.85 569.346   3
 -10  -5   7 3352.22 510.033   2
 -10  -5   7 4550.11 841.181   1
 -15   5   7 3576.56 556.344   4
  10 -15   7 2524.84 252.172   2
 -10  -5   7 2933.45 383.913   4
 -15   5   7 3826.91 668.676   2
  -5  15   7 2465.66 273.133   1
 -15   5  10 1768.91 646.214   2
 -10  -5  10 4294.77 926.428   1
  10 -15  10 2173.75 733.610   1
  10 -15  10 2014.47 874.494   3
 -15   5  10 1633.27 458.278   4
  15 -10  10 2235.35 782.601   3
  15 -10  10 2363.09 617.648   1
 -15   5  10 1628.50 408.150   3
   5  10  10 2476.77 715.952   3
  -5  15  10 2916.77 670.370   3
 -10  -5  10 2764.74 713.189   3
 -15   5  10 1626.90 572.549   1
 -10  -5  10 1567.30 527.906   2
 -15   6  -9 164.652 348.663   4
 -15   6  -6 6846.29 715.811   2
 -15   6  -6 7312.69 677.651   4
   6   9  -6 6167.29 360.201   4
  -6  15  -6 5445.56 283.101   4
  -6  15  -6 4904.70 271.522   4
  -9  -6  -3 2091.40 464.011   4
 -15   6  -3 1848.68 437.748   2
   9 -15  -3 2663.00 402.455   1
  -9  -6  -3 2515.82 494.151   2
  -6  15  -3 3017.74 368.781   4
   6   9  -3 1804.61 300.544   4
 -15   6  -3 2298.60 412.606   4
   6   9  -3 2718.52 348.350   2
   6   9   0 7698.47 549.502   2
  -6  15   0 7617.96 656.507   1
  -9  -6   0 6950.90 539.292   3
   6   9   0 7872.44 622.328   4
   9 -15   0 7197.50 525.573   3
   6   9   0 7632.32 528.222   3
   9 -15   0 8861.94 707.960   1
  -6  15   0 7802.01 571.815   3
  15  -9   0 7836.25 357.068   3
  15  -9   0 8350.07 638.987   1
 -15   6   0 7932.91 644.036   4
  -9  -6   0 7517.66 599.597   2
  -9  -6   0 8156.16 657.447   4
 -15   6   0 6918.06 602.853   2
  15  -9   3 5560.90 617.455   3
  -6  15   3 5260.97 492.895   1
   6   9   3 5016.91 525.828   3
  -9  -6   3 5580.12 517.280   2
  -6  15   3 5954.20 524.528   3
  -9  -6   3 4107.68 361.752   3
  15  -9   3 5432.01 542.631   1
   9 -15   3 5220.16 623.119   1
  -9  -6   3 5829.07 680.475   1
 -15   6   3 5612.20 565.373   4
 -15   6   3 5392.03 606.980   2
  -9  -6   3 5567.26 519.861   4
  -6  15   6 5776.23 470.611   1
 -15   6   6 7037.88 391.335   3
   6   9   6 6372.48 742.537   3
  -6  15   6 6667.34 667.356   3
  15  -9   6 6253.53 636.024   1
   9 -15   6 4961.44 706.758   1
  -9  -6   6 6551.16 476.924   4
  -9  -6   6 7667.55 905.057   1
 -15   6   6 7145.76 642.158   4
  -9  -6   6 6214.93 561.804   2
 -15   6   6 6367.68 726.093   2
  15  -9   6 7406.43 884.271   3
  -9  -6   9 2335.00 740.867   1
  -9  -6   9 1253.45 582.392   3
  15  -9   9 92.9142 657.251   3
 -15   6   9 1813.34 405.926   3
   6   9   9 2361.01 699.574   3
  -6  15   9 780.892 522.211   3
 -15   6   9 1089.51 471.393   4
  15  -9   9 1548.52 508.002   1
 -15   6   9 440.101 531.431   2
   9 -15   9 1952.84 644.486   1
  -9  -6   9 1191.92 406.149   2
 -15   7  -7 6891.48 645.665   4
 -15   7  -7 8321.79 788.915   2
  -8  -7  -4 15764.4 509.634   1
  -8  -7  -4 16719.4 964.844   4
 -15   7  -4 16578.8 892.095   2
  -8  -7  -4 17011.1 984.432   2
   7   8  -4 15525.2 672.287   4
  -8  -7  -4 15954.5 578.917   1
   7   8  -4 14855.4 710.445   2
  -7  15  -4 15582.5 646.472   4
 -15   7  -4 16759.7 889.380   4
   8 -15  -4 17313.0 757.763   1
 -15   7  -1 40198.0 1248.48   2
  -7  15  -1 44550.7 910.107   2
  -8  -7  -1 38778.0 1208.75   3
  -8  -7  -1 43593.1 1305.09   2
   8 -15  -1 36560.6 1104.06   3
  15  -8  -1 37422.1 529.017   3
   7   8  -1 41999.4 1102.00   3
   7   8  -1 41647.5 1243.39   4
  -8  -7  -1 43685.7 1367.07   4
  -7  15  -1 41613.7 1211.41   3
 -15   7  -1 42248.4 1341.37   4
   8 -15  -1 42310.0 1278.99   1
   7   8  -1 42026.9 1141.11   2
  15  -8   2 20391.5 911.837   3
  -7  15   2 19614.4 887.784   1
  15  -8   2 21262.8 952.240   1
   7   8   2 20878.4 890.052   3
  -8  -7   2 18217.9 719.709   3
   8 -15   2 21080.2 1039.54   1
  -8  -7   2 20091.9 807.638   2
  -8  -7   2 21971.0 1113.88   1
  -7  15   2 22603.0 906.836   3
 -15   7   2 21563.8 984.162   4
 -15   7   2 18305.8 922.876   2
  -8  -7   2 21118.7 894.340   4
  -8  -7   5 15079.4 1083.85   1
  15  -8   5 14367.1 1040.25   3
   7   8   5 13620.3 937.314   3
 -15   7   5 11768.2 371.039   3
  -7  15   5 11932.4 650.341   1
  -7  15   5 12962.9 782.936   3
   8 -15   5 13564.0 983.303   1
  15  -8   5 14179.5 823.508   1
 -15   7   5 14882.9 865.286   4
 -15   7   5 13402.8 917.117   2
  -8  -7   5 12739.4 677.317   2
  -8  -7   5 14456.8 672.901   4
  15  -8   8 7665.25 1007.87   3
 -15   7   8 6455.27 543.375   3
   7   8   8 5221.29 755.136   3
  -7  15   8 7029.29 752.603   3
   8 -15   8 5519.70 796.766   1
  15  -8   8 6599.64 651.299   1
   8 -15   8 3786.37 241.259   2
 -15   7   8 6522.01 813.351   2
 -15   7   8 7022.56 718.067   4
  -8  -7   8 6814.19 953.698   1
  -8  -7   8 5690.24 602.898   2
 -15   8  -8 4716.46 544.446   4
   8   7  -5 11342.7 675.292   2
 -15   8  -5 11937.4 764.109   4
  -8  15  -5 11903.6 528.018   4
   7 -15  -5 12309.0 612.085   1
   8   7  -5 11619.6 559.775   4
 -15   8  -5 13356.9 854.650   2
  -7  -8  -2 20284.6 1008.08   4
   7 -15  -2 21739.1 890.174   1
 -15   8  -2 19348.3 884.618   2
   8   7  -2 21309.1 845.423   2
  -7  -8  -2 20535.9 981.662   2
   8   7  -2 19248.3 757.772   3
  -8  15  -2 20399.4 823.115   4
  -7  -8  -2 22007.5 834.887   1
 -15   8  -2 20439.7 949.823   4
   8   7  -2 20273.3 859.397   4
  -8  15  -2 20449.9 517.293   2
  15  -7   1 40521.4 1064.70   3
   8   7   1 38896.5 1221.16   2
  -7  -8   1 40869.8 1135.60   2
  -7  -8   1 37861.8 1072.44   3
   8   7   1 41304.1 1142.36   3
  -8  15   1 37999.8 1256.46   1
  -8  15   1 42701.0 1180.15   3
   7 -15   1 42814.6 1379.03   1
  -8  15   1 42571.0 1198.57   2
  -7  -8   1 43556.4 1427.57   1
 -15   8   1 40639.3 1286.12   2
 -15   8   1 41767.9 1322.78   4
  15  -7   1 41627.5 1286.26   1
  -7  -8   1 42369.5 1261.19   4
  15  -7   4 17295.1 879.352   1
  -7  -8   4 16156.4 711.485   2
  15  -7   4 16468.1 1008.40   3
  -7  -8   4 17044.3 749.412   4
   8   7   4 17766.5 955.125   3
   7 -15   4 16906.3 1038.25   1
  -8  15   4 16168.5 822.605   3
  -8  15   4 15580.2 773.447   1
  -7  -8   4 18909.9 1144.34   1
 -15   8   4 17435.8 927.735   4
 -15   8   4 16349.4 972.369   2
   8   7   7 7129.82 843.092   3
 -15   8   7 8877.99 530.194   3
   7 -15   7 7458.54 851.575   1
  -8  15   7 5855.50 521.751   1
  -7  -8   7 7502.41 577.248   2
  15  -7   7 6566.51 652.797   1
 -15   8   7 7931.59 727.035   4
 -15   8   7 8118.49 852.601   2
  15  -7   7 8251.60 937.858   3
  -8  15   7 7156.71 700.165   3
  -7  -8   7 8741.37 991.232   1
  -7  -8  10 7829.13 741.542   2
  15  -7  10 9843.75 1225.16   3
   8   7  10 8503.07 1011.37   3
 -15   8  10 9041.69 753.257   3
  -8  15  10 8013.75 869.127   3
   7 -15  10 6925.91 944.745   1
  -7  -8  10 8468.50 1012.89   3
  -8  15  10 9254.46 963.796   4
  15  -7  10 5537.48 615.294   1
 -15   8  10 6633.65 730.573   4
 -15   8  10 7003.66 916.097   2
  -7  -8  10 9760.00 1222.77   1
 -15   9  -9 1103.70 360.896   4
 -15   9  -6 6865.65 671.045   2
 -15   9  -6 6706.34 592.155   4
   9   6  -6 5322.39 399.242   4
  -9  15  -6 5937.34 376.101   4
   6 -15  -3 4798.13 453.145   1
 -15   9  -3 4397.61 486.562   2
  -9  15  -3 4278.57 237.857   2
   9   6  -3 5354.10 491.702   2
  -9  15  -3 5213.38 440.688   4
  -6  -9  -3 5167.08 413.590   1
   9   6  -3 5000.01 461.625   4
 -15   9  -3 5059.79 521.047   4
  -6  -9   0 8148.67 636.885   4
  15  -6   0 7237.41 372.867   3
   9   6   0 7175.11 565.601   2
  -6  -9   0 7654.06 581.906   2
   9   6   0 8139.41 510.239   3
  -9  15   0 8425.14 532.082   2
   6 -15   0 8191.83 665.618   1
  -9  15   0 8343.80 568.317   3
  -9  15   0 8491.41 617.102   4
 -15   9   0 8382.74 665.468   4
  -6  -9   0 7451.23 535.535   3
  -6  -9   0 7795.05 636.344   1
 -15   9   0 7720.94 592.700   2
  -6  -9   3 2076.10 525.610   1
  -9  15   3 2038.03 425.178   1
  15  -6   3 2892.37 489.022   3
  -6  -9   3 2808.51 370.411   2
  -6  -9   3 2397.70 376.083   4
   9   6   3 2654.89 424.675   3
  -9  15   3 2616.68 393.124   3
  -6  -9   3 2139.34 337.668   3
   6 -15   3 2069.78 524.953   1
 -15   9   3 1834.25 416.503   4
  15  -6   3 1993.98 409.255   1
 -15   9   3 2460.80 489.776   2
  15  -6   6 7181.90 841.390   3
   9   6   6 7561.75 794.922   3
   6 -15   6 6320.23 827.916   1
 -15   9   6 7039.00 410.980   3
  -9  15   6 7394.42 652.181   3
  -6  -9   6 7631.95 899.607   1
  -9  15   6 4739.00 522.097   1
 -15   9   6 7344.54 669.897   4
  -6  -9   6 6055.64 490.074   2
 -15   9   6 6754.94 780.567   2
  15  -6   6 6669.86 590.308   1
  -6  -9   9 734.256 690.939   1
  15  -6   9-510.799 659.613   3
   9   6   9 353.052 547.556   3
 -15   9   9 374.040 350.069   3
  -9  15   9 299.115 456.221   3
  -6  -9   9-7.48214 346.280   2
  15  -6   9 340.705 372.735   1
 -15   9   9 372.732 407.876   4
   6 -15   9 301.696 599.401   1
  -9  15   9 275.865 486.472   4
 -15   9   9-454.779 557.706   2
  10   5  -7 1298.73 287.731   4
 -10  15  -7 1395.33 218.199   4
 -15  10  -7 2098.80 428.806   4
  -5 -10  -4 18578.6 561.832   1
 -15  10  -4 17551.2 875.061   4
 -15  10  -4 19895.4 912.000   2
   5 -15  -4 19295.8 733.585   1
  10   5  -4 17063.5 865.586   2
 -10  15  -4 17645.5 729.946   4
  10   5  -4 17724.2 767.550   4
 -15  10  -1 49004.5 1418.02   4
 -15  10  -1 46500.8 1288.03   2
  10   5  -1 49284.1 1092.75   3
  -5 -10  -1 49253.3 1367.99   2
  -5 -10  -1 51134.5 1347.82   1
   5 -15  -1 45183.6 1290.86   1
 -10  15  -1 49471.6 1041.09   2
 -10  15  -1 47946.2 1299.28   4
  10   5  -1 46330.6 1289.46   2
  10   5  -1 46370.3 1357.85   4
  15  -5   2 16177.4 794.354   3
 -10  15   2 15877.0 862.908   2
  -5 -10   2 16838.4 690.859   2
   5 -15   2 17443.5 980.153   1
  10   5   2 15622.5 756.381   3
  -5 -10   2 13592.8 678.251   3
 -10  15   2 17415.7 771.731   3
 -15  10   2 17121.7 894.194   4
 -10  15   2 16457.6 870.419   1
 -10  15   2 17836.5 918.746   4
  -5 -10   2 17140.4 1000.28   1
 -15  10   2 15990.1 872.965   2
  -5 -10   5 16991.2 662.621   2
  15  -5   5 18110.6 1126.76   3
   5 -15   5 18554.6 1179.12   1
  10   5   5 18385.8 1061.92   3
 -10  15   5 18161.9 869.998   3
 -15  10   5 18846.7 577.623   3
  15  -5   5 18493.2 881.511   1
 -15  10   5 18036.4 1064.96   2
 -10  15   5 16559.3 860.043   1
  -5 -10   5 20034.6 1223.45   1
 -15  10   5 17140.0 934.433   4
  -5 -10   8 2053.04 668.756   1
  15  -5   8 1051.25 666.536   3
  10   5   8 3261.19 713.899   3
  -5 -10   8 1609.99 382.443   2
 -15  10   8 1890.42 364.974   3
 -10  15   8 2058.66 500.166   3
   5 -15   8 2761.60 695.825   1
 -10  15   8 2525.11 577.438   4
 -15  10   8 1376.75 437.379   4
 -15  10   8 1305.68 544.093   2
  15  -5   8 1451.90 396.474   1
 -15  11  -8 5629.09 548.454   4
 -11  15  -8 3584.87 248.192   4
 -15  11  -5 31603.9 1172.35   2
  11   4  -5 27521.9 942.703   4
 -11  15  -5 30454.2 938.661   4
 -15  11  -5 28845.4 1098.96   4
   4 -15  -5 30831.3 816.372   1
 -15  11  -2 11553.5 689.277   2
 -11  15  -2 12140.0 684.509   4
  11   4  -2 11602.5 534.130   3
   4 -15  -2 12241.2 679.946   1
 -15  11  -2 11984.2 756.144   4
  11   4  -2 11135.3 702.811   4
 -11  15  -2 11304.2 510.664   2
  -4 -11  -2 12230.8 658.768   1
 -15  11   1 6998.17 609.681   4
  15  -4   1 7169.26 458.947   3
   4 -15   1 6797.33 659.762   1
  11   4   1 7590.69 515.736   3
  -4 -11   1 7328.83 516.344   2
 -11  15   1 6761.26 510.293   3
 -11  15   1 7669.02 628.689   4
 -11  15   1 7093.20 564.375   2
  -4 -11   1 6638.13 671.371   1
 -15  11   1 7434.56 629.232   2
  15  -4   4 23024.6 965.260   1
  15  -4   4 23236.9 1138.76   3
  -4 -11   4 19800.3 652.329   2
   4 -15   4 23472.4 1241.59   1
  11   4   4 20533.6 1021.74   3
 -11  15   4 21802.8 874.434   3
 -15  11   4 22379.5 585.448   3
 -11  15   4 22320.0 1082.13   4
 -11  15   4 22537.8 1137.03   2
 -15  11   4 21681.1 1037.44   4
 -15  11   4 22970.0 1135.59   2
  -4 -11   4 23624.3 1280.74   1
  15  -4   7 15477.8 1189.77   3
  11   4   7 16493.8 1195.94   3
 -15  11   7 15784.2 724.190   3
 -11  15   7 16362.1 1045.87   4
  15  -4   7 14352.6 761.703   1
 -11  15   7 16464.5 1232.21   2
 -15  11   7 14121.9 932.622   4
 -15  11   7 14490.1 1095.50   2
  -4 -11   7 15417.3 1224.47   1
   4 -15   7 14739.5 1170.43   1
  -4 -11   7 12958.4 596.660   2
 -11  15   7 14961.7 892.358   3
  15  -4  10 10970.0 1253.05   3
  11   4  10 11223.2 1190.04   3
   4 -15  10 9649.27 1118.52   1
 -15  11  10 10057.9 800.771   3
 -11  15  10 8917.35 892.833   3
 -11  15  10 10009.5 1193.85   2
 -15  11  10 8466.99 824.475   4
 -11  15  10 10350.0 943.283   4
 -15  11  10 9266.68 1085.48   2
  -4 -11  10 11729.8 1275.86   1
 -15  12  -9 173.571 274.477   4
  12   3  -6 1952.91 355.566   4
 -15  12  -6 2501.27 473.522   2
 -12  15  -6 2033.55 329.185   4
 -15  12  -6 2617.66 407.368   4
 -12  15  -3 7798.43 464.495   2
  -3 -12  -3 9204.54 526.494   1
 -15  12  -3 7630.43 590.950   2
 -12  15  -3 7885.78 554.277   4
 -15  12  -3 7977.45 623.308   4
   3 -15  -3 8138.49 561.267   1
  15  -3   0 10522.9 428.840   3
   3 -15   0 10393.7 734.814   1
  12   3   0 10947.5 553.261   3
  -3 -12   0 10050.0 613.323   2
 -12  15   0 10275.6 702.416   4
 -15  12   0 10299.3 714.526   4
 -12  15   0 11220.5 647.002   2
  -3 -12   0 11688.9 748.904   1
 -15  12   0 10215.8 659.510   2
  -3 -12   3 533.869 445.945   1
  12   3   3 586.464 321.404   3
  15  -3   3 690.657 359.537   3
  -3 -12   3 397.973 223.533   2
   3 -15   3-90.9628 457.641   1
 -12  15   3 146.212 266.034   3
 -15  12   3 230.976 161.637   3
 -12  15   3 446.607 324.476   4
 -15  12   3-24.8891 397.959   2
 -15  12   3 337.181 319.017   4
 -12  15   3 358.627 372.024   2
 -15  12   6 9928.83 907.379   2
  -3 -12   6 6388.85 371.212   2
 -12  15   6 9441.39 908.970   2
   3 -15   6 9879.95 999.708   1
  15  -3   6 9092.87 904.096   3
  12   3   6 8013.02 853.402   3
 -15  12   6 9149.84 545.387   3
 -12  15   6 8858.85 647.731   3
 -12  15   6 8292.80 755.461   4
 -15  12   6 8404.57 725.467   4
  -3 -12   6 9542.08 983.229   1
  15  -3   9 839.666 655.727   3
 -12  15   9 562.372 471.180   4
  12   3   9-268.894 545.923   3
  -3 -12   9-145.771 625.422   1
 -15  12   9 409.312 344.538   3
 -12  15   9 559.897 407.324   3
 -15  12   9 95.1073 580.005   2
   3 -15   9 282.338 594.421   1
 -12  15   9 559.494 668.452   2
 -15  12   9 1198.00 509.174   4
 -13  15  -7 8072.78 542.688   4
 -15  13  -7 7945.58 594.201   4
 -15  13  -4 9769.17 651.448   2
 -13  15  -4 9510.49 536.564   2
  -2 -13  -4 9721.05 473.429   1
   2 -15  -4 9630.83 523.228   1
 -13  15  -4 9258.82 609.907   4
 -15  13  -4 9057.53 662.606   4
  -2 -13  -1 25469.4 1016.54   1
   2 -15  -1 21760.3 938.731   1
  15  -2  -1 22500.8 505.017   3
  13   2  -1 23631.1 704.648   3
 -13  15  -1 23457.1 980.349   4
 -15  13  -1 22991.7 1012.39   4
 -13  15  -1 22688.2 828.603   2
 -15  13  -1 22354.8 892.100   2
   2 -15   2 3747.84 592.778   1
  15  -2   2 4008.67 444.525   3
  13   2   2 3184.78 423.389   3
 -15  13   2 3403.58 519.896   2
  -2 -13   2 3328.99 346.910   2
 -13  15   2 3793.78 391.440   3
  -2 -13   2 4333.48 596.184   1
 -15  13   2 3952.91 520.366   4
 -13  15   2 3438.20 517.753   2
 -13  15   2 3405.32 459.871   4
  -2 -13   5 2296.96 628.576   1
  -2 -13   5 1561.02 184.713   2
  15  -2   5 2792.61 574.562   3
  13   2   5 1468.92 511.931   3
   2 -15   5 2574.15 657.268   1
 -13  15   5 1815.03 375.948   3
 -15  13   5 1752.49 314.749   3
 -15  13   5 1670.64 540.774   2
 -15  13   5 2595.54 516.339   4
 -13  15   5 1772.28 444.789   4
 -13  15   5 2813.86 570.186   2
 -13  15   8 1007.65 391.401   3
  -2 -13   8 707.484 187.137   2
  15  -2   8 2720.33 728.346   3
  13   2   8 1908.65 623.185   3
  -2 -13   8 2481.04 738.528   1
 -15  13   8 2093.55 389.181   3
 -15  13   8 1366.09 480.234   4
 -13  15   8 3187.94 749.093   2
   2 -15   8 1131.54 641.338   1
 -13  15   8 1622.79 509.013   4
 -15  13   8 1677.98 644.827   2
 -14  15  -8 4348.65 432.732   4
 -15  14  -8 3803.88 441.453   4
  -1 -14  -5 19111.2 520.789   1
 -14  15  -5 20129.7 880.695   4
 -15  14  -5 19372.9 869.675   2
 -14  15  -5 21245.6 819.583   2
   1 -15  -5 20638.0 619.122   1
 -15  14  -5 19791.3 911.245   4
  -1 -14  -2 11102.9 654.868   1
   1 -15  -2 11186.3 671.546   1
  14   1  -2 10537.0 421.543   3
 -14  15  -2 10787.0 702.377   4
 -15  14  -2 10759.8 714.111   4
 -14  15  -2 11082.8 607.732   2
 -15  14  -2 9673.60 618.505   2
   1 -15   1 24615.1 1146.29   1
  15  -1   1 25846.6 820.675   3
  14   1   1 25564.8 848.308   3
 -14  15   1 24428.5 1075.25   4
 -15  14   1 25986.4 1113.80   4
 -15  14   1 24701.9 1028.96   2
 -14  15   1 25258.0 1027.16   2
  -1 -14   1 28968.5 1248.07   1
   1 -15   4 16325.6 1091.35   1
  15  -1   4 17293.4 1003.42   3
  14   1   4 18920.9 1038.58   3
 -14  15   4 17221.9 750.156   3
 -15  14   4 17183.5 673.412   3
 -14  15   4 15288.6 934.001   4
 -15  14   4 16870.2 968.094   4
 -14  15   4 17117.9 1040.83   2
 -15  14   4 16867.3 1029.29   2
  -1 -14   4 16274.2 1120.52   1
   1 -15   7 12931.7 1156.73   1
  15  -1   7 11721.8 1072.85   3
  14   1   7 12855.7 1102.47   3
 -15  14   7 10555.1 669.313   3
 -14  15   7 10284.5 704.059   3
 -14  15   7 10349.4 999.753   2
 -14  15   7 9972.37 841.890   4
 -15  14   7 10243.2 846.669   4
 -15  14   7 10753.0 987.725   2
  -1 -14   7 12641.1 1139.70   1
  15  -1  10 3002.72 810.755   3
  14   1  10 1775.59 714.341   3
 -15  14  10 2205.44 522.565   3
 -14  15  10 1598.83 521.638   3
  -1 -14  10 4844.34 983.445   1
 -14  15  10 1708.88 725.391   2
 -15  14  10 2176.28 721.836   2
   1 -15  10 1388.49 769.675   1
 -15  14  10 2191.35 553.836   4
 -14  15  10 1654.70 558.179   4
 -15  15  -6 21525.0 904.226   2
 -15  15  -6 22037.5 936.279   4
 -15  15  -3-416.333 316.483   2
 -15  15  -3-208.539 302.926   4
   0 -15  -3 626.904 304.189   1
   0 -15   0 32848.7 1241.67   1
 -15  15   0 32458.0 1227.68   4
  15   0   0 34803.1 859.592   3
 -15  15   0 32395.0 1114.18   2
  15   0   3 310.369 321.546   3
   0 -15   3 340.604 443.824   1
 -15  15   3 259.893 241.214   3
 -15  15   3-106.508 335.886   4
 -15  15   3-215.443 371.488   2
   0 -15   6 11359.8 1047.79   1
  15   0   6 9420.00 911.460   3
 -15  15   6 8811.64 602.797   3
 -15  15   6 10791.7 881.554   4
 -15  15   6 9927.44 952.109   2
  15   0   9-615.763 587.672   3
 -15  15   9 152.467 584.227   2
 -15  15   9 483.997 364.032   3
   0 -15   9-258.460 650.022   1
 -15  15   9 271.283 437.288   4
 -16   0  -7-191.240 443.483   4
 -16   0  -7 1645.36 591.093   2
  16 -16  -4 18099.7 818.836   3
 -16   0  -4 19855.1 1137.83   2
   0  16  -4 20516.2 846.615   4
 -16   0  -4 21111.0 1178.99   4
 -16   0  -1 369.905 312.963   3
   0  16  -1-278.607 265.887   2
 -16   0  -1 521.894 408.035   4
 -16   0  -1-316.984 385.433   2
  16 -16  -1-45.9416 247.015   3
  16 -16  -1 198.083 377.955   1
   0  16  -1-446.965 311.622   3
 -16   0   2 30568.0 1246.76   2
  16 -16   2 30454.0 1298.70   1
   0  16   2 29873.6 1149.55   1
   0  16   2 29746.0 1169.33   3
  16 -16   2 28174.3 1060.71   2
 -16   0   2 32289.1 1280.17   4
 -16   0   5 659.404 458.994   2
   0  16   5 188.391 394.837   3
 -16   0   5-19.7408 149.604   3
  16 -16   5-3.39959 472.643   1
 -16   0   5 607.625 388.305   4
  16 -16   5-20.6809 327.358   2
  16 -16   8 27824.0 1515.24   1
 -16   0   8 24707.6 1032.98   3
   0  16   8 27443.2 1499.86   3
 -16   0   8 27909.5 1241.84   4
 -16   0   8 25977.8 1400.05   2
 -16   1  -8 1882.85 524.534   4
 -15  -1  -8 3055.98 604.304   4
 -16   1  -5 4281.96 613.532   4
  16 -15  -5 3784.75 450.836   3
 -16   1  -5 4361.20 665.287   2
 -15  -1  -5 4281.21 670.622   2
 -16   1  -5 2916.22 487.415   1
   1  15  -5 3611.33 358.731   4
  -1  16  -5 3628.91 368.213   4
 -15  -1  -5 4372.29 507.362   1
 -15  -1  -5 4404.82 667.187   4
 -15  -1  -2 2391.82 460.235   3
 -16   1  -2 1737.46 391.516   3
  15 -16  -2 2418.11 472.269   1
 -15  -1  -2 2964.51 528.196   4
  16 -15  -2 1918.17 327.307   3
  16 -15  -2 2257.28 484.814   1
  15 -16  -2 1853.91 337.201   3
 -16   1  -2 2646.32 488.264   2
 -15  -1  -2 2230.87 494.886   2
  -1  16  -2 2173.63 259.663   2
   1  15  -2 2343.17 423.546   3
  -1  16  -2 1988.08 407.936   3
 -16   1  -2 2395.08 503.881   4
   1  15  -2 2421.10 303.790   2
 -16   1   1 14191.5 865.182   2
 -15  -1   1 13325.0 832.324   2
 -16   1   1 11334.6 472.317   3
 -15  -1   1 11776.8 545.062   3
  15 -16   1 13292.8 882.539   1
   1  15   1 14017.0 782.827   2
  15 -16   1 13075.8 764.561   2
  -1  16   1 14224.9 777.933   2
   1  15   1 13585.3 796.654   3
  -1  16   1 13167.3 789.748   3
  16 -15   1 13522.1 897.163   1
  16 -15   1 11711.8 612.114   3
   1  15   1 12969.1 818.246   1
 -16   1   1 14227.6 885.924   4
 -15  -1   1 15485.1 913.322   4
  16 -15   4 756.329 428.765   1
 -16   1   4 1169.36 461.692   2
 -16   1   4 479.268 124.691   3
 -15  -1   4 859.396 451.701   2
 -16   1   4 616.495 112.511   3
 -15  -1   4 1059.30 209.710   3
   1  15   4 910.215 389.691   3
  -1  16   4 863.360 375.368   3
  15 -16   4 925.772 423.965   1
  -1  16   4 1326.93 337.031   1
  15 -16   4 999.560 305.795   2
 -16   1   4 750.268 388.634   4
 -15  -1   4 990.060 400.286   4
  16 -15   4 888.332 346.559   2
 -15  -1   7 3979.89 515.518   3
 -16   1   7 3314.27 413.498   3
 -15  -1   7 3011.80 514.744   4
   1  15   7 3272.35 649.447   3
  -1  16   7 3305.41 632.656   3
  15 -16   7 3243.00 688.148   1
  16 -15   7 2665.20 653.725   1
 -16   1   7 4030.74 580.340   4
 -15  -1   7 3604.89 647.863   2
 -16   1   7 1887.99 532.672   2
 -16   2  -9 2707.60 539.645   4
 -16   2  -6 4586.51 664.012   4
   2  14  -6 4774.27 307.010   4
 -16   2  -6 4850.58 680.777   2
 -14  -2  -6 5834.03 779.398   2
 -14  -2  -6 5078.08 456.354   1
  -2  16  -6 4421.53 290.323   4
  16 -14  -6 4381.41 500.952   3
  -2  16  -6 3736.91 261.339   4
 -14  -2  -6 6306.30 746.185   4
 -16   2  -6 3394.08 511.632   1
 -14  -2  -3 17878.1 801.441   1
  16 -14  -3 17091.9 952.798   1
  16 -14  -3 17169.7 669.114   3
 -16   2  -3 19636.6 1055.55   2
  14 -16  -3 17464.8 812.163   3
  14 -16  -3 19907.8 983.345   1
 -14  -2  -3 19193.2 1055.61   2
   2  14  -3 18026.4 583.520   2
 -16   2  -3 19260.3 1052.60   4
   2  14  -3 17913.0 810.731   4
  -2  16  -3 19008.7 823.722   4
 -14  -2  -3 20131.8 1104.92   4
 -16   2   0 3202.85 336.568   3
 -14  -2   0 3451.55 396.957   3
   2  14   0 3961.23 431.020   2
 -16   2   0 2566.73 440.880   2
  14 -16   0 3247.38 522.218   1
 -14  -2   0 2762.74 464.833   2
  -2  16   0 4101.49 409.854   2
  14 -16   0 3683.38 400.861   3
   2  14   0 3516.69 441.734   3
  16 -14   0 3603.42 344.305   3
  -2  16   0 3791.23 481.368   3
  16 -14   0 2992.59 506.637   1
 -16   2   0 3384.97 513.311   4
 -14  -2   0 3088.64 501.793   4
  16 -14   3 24397.9 1156.52   1
 -14  -2   3 21804.1 659.881   3
  14 -16   3 21665.8 802.497   2
   2  14   3 23953.4 1065.21   3
  -2  16   3 23081.6 1038.79   3
 -14  -2   3 24086.1 1084.82   2
  16 -14   3 23696.8 957.842   2
  -2  16   3 23088.8 936.748   1
 -16   2   3 26365.7 1141.99   4
 -14  -2   3 24834.9 1076.58   4
 -16   2   3 23427.2 1119.38   2
  14 -16   3 24652.6 1202.02   1
 -14  -2   6 2969.25 556.965   2
 -16   2   6 2035.43 271.140   3
   2  14   6 3263.22 609.062   3
 -16   2   6 2124.39 534.477   2
  14 -16   6 2343.80 654.228   1
 -16   2   6 1935.73 203.846   3
 -14  -2   6 2175.18 295.197   3
 -14  -2   6 2521.61 475.707   4
 -16   2   6 2454.23 525.744   4
  -2  16   6 2798.54 543.781   3
  16 -14   6 2080.69 557.617   1
  14 -16   6 2159.87 336.521   2
 -16   2   9 3233.54 545.701   4
  14 -16   9 3996.22 1005.01   3
  16 -14   9 3240.03 954.411   3
 -14  -2   9 3983.93 628.264   3
   2  14   9 4615.28 803.777   3
  -2  16   9 3391.55 707.773   3
  14 -16   9 2857.96 734.250   1
 -16   2   9 5953.35 938.642   1
 -14  -2   9 4505.90 715.972   2
 -14  -2   9 4583.87 920.630   1
  16 -14   9 3680.92 670.572   1
 -16   2   9 3548.41 729.753   2
 -13  -3  -7 4902.89 671.126   4
 -16   3  -7 3681.74 663.703   2
 -16   3  -7 3557.62 602.807   4
  16 -13  -4 30194.7 840.656   3
 -16   3  -4 35572.3 1395.58   2
 -13  -3  -4 38955.7 1508.55   2
 -13  -3  -4 35201.4 1000.30   1
   3  13  -4 31276.4 737.564   2
  13 -16  -4 36999.2 1262.54   1
   3  13  -4 35780.5 1017.10   4
 -16   3  -4 38625.6 1456.68   4
  -3  16  -4 34876.2 992.656   4
 -13  -3  -4 39672.7 1518.28   4
 -13  -3  -1 1118.16 331.194   3
   3  13  -1 612.520 266.938   2
 -16   3  -1 1067.81 411.929   2
  16 -13  -1 679.714 371.538   1
 -13  -3  -1 826.111 366.370   2
  13 -16  -1 240.230 245.428   3
  16 -13  -1 983.829 222.397   3
  -3  16  -1 674.555 227.427   2
   3  13  -1 974.741 358.619   3
  13 -16  -1 452.002 344.896   1
  -3  16  -1 741.792 308.891   3
 -16   3  -1 858.339 431.927   4
 -13  -3  -1 1069.24 426.454   4
 -13  -3   2 53822.3 1505.27   2
 -13  -3   2 47811.1 1057.37   3
   3  13   2 50813.0 1449.77   3
  -3  16   2 52175.6 1462.76   3
  16 -13   2 53873.8 1611.87   1
  13 -16   2 48276.0 1181.76   2
  16 -13   2 47593.8 1390.01   2
  -3  16   2 50779.2 1440.04   1
 -16   3   2 53325.1 1586.43   4
 -13  -3   2 53976.9 1527.47   4
  13 -16   2 53542.8 1680.14   1
 -16   3   2 53811.7 1593.30   2
 -13  -3   5 1356.05 405.289   2
 -16   3   5 1015.59 116.817   3
  16 -13   5 1746.76 514.680   1
  13 -16   5 1849.39 567.573   1
 -16   3   5 1017.40 102.727   3
 -16   3   5 1449.60 472.847   2
   3  13   5 2220.87 499.361   3
 -13  -3   5 1628.01 284.125   3
  -3  16   5 1793.23 467.122   3
  -3  16   5 2084.22 356.619   1
 -16   3   5 2202.66 475.177   4
  13 -16   5 2066.35 304.279   2
 -13  -3   5 1566.72 398.188   4
 -13  -3   8 16531.1 1032.23   3
  16 -13   8 19005.9 1552.51   3
  16 -13   8 15203.1 1057.90   1
 -16   3   8 17839.4 804.596   3
   3  13   8 15296.3 1169.42   3
 -16   3   8 16140.1 983.360   4
  -3  16   8 17715.5 1166.89   3
 -16   3   8 16455.1 1151.31   2
 -13  -3   8 17319.1 1382.01   1
  13 -16   8 16487.2 1237.86   1
 -13  -3   8 15934.6 1052.32   2
 -13  -3   8 13913.7 779.170   4
 -16   4  -8 315.306 397.971   4
  16 -12  -5 7955.02 492.331   3
  -4  16  -5 9913.37 485.844   4
 -16   4  -5 10299.4 834.840   2
 -12  -4  -5 9533.39 851.340   2
  -4  16  -5 10536.9 494.800   4
   4  12  -5 10079.3 514.845   4
 -16   4  -5 9700.92 799.033   4
 -12  -4  -5 9228.64 504.573   1
 -12  -4  -5 11859.9 897.881   4
  -4  16  -2 5229.39 252.217   2
 -16   4  -2 5031.41 560.705   2
  16 -12  -2 5897.29 588.685   1
  16 -12  -2 5502.97 329.796   3
 -12  -4  -2 4933.04 594.948   2
  12 -16  -2 5118.80 491.266   3
 -16   4  -2 5445.12 589.908   4
  12 -16  -2 5905.73 567.399   1
   4  12  -2 6066.52 531.110   3
  -4  16  -2 5145.54 280.790   2
   4  12  -2 5751.29 525.120   4
   4  12  -2 4982.97 415.641   2
 -12  -4  -2 5855.81 621.238   4
 -12  -4   1 25246.9 1027.56   2
   4  12   1 24380.1 998.073   2
 -12  -4   1 23024.2 823.205   3
   4  12   1 25911.8 1001.05   3
 -16   4   1 25170.7 1083.25   2
  -4  16   1 23753.6 983.491   3
  16 -12   1 24368.1 792.497   3
  16 -12   1 23952.8 1081.82   1
 -16   4   1 25858.3 1114.57   4
  -4  16   1 22131.0 1013.98   1
 -12  -4   1 25241.8 1089.98   4
  12 -16   1 25575.9 1140.91   1
 -16   4   4 4685.87 605.117   2
   4  12   4 4577.47 572.871   3
  -4  16   4 4240.99 520.719   3
  16 -12   4 4811.67 590.388   1
 -12  -4   4 3893.16 351.171   3
  12 -16   4 3982.79 324.619   2
 -16   4   4 5435.83 602.550   4
  12 -16   4 4697.24 675.853   1
  -4  16   4 4980.19 486.815   1
 -12  -4   4 5743.25 555.356   4
 -12  -4   4 5009.61 560.997   2
  16 -12   7 7902.14 1001.06   3
  12 -16   7 9223.47 956.687   1
 -16   4   7 9569.79 905.971   2
 -16   4   7 8394.05 480.089   3
  16 -12   7 8134.34 792.643   1
   4  12   7 9343.19 906.934   3
  -4  16   7 7870.51 787.299   3
 -12  -4   7 9953.66 1044.29   1
 -16   4   7 8499.84 766.585   4
 -12  -4   7 9114.85 763.289   2
 -12  -4   7 8657.41 626.850   4
 -12  -4  10 31.0612 495.609   3
  16 -12  10 856.443 836.906   3
  16 -12  10 1215.59 545.886   1
  12 -16  10 1772.33 730.385   1
   4  12  10 197.420 557.432   3
  -4  16  10 1017.42 602.161   3
  12 -16  10 501.833 787.446   3
 -16   4  10-294.853 569.233   1
 -16   4  10 1047.89 578.857   2
 -12  -4  10 979.066 474.941   2
 -12  -4  10 156.167 660.119   1
 -16   5  -9 658.435 447.520   4
 -11  -5  -6 4245.96 606.967   4
 -11  -5  -6 1434.54 193.391   1
   5  11  -6 2087.98 249.839   4
  -5  16  -6 2192.65 215.535   4
 -16   5  -6 3360.22 585.901   2
  -5  16  -6 2550.24 228.711   4
 -16   5  -6 2873.87 532.115   4
 -11  -5  -3 1318.28 455.683   4
  16 -11  -3 1308.03 175.335   3
  11 -16  -3 1803.61 389.617   1
 -16   5  -3 2042.56 473.633   2
 -11  -5  -3 2275.67 499.655   2
 -11  -5  -3 1627.52 289.223   1
 -16   5  -3 2571.42 477.881   4
   5  11  -3 1674.93 300.133   2
   5  11  -3 1899.12 345.359   4
 -16   5   0 1128.39 405.436   2
   5  11   0 1289.44 324.939   2
 -11  -5   0 829.840 289.749   3
 -11  -5   0 737.056 342.013   2
 -11  -5   0 1434.61 395.147   4
  16 -11   0 676.088 369.469   1
   5  11   0 810.362 307.496   3
  -5  16   0 674.874 285.604   3
  16 -11   0 834.280 196.441   3
  11 -16   0 699.455 384.983   1
 -16   5   0 1220.90 425.297   4
 -11  -5   3 5181.98 515.186   2
   5  11   3 5116.87 555.963   3
 -11  -5   3 4831.87 392.081   3
  -5  16   3 4531.51 504.480   3
  16 -11   3 5123.59 575.327   1
  -5  16   3 4898.40 510.021   1
 -16   5   3 5601.69 615.062   4
  11 -16   3 6065.19 689.626   1
 -11  -5   3 5367.53 524.785   4
 -16   5   3 5490.69 627.812   2
 -11  -5   6-173.157 345.753   2
  11 -16   6 270.347 490.786   1
  16 -11   6 389.236 539.215   3
  -5  16   6 61.2235 258.849   1
 -16   5   6-165.082 152.310   3
   5  11   6 280.496 422.815   3
  16 -11   6 152.054 408.043   1
  -5  16   6 100.738 410.439   3
 -16   5   6-9.95662 116.427   3
 -16   5   6-31.2165 373.304   4
 -11  -5   6 274.808 540.825   1
 -11  -5   6 33.5889 305.948   4
  11 -16   6-205.124 149.912   2
 -16   5   6 627.627 445.463   2
 -11  -5   9 5081.38 786.680   3
  16 -11   9 5953.61 1023.89   3
  11 -16   9 3517.99 782.550   1
 -16   5   9 5451.75 679.446   4
 -16   5   9 5197.62 529.731   3
  16 -11   9 5352.40 718.084   1
   5  11   9 5253.75 823.984   3
  -5  16   9 4765.36 717.601   3
 -16   5   9 4642.31 750.688   2
 -11  -5   9 6402.22 966.641   1
 -11  -5   9 4560.94 622.349   2
 -16   6  -7 1152.05 514.383   2
   6  10  -7 888.872 136.959   4
 -10  -6  -4 23914.2 714.188   1
   6  10  -4 23988.0 838.562   4
  10 -16  -4 24089.0 957.577   1
 -16   6  -4 24863.1 1131.44   2
 -10  -6  -4 24769.3 1221.78   2
  -6  16  -4 26093.9 845.637   4
 -16   6  -4 23080.5 1080.72   4
   6  10  -4 22923.5 812.719   2
 -10  -6  -4 26372.3 1236.49   4
  -6  16  -1 1702.24 274.721   2
 -10  -6  -1 1827.40 413.437   4
   6  10  -1 1533.70 340.083   2
 -16   6  -1 1387.26 392.199   2
 -10  -6  -1 1224.88 343.924   3
  16 -10  -1 1447.27 175.941   3
 -10  -6  -1 1442.67 408.685   2
   6  10  -1 1444.75 331.246   3
 -16   6  -1 1289.44 424.539   4
  -6  16  -1 1214.24 363.513   3
  10 -16  -1 2016.64 456.340   1
  16 -10  -1 1092.68 394.893   1
  16 -10   2 13080.7 803.245   1
  -6  16   2 12603.2 751.413   1
 -10  -6   2 13204.4 729.881   2
 -10  -6   2 13272.2 627.566   3
   6  10   2 13599.0 769.662   3
  -6  16   2 13137.2 751.541   3
 -16   6   2 13607.0 838.138   2
  10 -16   2 12709.8 870.888   1
 -16   6   2 13831.1 824.706   4
 -10  -6   2 14386.8 796.039   4
  16 -10   5 7054.35 825.232   3
  -6  16   5 5571.14 489.339   1
   6  10   5 7222.03 734.765   3
  -6  16   5 6770.87 641.879   3
 -10  -6   5 7594.33 880.905   1
 -10  -6   5 4584.53 424.016   3
  16 -10   5 6255.38 659.540   1
  10 -16   5 7300.24 774.953   1
 -16   6   5 6371.01 656.078   4
 -16   6   5 5935.04 705.162   2
 -10  -6   5 6391.75 547.236   4
 -10  -6   5 6608.56 579.075   2
  16 -10   8 16150.2 1370.38   3
 -16   6   8 17460.1 768.592   3
   6  10   8 16197.1 1199.90   3
  -6  16   8 15088.3 1066.98   3
  16 -10   8 13929.1 952.938   1
  10 -16   8 15432.2 1178.77   1
 -10  -6   8 16642.1 1316.75   1
 -16   6   8 14765.0 968.998   4
 -16   6   8 15860.4 1158.71   2
 -10  -6   8 13564.5 877.106   2
 -16   7  -8 3318.66 494.584   4
  -9  -7  -5 17006.6 501.577   1
 -16   7  -5 18092.4 1021.25   2
  -9  -7  -5 15412.3 499.487   1
   7   9  -5 16509.2 770.304   2
  -7  16  -5 18259.8 651.651   4
   7   9  -5 16394.4 658.415   4
 -16   7  -5 18502.6 975.313   4
   9 -16  -5 18756.6 820.665   1
 -16   7  -2 24603.3 1034.43   2
   9 -16  -2 24236.5 974.003   1
  -9  -7  -2 25325.7 1109.12   2
   7   9  -2 23882.9 912.014   3
  -7  16  -2 23604.1 516.888   2
 -16   7  -2 25145.5 1091.44   4
   7   9  -2 25271.5 981.626   4
   7   9  -2 25783.6 921.518   2
  -9  -7  -2 26695.8 1164.24   4
  16  -9   1 9330.66 582.281   3
 -16   7   1 9875.06 730.002   4
  -7  16   1 8245.73 666.307   1
  -9  -7   1 9957.17 698.730   4
  -9  -7   1 9477.44 653.356   2
  -9  -7   1 8996.50 564.452   3
   7   9   1 9863.29 627.548   3
  -7  16   1 9117.70 625.343   3
  16  -9   1 9109.36 686.167   1
   9 -16   1 9133.00 744.888   1
 -16   7   1 9120.81 674.589   2
  16  -9   4 10247.1 843.841   3
  16  -9   4 9068.32 696.087   1
   7   9   4 8568.38 717.029   3
  -7  16   4 9112.83 677.999   3
  -9  -7   4 10903.2 665.386   4
  -9  -7   4 7631.87 518.271   3
   9 -16   4 10644.2 878.569   1
  -9  -7   4 9254.64 893.856   1
 -16   7   4 7971.68 730.450   2
  -9  -7   4 8519.53 582.741   2
  -7  16   4 7768.32 599.648   1
 -16   7   4 9280.79 733.600   4
  -7  16   7 3704.53 399.400   1
 -16   7   7 6791.74 444.146   3
   7   9   7 5675.14 744.324   3
  -9  -7   7 5441.90 868.526   1
  -7  16   7 4253.16 603.571   3
  16  -9   7 6395.97 890.274   3
   9 -16   7 5646.94 795.570   1
  16  -9   7 5118.99 632.255   1
 -16   7   7 6076.44 676.398   4
 -16   7   7 6698.95 827.782   2
  -9  -7   7 4742.20 526.235   2
  -9  -7   7 5080.06 392.550   4
  -9  -7  10 5299.95 953.018   1
  -9  -7  10 3870.26 785.727   3
 -16   7  10 3215.26 576.749   4
  16  -9  10 3544.77 949.002   3
   7   9  10 4208.62 845.131   3
  -7  16  10 3871.57 693.505   3
   9 -16  10 5722.77 911.705   1
 -16   7  10 3888.77 826.727   2
  16  -9  10 4084.52 624.682   1
  -9  -7  10 3692.33 592.248   2
 -16   8  -9 243.751 321.284   4
 -16   8  -6 2018.01 447.393   4
 -16   8  -6 2911.72 572.307   2
   8   8  -6 1979.53 298.080   4
  -8  16  -6 2152.66 263.466   4
   8   8  -3 1267.14 315.183   4
 -16   8  -3 685.856 368.866   2
   8 -16  -3 1100.32 339.696   1
  -8  -8  -3 556.682 368.755   4
  -8  -8  -3 802.972 413.829   2
  -8  16  -3 1417.01 316.753   4
  -8  -8  -3 1109.99 311.428   1
 -16   8  -3 849.242 351.419   4
   8   8  -3 946.557 336.246   2
   8   8   0 14546.6 764.285   2
  16  -8   0 15623.0 571.809   3
  -8  16   0 17224.7 726.744   2
  -8  -8   0 14806.0 771.752   3
  -8  -8   0 17658.8 862.972   2
   8   8   0 15762.6 719.307   3
  -8  16   0 15066.3 758.972   3
  16  -8   0 17131.0 895.107   1
  -8  -8   0 15766.4 884.869   1
   8 -16   0 16691.2 908.257   1
 -16   8   0 16263.6 904.189   4
 -16   8   0 15140.9 819.855   2
  -8  -8   0 16639.7 875.524   4
  -8  -8   3 576.086 300.957   4
  -8  -8   3 1520.08 508.481   1
  16  -8   3 980.202 389.720   1
  16  -8   3 958.175 393.700   3
  -8  -8   3 956.262 306.757   2
   8   8   3 427.989 314.286   3
  -8  -8   3 337.320 226.267   3
  -8  16   3 596.922 326.654   3
  -8  16   3 922.030 330.325   1
 -16   8   3 451.862 342.763   4
   8 -16   3 421.720 435.089   1
 -16   8   3 481.808 386.387   2
  -8  -8   6 1817.46 343.444   2
  16  -8   6 2502.57 642.279   3
 -16   8   6 1850.70 225.942   3
   8   8   6 2217.58 542.944   3
  16  -8   6 1989.49 440.661   1
  -8  16   6 2733.57 482.106   3
   8 -16   6 2849.65 662.350   1
  -8  -8   6 1989.48 317.333   4
  -8  16   6 1609.68 378.804   1
 -16   8   6 2326.00 484.375   4
 -16   8   6 2107.92 569.111   2
  -8  -8   6 2316.54 654.779   1
  -8  -8   9 477.960 396.581   2
  -8  -8   9 824.201 702.187   1
  16  -8   9 420.557 610.854   3
  16  -8   9 46.1424 395.223   1
   8   8   9 926.910 554.046   3
 -16   8   9 817.648 352.421   3
  -8  16   9 349.007 493.802   3
 -16   8   9 1201.99 495.281   4
   8 -16   9 437.964 592.575   1
 -16   8   9-361.537 537.332   2
  -9  16  -7 3051.89 230.769   4
 -16   9  -7 4853.48 573.678   4
 -16   9  -7 6040.16 716.053   2
   9   7  -7 3999.59 344.070   4
 -16   9  -4 10152.1 738.245   2
   7 -16  -4 9647.29 594.579   1
  -9  16  -4 9331.78 559.862   4
   9   7  -4 9019.36 631.531   2
   9   7  -4 9287.15 580.460   4
 -16   9  -4 8743.63 696.518   4
  -7  -9  -4 10579.4 488.473   1
  -7  -9  -1 10912.8 776.628   4
 -16   9  -1 9888.17 683.606   2
  -9  16  -1 11010.9 679.284   4
  -7  -9  -1 9908.15 714.820   2
   9   7  -1 9971.92 573.706   3
   7 -16  -1 10237.5 714.000   1
  -7  -9  -1 11225.7 702.810   1
  -9  16  -1 11340.8 524.859   2
 -16   9  -1 9414.21 702.942   4
   9   7  -1 10010.7 623.484   2
  -7  -9   2 28358.9 1284.87   1
  16  -7   2 27557.1 1043.09   3
 -16   9   2 27660.3 1137.44   4
  -7  -9   2 26923.2 929.585   2
  -9  16   2 24987.3 1043.03   1
   9   7   2 26645.6 1002.18   3
  -7  -9   2 23408.6 881.400   3
   7 -16   2 26983.9 1198.04   1
  -9  16   2 28770.2 1032.48   3
  -9  16   2 25835.7 1064.73   2
 -16   9   2 27234.3 1137.03   2
  16  -7   2 27645.5 1109.38   1
  -7  -9   2 28623.0 1043.72   4
  -7  -9   5 18444.9 765.946   2
  16  -7   5 19183.8 957.113   1
  16  -7   5 19604.2 1201.53   3
 -16   9   5 18393.8 1086.35   2
   9   7   5 17539.5 1035.04   3
   7 -16   5 19559.4 1196.57   1
  -9  16   5 20026.1 942.792   3
 -16   9   5 15086.2 420.397   3
  -9  16   5 16991.5 839.223   1
  -7  -9   5 20458.3 769.216   4
 -16   9   5 18065.5 982.638   4
  -7  -9   5 22356.0 1338.65   1
  16  -7   8 4888.33 909.176   3
   9   7   8 6810.66 910.446   3
 -16   9   8 5020.13 466.617   3
  -9  16   8 4820.33 652.099   3
   7 -16   8 6460.23 857.794   1
 -16   9   8 4673.63 635.150   4
  -7  -9   8 5953.60 916.822   1
  16  -7   8 4881.19 587.638   1
 -16   9   8 3908.86 672.443   2
  -7  -9   8 4648.56 511.984   2
 -16  10  -8 12172.4 783.931   4
   6 -16  -5 6544.95 480.559   1
  10   6  -5 6460.03 493.471   4
 -16  10  -5 6974.36 665.045   2
 -16  10  -5 5824.97 573.561   4
  -6 -10  -5 4766.57 210.956   1
 -10  16  -5 6995.48 487.082   4
 -16  10  -2 13903.8 773.756   2
  -6 -10  -2 13680.9 848.295   2
  10   6  -2 13049.8 731.956   2
 -10  16  -2 14641.6 743.349   4
  -6 -10  -2 15142.8 741.348   1
   6 -16  -2 13600.4 765.329   1
 -16  10  -2 14123.9 842.973   4
  10   6  -2 13320.0 633.982   3
 -10  16  -2 14219.5 512.740   2
 -16  10   1 1609.91 433.831   2
  -6 -10   1 1663.06 372.593   4
  16  -6   1 1465.40 298.239   3
  10   6   1 1503.54 326.090   3
  -6 -10   1 1486.14 347.319   2
 -10  16   1 1631.00 351.906   3
 -16  10   1 1935.14 456.173   4
 -10  16   1 1652.05 369.209   2
 -10  16   1 1396.59 391.986   4
   6 -16   1 1688.48 453.558   1
  -6 -10   1 1992.50 485.617   1
  16  -6   4 24553.3 1194.85   3
  10   6   4 24129.0 1122.43   3
  -6 -10   4 24213.4 823.506   2
 -10  16   4 24168.4 970.373   3
 -10  16   4 21738.0 990.044   1
 -16  10   4 24282.5 1180.42   2
  16  -6   4 24600.6 1040.72   1
 -10  16   4 24435.0 1205.53   2
   6 -16   4 25327.3 1298.50   1
 -16  10   4 24052.0 1107.96   4
  -6 -10   4 21349.9 1234.99   1
  -6 -10   7 1146.70 572.951   1
  -6 -10   7 1359.60 329.772   2
  16  -6   7 1790.41 619.090   3
  10   6   7 520.636 484.757   3
 -16  10   7 1538.33 296.023   3
 -10  16   7 1346.90 432.783   3
   6 -16   7 1184.42 635.147   1
 -10  16   7 1189.05 529.164   4
 -16  10   7 895.468 405.788   4
 -16  10   7 1307.94 537.464   2
  16  -6   7 1243.90 416.305   1
  16  -6  10 5602.91 1015.14   3
  10   6  10 7504.97 1002.80   3
 -10  16  10 6883.56 839.181   3
 -10  16  10 8818.81 1181.36   2
 -10  16  10 7623.87 910.065   4
 -16  10  10 6676.97 941.772   2
 -16  10  10 6134.61 718.128   4
   6 -16  10 7202.10 1005.74   1
  -6 -10  10 8358.13 1138.08   1
 -16  11  -9 3669.57 499.801   4
 -16  11  -6 218.230 321.148   4
  11   5  -6-82.4652 258.204   4
 -16  11  -6-495.854 407.198   2
 -11  16  -6-102.780 233.834   4
 -11  16  -3 5243.46 350.644   2
 -16  11  -3 5324.37 559.985   2
 -16  11  -3 4965.46 553.515   4
 -11  16  -3 5439.06 493.685   4
  -5 -11  -3 6035.94 464.984   1
  11   5  -3 4371.07 504.076   4
   5 -16  -3 5226.07 484.678   1
  -5 -11   0 1883.78 458.143   1
 -11  16   0 1185.08 376.546   4
 -16  11   0 976.551 390.075   2
  16  -5   0 1497.45 213.126   3
   5 -16   0 838.501 401.259   1
  11   5   0 1374.71 302.314   3
  -5 -11   0 1528.66 401.684   2
 -11  16   0 1417.93 336.263   3
 -11  16   0 1435.88 356.699   2
 -16  11   0 1360.02 389.555   4
  -5 -11   3 1844.13 501.066   1
   5 -16   3 1913.10 520.575   1
  16  -5   3 1546.03 424.708   3
 -16  11   3 1657.71 404.686   4
  11   5   3 2230.92 433.349   3
  -5 -11   3 1710.82 308.818   2
 -11  16   3 2580.57 398.354   3
 -11  16   3 2192.93 461.163   4
 -11  16   3 2003.99 462.711   2
 -16  11   3 2201.32 472.342   2
  -5 -11   6 2318.54 341.260   2
  -5 -11   6 3049.80 713.282   1
  16  -5   6 2945.95 642.686   3
  11   5   6 2520.62 605.500   3
 -16  11   6 2747.02 313.246   3
 -11  16   6 2773.82 487.965   3
   5 -16   6 3250.17 728.412   1
 -11  16   6 3068.12 559.017   4
 -16  11   6 2542.93 514.844   4
  16  -5   6 2428.00 438.441   1
 -16  11   6 2491.21 577.586   2
 -11  16   6 3271.84 640.947   2
 -16  11   9 1120.87 440.669   4
  16  -5   9 1795.68 659.414   3
  -5 -11   9 1157.24 671.974   1
  11   5   9 1795.39 598.848   3
 -16  11   9 858.777 350.744   3
 -11  16   9 2727.84 866.277   2
 -11  16   9 1518.23 530.099   3
  16  -5   9 957.305 364.333   1
   5 -16   9 1364.46 677.938   1
 -11  16   9 954.492 506.939   4
 -16  11   9 1259.92 661.232   2
 -16  12  -7 8845.16 689.218   4
 -16  12  -7 9396.20 767.903   2
  12   4  -7 6962.81 533.795   4
 -12  16  -7 7594.53 468.297   4
 -16  12  -4 3786.03 488.984   4
   4 -16  -4 4744.99 430.666   1
  -4 -12  -4 5619.10 376.688   1
 -16  12  -4 4930.96 557.178   2
 -12  16  -4 4271.10 333.074   2
 -12  16  -4 3734.57 434.013   4
 -12  16  -1 23029.7 970.294   4
   4 -16  -1 22799.3 975.843   1
  12   4  -1 23354.3 768.020   3
 -16  12  -1 22611.1 1026.56   4
 -16  12  -1 21795.4 933.593   2
 -12  16  -1 23292.9 804.840   2
  -4 -12  -1 24444.0 1008.11   1
  -4 -12   2 8277.44 785.367   1
   4 -16   2 6313.88 683.310   1
  12   4   2 6286.58 522.707   3
  -4 -12   2 6971.00 488.806   2
 -12  16   2 7067.24 531.877   3
 -16  12   2 7616.94 682.297   2
 -12  16   2 7622.52 653.688   4
  16  -4   2 6080.94 513.228   3
 -12  16   2 6751.96 609.397   2
 -16  12   2 5899.37 597.156   4
  -4 -12   5 8827.86 465.135   2
  16  -4   5 11728.9 948.902   3
   4 -16   5 11449.5 996.028   1
  12   4   5 10615.1 884.969   3
 -12  16   5 10869.7 694.870   3
 -16  12   5 10662.4 488.029   3
 -12  16   5 11191.6 848.222   4
 -16  12   5 9426.36 772.299   4
 -12  16   5 11391.9 928.736   2
 -16  12   5 10457.9 880.872   2
  -4 -12   5 11353.4 1032.29   1
 -16  12   8 206.208 521.756   2
  -4 -12   8 561.068 271.446   2
  16  -4   8 879.991 609.949   3
  -4 -12   8-204.843 649.299   1
  12   4   8 794.130 565.889   3
 -16  12   8 760.828 321.853   3
 -12  16   8 690.133 394.082   3
  16  -4   8 625.416 388.936   1
   4 -16   8-314.876 581.436   1
 -12  16   8 1126.71 521.645   4
 -12  16   8-636.778 602.950   2
 -16  12   8 909.954 471.513   4
 -13  16  -8 10922.1 534.272   4
 -16  13  -8 12877.4 763.122   4
   3 -16  -5 2028.41 288.578   1
 -16  13  -5 2142.38 447.018   2
 -13  16  -5 1692.96 291.496   2
 -13  16  -5 2517.00 388.846   4
  -3 -13  -5 2208.00 198.367   1
 -16  13  -5 2035.34 403.905   4
  -3 -13  -2 54381.7 1370.77   1
 -16  13  -2 50055.8 1352.73   2
 -13  16  -2 51857.3 1147.16   2
   3 -16  -2 53720.6 1375.57   1
  13   3  -2 53492.8 1061.90   3
 -13  16  -2 53249.6 1442.56   4
 -16  13  -2 52457.5 1522.42   4
  -3 -13   1 775.191 411.584   1
  16  -3   1 779.401 249.073   3
  13   3   1 1023.77 285.397   3
   3 -16   1 750.548 433.151   1
  -3 -13   1 1348.62 319.795   2
 -13  16   1 946.587 314.064   3
 -13  16   1 1165.20 388.710   2
 -13  16   1 751.289 332.111   4
 -16  13   1 543.778 359.999   2
 -16  13   1 1576.78 414.663   4
   3 -16   4 38343.9 1610.91   1
  16  -3   4 38400.8 1453.94   3
  13   3   4 37660.9 1374.20   3
  -3 -13   4 32756.2 765.499   2
 -13  16   4 39620.5 1177.71   3
 -16  13   4 35445.3 804.842   3
 -16  13   4 36170.6 1457.76   2
 -13  16   4 38464.0 1435.81   4
 -13  16   4 39219.9 1500.77   2
 -16  13   4 36983.9 1391.38   4
  -3 -13   4 38434.3 1658.32   1
  -3 -13   7 2568.78 262.435   2
 -13  16   7 4933.38 771.118   2
  16  -3   7 4048.86 726.645   3
  -3 -13   7 3414.85 767.114   1
 -16  13   7 3473.84 417.895   3
 -13  16   7 3433.23 532.947   3
  13   3   7 4471.77 760.925   3
   3 -16   7 4882.44 832.541   1
 -16  13   7 3125.83 555.047   4
 -13  16   7 3545.55 595.980   4
 -16  13   7 3946.70 729.342   2
  -3 -13  10 12448.3 1337.95   1
 -16  13  10 9945.96 904.462   4
  13   3  10 10973.4 1191.65   3
   3 -16  10 10367.4 1200.51   1
 -16  13  10 11146.7 811.320   3
 -13  16  10 10252.3 901.041   3
  16  -3  10 11013.9 1221.29   3
 -13  16  10 10374.3 1006.16   4
 -13  16  10 10719.5 1254.25   2
 -16  13  10 10406.2 1147.21   2
 -16  14  -9 2272.58 376.138   4
 -16  14  -6 3359.50 508.288   2
 -16  14  -6 2603.86 431.193   4
 -14  16  -6 2708.06 413.371   4
 -14  16  -3 26110.0 879.691   2
 -16  14  -3 28111.7 1052.14   2
  -2 -14  -3 27364.5 908.650   1
   2 -16  -3 27690.6 964.590   1
 -14  16  -3 26555.2 1043.93   4
 -16  14  -3 25217.6 1071.82   4
 -16  14   0 3925.73 509.103   4
   2 -16   0 4051.92 551.748   1
  16  -2   0 3739.76 301.975   3
  14   2   0 4265.46 387.845   3
 -14  16   0 3733.68 492.345   4
 -14  16   0 4059.71 477.320   2
 -16  14   0 3240.53 452.256   2
  -2 -14   0 3824.10 536.832   1
 -16  14   3 17637.5 979.392   4
   2 -16   3 19848.3 1151.87   1
 -16  14   3 17294.3 995.287   2
  16  -2   3 19282.7 932.896   3
  14   2   3 17118.1 894.774   3
  -2 -14   3 16593.0 566.132   2
 -14  16   3 19166.0 1037.04   2
 -14  16   3 18486.6 793.222   3
 -16  14   3 16541.7 588.541   3
 -14  16   3 18616.6 1005.33   4
  -2 -14   3 19279.2 1180.15   1
   2 -16   6 5411.99 862.021   1
  16  -2   6 4667.18 751.262   3
  14   2   6 5855.30 774.890   3
 -14  16   6 4527.59 513.975   3
 -16  14   6 4899.34 442.273   3
 -16  14   6 4775.06 749.347   2
 -14  16   6 5085.28 653.446   4
 -14  16   6 5441.19 787.772   2
 -16  14   6 4784.29 640.946   4
  -2 -14   6 5268.67 831.727   1
 -14  16   9 3520.40 805.155   2
  16  -2   9 4220.92 822.274   3
 -16  14   9 4128.75 548.700   3
  14   2   9 3535.05 745.969   3
 -14  16   9 4132.11 602.511   3
  -2 -14   9 5110.71 881.422   1
   2 -16   9 4683.30 895.767   1
 -16  14   9 4570.68 855.779   2
 -16  14   9 3536.20 640.714   4
 -14  16   9 3752.50 653.378   4
 -15  16  -7 2751.59 409.008   4
 -16  15  -7 2962.49 429.978   4
 -15  16  -4 1530.54 379.576   4
  -1 -15  -4 1436.71 304.633   1
   1 -16  -4 1209.33 314.445   1
 -16  15  -4 688.345 353.944   2
 -15  16  -4 1145.19 337.432   2
 -16  15  -4 947.794 382.940   4
   1 -16  -1 15587.1 864.091   1
  16  -1  -1 16031.5 503.775   3
  15   1  -1 15445.5 577.879   3
  -1 -15  -1 16115.3 866.667   1
 -15  16  -1 15091.7 865.254   4
 -16  15  -1 13434.4 833.488   4
 -15  16  -1 14132.1 714.444   2
 -16  15  -1 13953.2 750.513   2
 -15  16   2 2273.41 447.790   4
  -1 -15   2 2822.47 565.161   1
  16  -1   2 1452.61 337.381   3
  15   1   2 2144.44 373.316   3
   1 -16   2 3283.76 605.378   1
 -15  16   2 1879.11 319.600   3
 -15  16   2 2473.76 479.379   2
 -16  15   2 2085.85 471.692   2
 -16  15   2 2238.99 458.579   4
  15   1   5 4051.02 647.371   3
  16  -1   5 2833.94 583.154   3
 -16  15   5 2319.45 510.589   4
  -1 -15   5 4130.05 738.185   1
   1 -16   5 1724.27 577.514   1
 -15  16   5 3445.97 438.701   3
 -16  15   5 2677.83 583.945   2
 -16  15   5 2495.46 356.929   3
 -15  16   5 3898.69 608.486   4
 -15  16   5 4068.36 655.330   2
  16  -1   8 3041.74 749.089   3
  15   1   8 1477.12 674.055   3
  -1 -15   8 3731.20 852.316   1
 -16  15   8 2309.06 425.169   3
 -15  16   8 2665.18 483.603   3
   1 -16   8 3180.53 801.001   1
 -15  16   8 1899.63 521.766   4
 -16  15   8 2772.13 596.621   4
 -15  16   8 2675.09 673.993   2
 -16  15   8 2454.46 656.393   2
 -16  16  -8 22418.2 935.516   4
 -16  16  -5-237.283 333.984   2
   0 -16  -5-6.79545 216.051   1
   0 -16  -2 33828.7 1158.30   1
 -16  16  -2 34699.7 1277.35   4
 -16  16  -2 34562.7 1108.88   2
  16   0   1-172.156 265.889   3
   0 -16   1 496.665 439.223   1
 -16  16   1-447.690 356.443   4
 -16  16   1 652.867 391.029   2
   0 -16   4 20951.9 1298.18   1
 -16  16   4 19117.9 1136.57   2
  16   0   4 21382.7 1109.54   3
 -16  16   4 20314.8 785.293   3
 -16  16   4 18904.8 1078.64   4
  16   0   7 1172.22 604.230   3
   0 -16   7 543.794 622.656   1
 -16  16   7-402.151 324.601   3
 -16  16   7-105.242 432.833   4
 -16  16   7 219.893 496.213   2
 -17   0  -8 1444.66 447.729   4
 -17   0  -5-651.528 503.297   4
  17 -17  -5-613.193 345.439   3
 -17   0  -5-308.278 475.942   2
   0  17  -5 137.932 253.406   4
 -17   0  -2 11681.7 889.529   2
  17 -17  -2 11672.6 850.934   1
  17 -17  -2 11151.3 655.083   3
   0  17  -2 11674.0 794.660   3
 -17   0  -2 12811.9 943.453   4
   0  17  -2 13351.9 570.183   2
 -17   0   1 248.273 248.084   3
 -17   0   1-31.8539 374.730   2
   0  17   1-389.626 373.423   3
  17 -17   1 441.551 441.465   1
 -17   0   1-108.625 387.144   4
  17 -17   4 2511.91 588.926   1
 -17   0   4 1647.94 174.128   3
   0  17   4 3306.72 541.894   3
  17 -17   4 2977.04 446.915   2
 -17   0   4 3039.20 530.478   2
 -17   0   4 3398.62 541.010   4
 -17   0   7-153.125 461.923   2
 -17   0   7 387.894 462.395   4
 -17   0   7 190.075 270.862   3
   0  17   7-315.461 495.528   3
  17 -17   7 40.7545 537.453   1
 -17   1  -9 3297.89 651.437   4
 -16  -1  -6 2685.66 490.296   1
  -1  17  -6 3515.90 327.048   4
 -17   1  -6 3847.92 702.521   2
 -16  -1  -6 3629.10 682.692   2
   1  16  -6 2863.64 299.533   4
  -1  17  -6 2982.82 289.636   4
 -17   1  -6 4071.12 651.879   4
 -16  -1  -6 4416.87 688.471   4
  16 -17  -3 20649.1 879.756   3
  17 -16  -3 20062.7 798.588   3
 -17   1  -3 21952.1 1149.64   2
  -1  17  -3 20541.7 920.357   4
  16 -17  -3 21786.3 1090.19   1
 -16  -1  -3 20407.2 1124.95   2
   1  16  -3 18367.4 579.532   2
 -16  -1  -3 20918.1 1173.36   4
 -17   1  -3 22510.8 1232.01   4
  17 -16  -3 20195.1 1054.80   1
 -17   1   0 3607.98 385.223   3
 -17   1   0 3036.53 553.351   2
 -16  -1   0 3661.51 403.144   3
 -16  -1   0 3807.12 554.059   2
   1  16   0 4479.71 477.008   2
  -1  17   0 4224.69 447.499   2
  17 -16   0 3417.82 378.979   3
   1  16   0 3863.43 508.559   3
  -1  17   0 4189.29 543.938   3
  16 -17   0 3629.55 550.753   1
  17 -16   0 3768.00 567.612   1
 -17   1   0 3978.51 569.648   4
 -16  -1   0 4278.28 594.868   4
  16 -17   3 8813.64 807.495   1
 -16  -1   3 7570.99 385.998   3
  17 -16   3 9952.31 822.698   1
   1  16   3 9348.71 741.655   3
 -17   1   3 9585.46 817.049   2
  -1  17   3 9555.01 756.405   3
  16 -17   3 8090.16 603.929   2
  -1  17   3 9405.36 682.914   1
 -17   1   3 11237.9 852.350   4
 -16  -1   3 11507.2 829.055   4
 -16  -1   3 10179.2 792.512   2
 -16  -1   6 7055.02 529.803   3
  17 -16   6 7468.33 816.057   1
 -17   1   6 5775.01 383.628   3
   1  16   6 8220.83 818.164   3
  -1  17   6 7746.32 806.228   3
 -17   1   6 8503.65 765.772   4
 -16  -1   6 8803.12 746.502   4
 -16  -1   6 7223.31 752.122   2
  16 -17   6 7319.89 855.731   1
 -17   1   6 8106.98 826.109   2
  17 -16   9 6856.45 903.789   1
  16 -17   9 7773.08 1217.86   3
  17 -16   9 8750.45 1252.72   3
 -17   1   9 7387.72 926.691   2
   1  16   9 6720.70 949.172   3
  -1  17   9 5867.48 823.380   3
 -17   1   9 6642.11 987.000   1
 -16  -1   9 9084.72 1156.20   1
 -17   1   9 6811.24 700.436   4
 -16  -1   9 7123.37 827.856   2
  16 -17   9 6240.92 934.718   1
 -17   2  -7 20842.0 1218.69   4
 -17   2  -7 19046.9 1258.20   2
 -15  -2  -7 21176.6 1241.61   4
 -15  -2  -4 3606.14 604.130   4
  17 -15  -4 2236.32 357.871   3
 -15  -2  -4 2767.86 417.557   1
  15 -17  -4 3217.99 538.038   1
 -17   2  -4 2724.92 563.927   2
   2  15  -4 2260.96 364.942   4
 -15  -2  -4 2211.34 543.480   2
   2  15  -4 1762.44 210.832   2
  -2  17  -4 2907.59 400.549   4
 -17   2  -4 2594.24 534.898   4
 -17   2  -1 10177.4 637.507   3
   2  15  -1 12506.9 628.647   2
 -15  -2  -1 9732.03 667.771   3
 -17   2  -1 10827.6 796.155   2
 -15  -2  -1 11811.5 838.396   2
  -2  17  -1 12743.9 575.753   2
  15 -17  -1 10174.9 612.106   3
  17 -15  -1 10512.5 546.484   3
   2  15  -1 10950.6 724.516   3
  -2  17  -1 10745.2 729.851   3
  15 -17  -1 10926.2 799.920   1
 -17   2  -1 11377.5 854.816   4
 -15  -2  -1 11746.3 853.523   4
  17 -15  -1 11240.1 806.011   1
 -15  -2   2 11231.4 789.219   2
  15 -17   2 10313.8 843.329   1
 -15  -2   2 9836.62 501.471   3
   2  15   2 11380.1 759.230   3
  -2  17   2 12285.7 792.285   3
  17 -15   2 11957.3 866.512   1
  15 -17   2 10534.7 664.935   2
  -2  17   2 11106.8 777.104   1
 -17   2   2 12492.2 858.873   4
 -17   2   2 12051.0 848.593   2
 -15  -2   2 12330.2 853.108   4
  17 -15   5 19014.9 1130.74   1
   2  15   5 19533.9 1095.96   3
  -2  17   5 17898.9 1049.57   3
  15 -17   5 15406.9 685.244   2
 -15  -2   5 14298.9 553.214   3
  -2  17   5 17331.5 713.046   1
 -17   2   5 18245.3 1045.71   4
 -15  -2   5 20410.5 1039.43   4
  15 -17   5 17948.9 1141.67   1
 -17   2   5 17671.2 1069.22   2
 -15  -2   5 17904.2 1029.48   2
 -15  -2   8 2985.31 641.954   2
  17 -15   8 3958.74 954.758   3
 -15  -2   8 2705.63 513.933   3
   2  15   8 2479.07 680.804   3
  -2  17   8 2726.04 617.514   3
  15 -17   8 2878.21 687.612   1
 -15  -2   8 2934.04 756.065   1
 -17   2   8 3602.15 608.212   4
 -15  -2   8 2579.31 471.857   4
  17 -15   8 3149.47 678.014   1
 -17   2   8 2538.99 640.288   2
 -17   3  -8 5664.70 696.970   4
  -3  17  -5 1024.86 276.226   4
 -14  -3  -5 1206.43 485.007   4
  17 -14  -5 1064.09 310.261   3
 -17   3  -5 1750.12 540.975   2
 -14  -3  -5 1367.24 555.670   2
  -3  17  -5 819.315 282.605   4
 -14  -3  -5 806.553 331.015   1
   3  14  -5 1186.21 289.607   4
 -17   3  -5 605.857 441.078   4
 -17   3  -2 3867.32 556.221   2
  -3  17  -2 3717.97 263.815   2
 -14  -3  -2 3542.06 573.890   2
  17 -14  -2 3127.83 319.689   3
  14 -17  -2 3007.61 491.891   1
  14 -17  -2 2511.95 391.780   3
   3  14  -2 3086.18 476.114   3
  -3  17  -2 3281.41 460.751   3
  17 -14  -2 3831.08 552.042   1
 -17   3  -2 3829.48 557.283   4
 -14  -3  -2 3965.28 580.999   4
   3  14  -2 3900.05 395.727   2
  14 -17   1 6497.28 678.497   1
 -14  -3   1 6784.88 628.208   2
 -17   3   1 6430.92 629.452   2
   3  14   1 5881.68 567.886   3
  -3  17   1 6703.90 582.550   2
  -3  17   1 6349.47 584.180   3
  17 -14   1 6265.66 458.052   3
  17 -14   1 6716.25 683.980   1
 -17   3   1 7425.69 689.226   4
 -14  -3   1 6422.56 631.268   4
 -14  -3   1 5546.80 445.850   3
  17 -14   4 6699.34 711.654   1
   3  14   4 6409.00 681.759   3
 -14  -3   4 5665.10 390.308   3
  -3  17   4 6831.45 675.169   3
 -14  -3   4 7331.85 673.063   4
  -3  17   4 6408.02 540.144   1
 -17   3   4 7357.63 707.827   4
  14 -17   4 6042.15 436.100   2
  14 -17   4 6568.48 768.744   1
 -17   3   4 6501.57 690.536   2
 -14  -3   4 6959.29 677.506   2
 -14  -3   7 3670.18 610.164   2
  17 -14   7 3552.14 853.628   3
  17 -14   7 2436.64 569.635   1
 -17   3   7 2767.46 312.475   3
   3  14   7 2224.21 598.120   3
  14 -17   7 3573.36 759.642   1
  -3  17   7 2718.56 582.510   3
 -14  -3   7 2563.54 674.840   1
 -17   3   7 3380.93 590.376   4
 -14  -3   7 3449.36 516.895   4
 -17   3   7 2531.92 615.089   2
 -17   4  -9 3014.30 605.573   4
 -17   4  -6 649.723 430.860   4
 -13  -4  -6 1098.23 490.905   4
 -13  -4  -6 994.749 294.638   1
   4  13  -6 506.583 203.607   4
 -17   4  -6 1065.73 491.348   2
 -13  -4  -6 1103.10 520.930   2
  -4  17  -6 823.852 185.117   4
  -4  17  -6 878.348 198.033   4
  17 -13  -3 5660.89 346.414   3
 -17   4  -3 6749.06 697.879   2
 -13  -4  -3 7616.46 744.035   2
 -17   4  -3 7796.34 716.298   4
 -13  -4  -3 5996.35 502.369   1
   4  13  -3 6928.04 558.548   4
   4  13  -3 6598.60 450.669   2
 -13  -4  -3 7380.51 717.596   4
  13 -17  -3 6753.57 623.578   1
 -17   4   0 3354.78 531.089   2
   4  13   0 3369.89 426.760   2
  13 -17   0 3755.60 540.684   1
  17 -13   0 3724.43 543.209   1
 -13  -4   0 3910.56 526.345   2
 -13  -4   0 3476.57 418.684   3
  -4  17   0 3964.58 406.251   2
   4  13   0 3516.49 448.069   3
  17 -13   0 3724.65 325.652   3
  -4  17   0 3519.53 468.232   3
 -17   4   0 3549.41 521.157   4
 -13  -4   0 3304.99 501.800   4
 -13  -4   3 5230.09 554.238   2
 -13  -4   3 5250.76 404.043   3
   4  13   3 6099.38 607.042   3
  -4  17   3 5378.26 564.870   3
  17 -13   3 5933.38 669.722   1
  13 -17   3 5375.98 422.269   2
  13 -17   3 7432.74 760.259   1
 -17   4   3 6312.06 642.623   4
  -4  17   3 4628.56 537.206   1
 -13  -4   3 7308.69 637.046   4
 -17   4   3 5932.33 664.269   2
 -13  -4   6 1565.56 451.742   2
  17 -13   6 3025.92 748.795   3
 -17   4   6 1172.75 155.026   3
  13 -17   6 1759.91 631.836   1
  17 -13   6 1347.57 477.120   1
   4  13   6 2020.47 552.537   3
  -4  17   6 2592.98 551.964   3
 -17   4   6 1214.43 127.551   3
 -13  -4   6 1338.68 307.212   3
 -13  -4   6 2655.60 709.738   1
 -17   4   6 2466.20 536.039   4
  13 -17   6 1508.41 247.936   2
 -13  -4   6 2139.01 423.827   4
 -17   4   6 1748.23 559.913   2
  -4  17   6 1690.65 295.387   1
 -13  -4   9 1428.97 519.447   2
 -13  -4   9 1977.54 543.458   3
  17 -13   9 2525.67 879.086   3
  17 -13   9 1770.12 597.239   1
  13 -17   9 2359.52 747.982   1
   4  13   9 1263.94 618.728   3
  -4  17   9 2051.72 642.681   3
 -17   4   9 2295.51 551.728   4
 -17   4   9 1852.30 594.527   2
 -13  -4   9 2279.81 781.253   1
 -17   5  -7 13122.6 1041.62   2
 -17   5  -7 12984.2 915.597   4
  17 -12  -4 1608.38 219.425   3
   5  12  -4 2234.22 359.856   4
 -12  -5  -4 3484.50 590.087   4
 -12  -5  -4 3110.36 604.893   2
 -17   5  -4 3033.56 548.432   2
  -5  17  -4 3031.93 390.764   4
   5  12  -4 1795.12 306.724   2
 -12  -5  -4 2573.26 344.510   1
 -17   5  -4 3419.10 552.464   4
  12 -17  -4 2860.84 495.438   1
 -17   5  -1 17095.2 933.216   2
 -12  -5  -1 15687.7 817.417   3
  12 -17  -1 17266.6 934.498   1
 -12  -5  -1 17959.6 957.428   2
  17 -12  -1 17766.5 956.298   1
  17 -12  -1 18019.3 546.052   3
  -5  17  -1 18167.3 625.591   2
   5  12  -1 16563.3 816.502   3
  -5  17  -1 18144.3 906.166   3
   5  12  -1 16835.7 757.171   2
 -17   5  -1 17747.2 999.080   4
 -12  -5  -1 18962.8 1019.72   4
 -12  -5   2 5675.87 565.063   2
 -12  -5   2 4753.31 417.638   3
   5  12   2 5588.51 545.011   3
  -5  17   2 5978.00 583.487   3
  12 -17   2 5923.25 688.599   1
 -17   5   2 6204.28 642.893   4
  17 -12   2 7004.35 675.468   1
 -12  -5   2 6213.35 607.746   4
  -5  17   2 4952.46 560.125   1
 -17   5   2 5899.36 634.285   2
  17 -12   5 15477.6 1148.22   3
   5  12   5 14301.7 966.855   3
  -5  17   5 14778.2 918.242   3
  17 -12   5 13387.9 909.202   1
 -12  -5   5 11395.5 596.685   3
 -12  -5   5 16511.6 1217.09   1
  12 -17   5 13292.0 1036.74   1
  12 -17   5 9452.88 394.202   2
 -17   5   5 15572.2 970.494   4
 -17   5   5 13135.6 961.392   2
  -5  17   5 13405.3 719.464   1
 -12  -5   5 14644.0 809.438   4
 -12  -5   5 14486.8 853.845   2
  17 -12   8 4449.30 904.263   3
  12 -17   8 3790.93 784.204   1
 -17   5   8 3833.77 396.890   3
  17 -12   8 4235.16 679.315   1
   5  12   8 3229.96 689.608   3
  -5  17   8 2973.99 623.549   3
 -17   5   8 3576.31 611.005   4
 -12  -5   8 3500.40 569.411   2
 -12  -5   8 2482.24 364.731   4
 -12  -5   8 3172.44 843.382   1
 -17   5   8 3726.96 691.457   2
 -17   6  -8 3195.50 540.153   4
 -11  -6  -5 11827.6 909.158   4
 -11  -6  -5 10629.9 485.915   1
 -17   6  -5 11782.1 883.474   2
 -11  -6  -5 11756.7 930.615   2
   6  11  -5 9859.36 585.231   2
  -6  17  -5 12737.7 577.228   4
  11 -17  -5 11761.4 746.342   1
   6  11  -5 10609.6 562.738   4
 -17   6  -5 11294.4 830.452   4
 -11  -6  -2 8103.38 744.350   4
 -17   6  -2 6896.53 655.566   2
  17 -11  -2 4713.51 234.176   3
  11 -17  -2 6229.34 589.443   1
  -6  17  -2 6091.70 278.784   2
 -11  -6  -2 7732.46 697.816   2
   6  11  -2 6807.96 561.280   3
  -6  17  -2 6328.00 291.288   2
 -17   6  -2 7116.90 663.516   4
   6  11  -2 6662.68 514.336   2
  11 -17   1 16212.3 964.507   1
 -11  -6   1 17003.3 867.960   2
 -11  -6   1 14804.6 732.178   3
  17 -11   1 17503.2 948.920   1
   6  11   1 16425.8 814.865   3
  -6  17   1 16973.4 869.001   3
 -17   6   1 17023.4 950.119   4
 -11  -6   1 15924.3 881.721   4
 -17   6   1 14141.9 861.731   2
 -11  -6   4 10082.2 692.886   2
  -6  17   4 8753.20 642.094   1
   6  11   4 9681.83 750.533   3
  -6  17   4 9961.46 751.435   3
 -11  -6   4 7498.69 497.739   3
  11 -17   4 9497.40 860.729   1
 -11  -6   4 9048.38 889.123   1
  17 -11   4 10178.0 769.908   1
 -17   6   4 10173.2 784.357   4
  17 -11   4 10315.6 879.730   3
 -17   6   4 9705.58 815.838   2
 -11  -6   4 10777.9 708.786   4
 -11  -6   7 1701.10 339.631   4
 -11  -6   7 2315.46 462.177   2
  11 -17   7 1628.74 621.704   1
  17 -11   7 2752.46 755.698   3
 -17   6   7 2371.62 271.642   3
  -6  17   7 2656.08 574.565   3
  17 -11   7 2255.10 554.143   1
   6  11   7 1602.84 582.662   3
 -17   6   7 2406.19 535.117   4
 -11  -6   7 2445.16 756.870   1
 -17   6   7 2260.39 623.184   2
 -11  -6  10 1501.61 505.033   2
 -11  -6  10 3629.71 856.455   1
 -11  -6  10 1930.85 665.325   3
  11 -17  10 2043.65 665.885   1
  17 -11  10 1070.24 764.426   3
   6  11  10 2757.09 671.047   3
  -6  17  10 1444.52 582.139   3
  17 -11  10 1823.32 585.313   1
 -17   6  10 1901.30 518.087   4
 -17   6  10 1012.02 569.486   2
 -17   7  -9-138.731 372.814   4
 -17   7  -6 5467.25 646.670   4
 -17   7  -6 5809.20 710.902   2
   7  10  -6 3799.35 353.920   4
  -7  17  -6 4496.89 332.603   4
 -17   7  -3 2276.01 430.107   2
   7  10  -3 2177.13 377.938   2
 -10  -7  -3 1607.96 444.909   4
 -10  -7  -3 2210.14 503.238   2
  -7  17  -3 3030.16 401.341   4
  10 -17  -3 1988.91 411.065   1
   7  10  -3 1890.02 361.671   4
 -17   7  -3 2190.73 457.462   4
   7  10   0 5857.21 533.478   2
 -10  -7   0 6129.63 550.314   3
 -10  -7   0 6097.40 601.907   2
 -10  -7   0 6714.38 625.392   4
   7  10   0 5953.75 517.717   3
  -7  17   0 6045.50 541.726   3
  17 -10   0 5960.34 333.743   3
  10 -17   0 5585.19 634.721   1
 -17   7   0 5510.26 601.595   2
 -17   7   0 5673.36 602.700   4
  17 -10   0 5383.35 596.269   1
 -10  -7   3 952.806 360.752   4
  10 -17   3 1217.49 527.249   1
  17 -10   3 810.381 394.915   3
 -17   7   3 1173.68 421.201   2
 -10  -7   3 747.951 340.583   2
   7  10   3 652.964 337.655   3
 -10  -7   3 827.191 281.964   3
  -7  17   3 978.443 360.028   1
  -7  17   3 760.639 358.302   3
  17 -10   3 501.171 381.241   1
 -17   7   3 779.643 348.875   4
 -10  -7   3 1371.12 526.174   1
 -10  -7   6 1062.05 359.417   4
 -10  -7   6 782.154 361.795   2
  17 -10   6 493.849 432.391   1
  17 -10   6 1201.14 598.362   3
 -17   7   6 816.955 126.536   3
   7  10   6 757.764 503.345   3
  -7  17   6 753.733 403.196   3
  -7  17   6 924.439 321.714   1
 -17   7   6 958.155 422.920   4
 -10  -7   6 1008.42 571.141   1
 -17   7   6 701.296 523.437   2
  10 -17   6 658.338 517.428   1
  10 -17   9 2768.48 720.986   1
 -10  -7   9 2381.43 486.018   2
  17 -10   9 3648.60 860.107   3
   7  10   9 1985.76 685.014   3
  -7  17   9 1509.16 560.798   3
  17 -10   9 1835.28 488.378   1
 -17   7   9 2228.93 641.876   2
 -10  -7   9 2167.40 754.460   1
 -17   7   9 2125.30 518.302   4
 -17   8 -10 1057.74 413.575   4
  -8  17  -7 2411.02 177.345   4
 -17   8  -7 4442.40 672.632   2
 -17   8  -7 4367.99 568.480   4
 -17   8  -4 8571.57 728.927   2
  -9  -8  -4 9806.74 846.618   2
  -9  -8  -4 8812.60 459.868   1
   8   9  -4 8355.82 611.305   2
  -8  17  -4 9903.74 578.129   4
  -9  -8  -4 9806.54 537.825   1
   9 -17  -4 7818.05 593.373   1
   8   9  -4 8102.79 569.511   4
 -17   8  -4 8112.62 703.198   4
  -9  -8  -4 9819.54 843.418   4
 -17   8  -1 17336.1 911.889   2
  -8  17  -1 20800.2 686.538   2
  -9  -8  -1 18914.5 994.140   4
  -9  -8  -1 17714.6 925.265   2
  17  -9  -1 15920.6 363.821   3
   8   9  -1 17126.0 784.285   3
  -8  17  -1 17750.3 880.575   3
  -9  -8  -1 18525.1 916.131   1
 -17   8  -1 19424.2 1005.00   4
   9 -17  -1 19102.6 949.804   1
   8   9  -1 17321.6 813.043   2
  17  -9   2 8738.52 640.357   3
 -17   8   2 7203.74 681.948   2
  -9  -8   2 6780.09 554.666   2
   8   9   2 7286.06 614.341   3
  -9  -8   2 6907.14 528.335   3
  -8  17   2 7745.04 609.602   3
  17  -9   2 7840.61 669.997   1
   9 -17   2 8585.86 768.100   1
  -9  -8   2 8730.33 801.377   1
 -17   8   2 8337.87 716.368   4
  -9  -8   2 7400.92 612.619   4
  17  -9   5 22110.7 1285.93   3
  -9  -8   5 21317.0 874.241   4
  -8  17   5 17494.8 852.321   1
   8   9   5 20419.5 1128.42   3
  -8  17   5 20417.3 1009.19   3
   9 -17   5 21740.9 1251.44   1
  17  -9   5 21442.0 1053.74   1
  -9  -8   5 22684.7 1387.85   1
 -17   8   5 20540.1 1067.42   4
 -17   8   5 20018.6 1147.11   2
  -9  -8   5 19247.6 875.059   2
  -9  -8   8 966.248 631.090   1
  -9  -8   8 1080.99 385.959   2
  17  -9   8 956.274 629.731   3
  17  -9   8 839.724 472.403   1
   8   9   8 861.010 548.123   3
 -17   8   8 1642.45 317.467   3
  -8  17   8 637.726 486.694   3
 -17   8   8 345.561 402.262   4
 -17   8   8 451.486 521.670   2
   9 -17   8 1467.08 652.602   1
 -17   9  -8 638.120 360.490   4
   8 -17  -5 21109.1 866.532   1
 -17   9  -5 21782.8 1097.54   2
  -8  -9  -5 18492.5 489.646   1
   9   8  -5 15654.0 840.265   2
  -9  17  -5 20823.1 757.345   4
   9   8  -5 17717.5 757.372   4
 -17   9  -5 18804.2 995.295   4
  -8  -9  -5 15825.4 474.606   1
  -8  -9  -2 8551.76 746.114   4
 -17   9  -2 7963.73 655.578   2
  -8  -9  -2 8964.10 731.060   2
  -8  -9  -2 9343.86 629.324   1
   9   8  -2 7355.13 547.016   3
  -9  17  -2 9600.69 634.866   4
 -17   9  -2 8758.89 705.676   4
  -9  17  -2 9113.76 394.476   2
   9   8  -2 8943.93 628.358   2
   8 -17  -2 8119.07 633.561   1
  17  -8   1 20262.3 789.862   3
  17  -8   1 20136.3 994.531   1
  -8  -9   1 20904.9 908.257   2
   9   8   1 20172.1 856.762   3
  -9  17   1 19205.4 886.141   3
 -17   9   1 18824.5 956.001   2
   8 -17   1 21664.2 1070.52   1
  -9  17   1 19724.0 883.567   2
  -8  -9   1 21853.3 1116.77   1
 -17   9   1 19713.6 1006.31   4
  -8  -9   1 22190.6 1006.24   4
  -8  -9   4 9814.70 613.185   2
  17  -8   4 10272.4 863.711   3
  17  -8   4 9833.75 749.831   1
   9   8   4 10793.4 804.823   3
  -9  17   4 9033.39 673.908   1
   8 -17   4 10134.2 880.103   1
  -9  17   4 10873.9 713.876   3
 -17   9   4 10011.2 770.070   4
  -8  -9   4 11012.1 984.952   1
 -17   9   4 9673.33 818.144   2
  -8  -9   4 10162.5 643.207   4
  17  -8   7 5556.51 853.566   3
   9   8   7 5545.32 787.015   3
 -17   9   7 5612.91 376.820   3
  -9  17   7 5534.41 671.884   3
 -17   9   7 4751.08 622.161   4
 -17   9   7 5873.43 762.191   2
  -8  -9   7 5884.16 882.899   1
  17  -8   7 5442.79 624.526   1
  -8  -9   7 4978.59 524.390   2
   8 -17   7 5141.61 796.133   1
  -8  -9  10 1385.45 744.922   1
 -17   9  10 1437.33 722.881   2
  17  -8  10 1471.85 809.809   3
   9   8  10 2933.56 754.267   3
  -9  17  10 1065.59 494.796   3
  -9  17  10 3002.77 700.457   4
 -17   9  10 1404.28 484.993   4
   8 -17  10 2822.72 807.499   1
 -17  10  -9 1530.67 422.114   4
 -17  10  -6 544.101 439.434   2
  10   7  -6-81.5521 259.328   4
 -10  17  -6 2.39939 229.339   4
 -17  10  -6 1025.66 393.108   4
  -7 -10  -3 514.973 269.945   1
   7 -17  -3 531.969 321.277   1
 -10  17  -3 456.650 150.678   2
 -17  10  -3 653.137 357.845   2
  -7 -10  -3 233.634 385.571   2
 -10  17  -3 759.612 301.699   4
 -17  10  -3 1227.74 424.456   4
  17  -7   0 5812.31 349.319   3
  -7 -10   0 6049.20 563.258   2
  10   7   0 5380.53 473.247   3
 -10  17   0 6090.45 551.598   3
   7 -17   0 6054.29 624.449   1
  -7 -10   0 5837.58 591.954   4
 -10  17   0 6559.96 597.722   4
 -10  17   0 6846.15 514.140   2
  -7 -10   0 6638.91 644.607   1
 -17  10   0 5529.43 576.749   2
 -17  10   0 5616.17 606.917   4
  -7 -10   3 2053.60 400.873   4
  17  -7   3 2275.19 456.898   3
 -17  10   3 2235.69 473.334   4
  -7 -10   3 1642.24 325.353   2
  10   7   3 2060.36 424.398   3
  17  -7   3 1494.42 406.919   1
 -10  17   3 1988.44 386.609   3
 -10  17   3 2234.00 493.668   2
   7 -17   3 1593.76 549.831   1
  -7 -10   3 2406.76 563.819   1
 -17  10   3 2450.81 508.603   2
  17  -7   6 6001.41 814.986   3
  17  -7   6 4894.18 588.300   1
  10   7   6 5172.36 715.290   3
   7 -17   6 6675.95 827.001   1
 -10  17   6 5542.05 609.286   3
 -17  10   6 5080.47 322.186   3
 -10  17   6 3848.95 522.820   1
 -17  10   6 5480.31 637.222   4
  -7 -10   6 4268.48 435.274   2
 -17  10   6 6190.51 812.807   2
  -7 -10   6 5919.86 858.054   1
  -7 -10   9 283.514 355.313   2
 -17  10   9 1419.85 513.454   4
  -7 -10   9 100.844 656.890   1
  17  -7   9 33.7455 585.875   3
  10   7   9-442.142 565.300   3
 -17  10   9 640.901 286.322   3
 -10  17   9 698.435 479.158   3
  17  -7   9 218.178 421.915   1
 -10  17   9-673.136 538.644   4
 -17  10   9 401.546 524.007   2
   7 -17   9 1092.14 640.353   1
 -17  11  -7 2800.12 555.357   2
 -11  17  -7 1252.92 248.450   4
 -17  11  -7 2185.74 457.409   4
 -17  11  -4 10011.3 754.883   2
   6 -17  -4 9754.19 620.013   1
 -11  17  -4 9206.36 591.556   4
  11   6  -4 8453.81 610.007   4
 -17  11  -4 9368.41 738.885   4
  -6 -11  -4 10879.1 520.722   1
  11   6  -1 15018.2 679.101   3
  -6 -11  -1 15723.2 868.450   2
   6 -17  -1 14820.2 850.928   1
 -11  17  -1 15422.7 819.150   4
  -6 -11  -1 15617.1 849.807   1
 -17  11  -1 13788.0 848.967   4
 -11  17  -1 15106.7 644.407   2
 -17  11  -1 13754.0 787.977   2
  17  -6   2 8023.65 601.612   3
  -6 -11   2 7858.35 549.679   2
  11   6   2 7907.00 608.053   3
   6 -17   2 8446.18 773.927   1
 -11  17   2 8499.98 613.043   3
 -11  17   2 8589.42 715.473   4
 -11  17   2 8770.44 699.800   2
 -17  11   2 8135.39 695.031   4
  -6 -11   2 8723.11 788.710   1
 -17  11   2 8698.91 733.234   2
  17  -6   5 12742.0 806.689   1
  -6 -11   5 10827.5 575.142   2
  17  -6   5 12849.9 992.475   3
  11   6   5 12746.1 911.216   3
   6 -17   5 14293.7 1093.14   1
 -11  17   5 10225.0 868.955   4
 -11  17   5 12899.2 772.497   3
 -17  11   5 9878.56 365.848   3
 -11  17   5 13045.8 1026.92   2
 -17  11   5 11187.4 845.611   4
 -17  11   5 11779.7 932.763   2
  -6 -11   5 13693.9 1090.90   1
  -6 -11   8 2399.03 369.863   2
  -6 -11   8 4198.65 893.347   1
 -17  11   8 3568.27 616.916   4
  17  -6   8 2486.48 699.835   3
 -17  11   8 2620.42 365.671   3
  11   6   8 2750.18 662.223   3
  17  -6   8 3416.08 506.719   1
 -11  17   8 2668.18 551.973   3
 -11  17   8 1644.51 644.596   2
   6 -17   8 2918.70 711.562   1
 -17  11   8 3180.90 758.632   2
 -11  17   8 3140.47 669.889   4
 -17  12  -8 2567.66 484.080   4
 -17  12  -5 17871.0 963.138   2
  -5 -12  -5 13363.2 411.948   1
   5 -17  -5 16434.1 705.444   1
 -12  17  -5 15636.2 750.771   4
 -17  12  -5 14736.9 878.994   4
 -17  12  -2 4961.74 551.909   2
  -5 -12  -2 5562.20 544.422   1
  12   5  -2 5221.45 442.640   3
   5 -17  -2 5520.19 557.238   1
 -12  17  -2 5774.92 557.094   4
 -17  12  -2 5019.67 575.324   4
 -12  17  -2 5629.88 406.112   2
  17  -5   1 20363.6 728.058   3
   5 -17   1 21506.9 1103.43   1
  12   5   1 20231.8 838.264   3
  -5 -12   1 19677.7 830.424   2
 -12  17   1 21522.4 897.167   3
 -12  17   1 22736.5 980.478   2
 -17  12   1 20572.1 1042.68   4
  -5 -12   1 20875.4 1103.61   1
 -17  12   1 19903.5 998.542   2
 -12  17   1 20368.7 1000.26   4
  -5 -12   4 3746.31 710.485   1
  17  -5   4 3929.94 603.940   3
  -5 -12   4 3122.38 349.500   2
   5 -17   4 4606.72 709.424   1
  12   5   4 3651.79 556.747   3
 -17  12   4 2703.07 206.731   3
 -12  17   4 3463.09 436.835   3
 -12  17   4 2754.36 568.326   2
 -17  12   4 3672.23 621.860   2
 -17  12   4 2855.16 515.338   4
 -12  17   4 4245.41 590.889   4
  -5 -12   7 8943.76 527.767   2
  17  -5   7 12943.3 1137.79   3
  12   5   7 12502.4 1092.18   3
   5 -17   7 11034.9 1109.51   1
 -17  12   7 11541.0 599.635   3
 -12  17   7 11294.9 783.313   3
 -12  17   7 11632.3 959.843   4
 -12  17   7 12895.1 1136.89   2
 -17  12   7 11261.9 875.510   4
 -17  12   7 9801.90 959.147   2
  17  -5   7 10049.0 727.231   1
  -5 -12   7 13747.0 1216.54   1
  17  -5  10 1893.23 772.954   3
  -5 -12  10 1450.11 705.946   1
  12   5  10 2161.83 747.338   3
 -12  17  10 2252.15 584.040   3
 -12  17  10 1326.23 588.751   4
 -17  12  10 1797.12 523.208   4
   5 -17  10 1406.55 703.742   1
 -12  17  10 2427.61 807.948   2
 -17  12  10 1934.56 698.742   2
 -17  13  -9 995.125 351.163   4
 -17  13  -6 988.875 394.860   4
 -17  13  -6 1281.08 421.718   2
 -13  17  -6 846.831 295.314   4
  -4 -13  -3 8157.27 538.081   1
 -13  17  -3 6782.52 460.956   2
 -17  13  -3 7124.61 618.428   2
 -13  17  -3 7722.81 627.186   4
   4 -17  -3 6855.43 582.403   1
 -17  13  -3 7063.56 642.615   4
  -4 -13   0 4192.07 548.002   1
  17  -4   0 3859.88 299.543   3
   4 -17   0 4848.70 604.812   1
  13   4   0 3627.09 374.964   3
  -4 -13   0 3369.65 456.613   2
 -13  17   0 3644.00 441.212   2
 -13  17   0 3989.59 544.886   4
 -17  13   0 3685.16 510.669   4
 -17  13   0 3537.52 489.747   2
 -17  13   3 7236.69 716.553   2
  17  -4   3 7185.39 632.258   3
   4 -17   3 6893.64 767.116   1
  13   4   3 6202.31 591.079   3
  -4 -13   3 6693.05 468.012   2
 -13  17   3 7657.04 586.218   3
 -13  17   3 7204.34 698.520   4
 -13  17   3 7288.30 702.820   2
 -17  13   3 6602.41 670.639   4
  -4 -13   3 7069.65 822.055   1
  -4 -13   6 1259.33 651.765   1
 -13  17   6 1784.86 506.570   4
  17  -4   6 1313.98 576.302   3
  13   4   6 1534.47 496.294   3
  -4 -13   6 765.210 213.885   2
 -13  17   6 1065.14 384.245   3
 -17  13   6 332.538 241.565   3
 -17  13   6 1886.69 593.053   2
   4 -17   6 896.924 591.970   1
 -13  17   6 987.924 543.922   2
 -17  13   6 1607.52 468.587   4
  17  -4   9 3666.95 830.047   3
  -4 -13   9 4288.30 899.112   1
  13   4   9 4357.46 846.051   3
 -17  13   9 3585.89 462.514   3
 -13  17   9 4027.59 623.663   3
   4 -17   9 4202.24 886.902   1
 -17  13   9 4041.79 653.277   4
 -13  17   9 3279.11 797.851   2
 -13  17   9 3337.36 686.601   4
 -17  13   9 2938.18 742.820   2
 -17  14  -7 2452.05 510.427   2
 -14  17  -7 2781.87 400.456   4
 -17  14  -7 3023.93 481.999   4
 -17  14  -4 6842.05 640.880   2
 -14  17  -4 6847.55 487.525   2
  -3 -14  -4 7578.77 453.617   1
 -14  17  -4 7314.82 594.381   4
 -17  14  -4 6930.69 644.767   4
   3 -17  -4 6596.70 521.274   1
  -3 -14  -1 6475.33 604.171   1
 -17  14  -1 5679.22 547.945   2
   3 -17  -1 6485.57 619.921   1
 -14  17  -1 6537.06 621.182   4
  17  -3  -1 5501.17 262.271   3
  14   3  -1 6279.19 441.740   3
 -17  14  -1 6635.07 647.442   4
 -14  17  -1 6414.86 519.979   2
  -3 -14   2 3615.87 625.390   1
  17  -3   2 3316.27 445.084   3
  14   3   2 3491.03 440.033   3
  -3 -14   2 3068.87 355.186   2
 -14  17   2 3690.41 430.288   3
   3 -17   2 3873.91 609.290   1
 -14  17   2 3278.85 489.112   4
 -14  17   2 3898.09 524.634   2
 -17  14   2 3246.75 515.783   4
 -17  14   2 4204.92 574.857   2
  -3 -14   5 1401.40 637.041   1
  17  -3   5 1928.44 549.649   3
  14   3   5 831.062 467.174   3
  -3 -14   5 468.703 190.545   2
 -14  17   5 998.406 374.711   3
   3 -17   5 216.362 521.724   1
 -17  14   5 885.909 237.379   3
 -14  17   5 622.342 412.748   4
 -17  14   5 970.664 456.206   4
 -14  17   5 1445.85 552.518   2
 -17  14   5 35.9489 501.289   2
  17  -3   8 7341.21 978.038   3
   3 -17   8 5866.21 928.162   1
  14   3   8 6187.80 925.540   3
 -17  14   8 4666.22 491.543   3
 -14  17   8 4624.97 590.232   3
 -14  17   8 5703.06 735.990   4
 -14  17   8 5356.51 893.212   2
 -17  14   8 5170.90 686.988   4
 -17  14   8 5533.33 847.630   2
  -3 -14   8 6080.75 960.004   1
 -15  17  -8 1422.76 343.848   4
 -17  15  -8 1523.44 382.375   4
   2 -17  -5 19299.2 706.632   1
 -17  15  -5 20246.2 978.320   2
 -15  17  -5 18557.9 750.569   2
 -15  17  -5 18368.3 891.137   4
 -17  15  -5 17221.6 920.055   4
  -2 -15  -5 18645.5 585.506   1
 -17  15  -2 12338.4 729.457   2
  -2 -15  -2 13515.0 774.439   1
   2 -17  -2 13017.2 763.809   1
  15   2  -2 12975.4 539.748   3
 -15  17  -2 13213.6 815.497   4
 -17  15  -2 12966.1 836.727   4
 -15  17  -2 13491.4 692.494   2
   2 -17   1 12822.5 908.535   1
  17  -2   1 11330.0 579.253   3
  15   2   1 11944.9 636.828   3
 -15  17   1 11901.8 822.360   4
 -17  15   1 10429.4 794.361   4
 -15  17   1 12161.7 791.407   2
 -17  15   1 12158.4 817.760   2
  -2 -15   1 13122.5 938.112   1
  17  -2   4 3087.09 567.342   3
  -2 -15   4 3140.75 689.074   1
  15   2   4 2692.66 532.890   3
   2 -17   4 3031.55 692.134   1
 -17  15   4 1785.41 298.568   3
 -15  17   4 2529.13 404.970   3
  -2 -15   4 1307.03 199.204   2
 -17  15   4 1897.17 487.384   4
 -15  17   4 1934.72 481.110   4
 -15  17   4 2017.23 537.804   2
 -17  15   4 2038.76 558.399   2
   2 -17   7 22339.9 1512.04   1
  17  -2   7 21640.9 1419.27   3
  15   2   7 20898.6 1368.37   3
 -15  17   7 18060.4 929.958   3
 -17  15   7 17714.0 796.753   3
 -15  17   7 17245.4 1138.46   4
 -15  17   7 20293.2 1348.67   2
 -17  15   7 16898.2 1078.31   4
 -17  15   7 18579.4 1278.37   2
  -2 -15   7 20057.1 1461.25   1
 -17  16  -6 7478.63 642.951   2
 -16  17  -6 6813.09 562.943   2
 -17  16  -6 5998.40 588.132   4
 -16  17  -6 6973.74 608.905   4
 -16  17  -3 11579.3 683.344   2
 -17  16  -3 10749.9 699.006   2
  -1 -16  -3 11260.4 661.042   1
   1 -17  -3 10969.0 669.305   1
 -16  17  -3 10285.8 746.491   4
 -17  16  -3 10535.4 772.879   4
  -1 -16   0 4945.46 616.556   1
   1 -17   0 4326.70 610.180   1
  17  -1   0 4058.29 355.225   3
  16   1   0 4595.49 392.971   3
 -16  17   0 3950.40 520.334   2
 -16  17   0 4317.52 570.271   4
 -17  16   0 4215.84 557.476   4
 -17  16   0 3941.47 516.185   2
   1 -17   3 25615.7 1372.26   1
  17  -1   3 24669.1 1071.83   3
  16   1   3 23931.3 1058.21   3
 -16  17   3 25508.9 1233.90   2
 -16  17   3 22642.4 856.927   3
 -17  16   3 21728.1 745.592   3
 -16  17   3 24014.5 1181.90   4
 -17  16   3 23000.0 1177.83   4
 -17  16   3 21119.6 1142.03   2
  -1 -16   3 23519.0 1316.51   1
  17  -1   6 2659.77 642.426   3
  16   1   6 3212.93 669.968   3
 -16  17   6 2623.24 559.409   4
  -1 -16   6 3738.91 772.815   1
 -16  17   6 3176.69 453.166   3
 -17  16   6 3197.48 402.602   3
   1 -17   6 4128.51 786.494   1
 -17  16   6 2121.66 510.004   4
 -16  17   6 2131.07 615.380   2
 -17  16   6 3744.13 703.790   2
  17  -1   9 4210.62 862.423   3
  16   1   9 2671.49 748.387   3
 -17  16   9 3788.91 560.055   3
 -16  17   9 3989.00 571.246   3
  -1 -16   9 4563.57 964.374   1
   1 -17   9 2341.68 768.859   1
 -17  16   9 3338.22 634.124   4
 -16  17   9 3785.73 669.527   4
 -16  17   9 2881.60 799.627   2
 -17  16   9 3395.36 792.410   2
 -17  17  -7-84.9289 299.217   4
 -17  17  -4 3455.21 510.956   2
   0 -17  -4 2624.98 415.994   1
 -17  17  -4 2947.99 503.418   4
 -17  17  -1 590.427 349.446   2
  17   0  -1 9.35453 195.609   3
   0 -17  -1 10.5762 360.562   1
 -17  17  -1 70.7412 338.450   4
   0 -17   2 15675.3 1061.65   1
  17   0   2 13125.1 735.666   3
 -17  17   2 12192.6 869.043   4
 -17  17   2 14922.0 934.687   2
  17   0   5-406.310 425.569   3
   0 -17   5-725.359 601.801   1
 -17  17   5-62.2327 278.465   3
 -17  17   5 404.360 485.910   2
 -17  17   5 529.565 482.534   4
 -17  17   8 3332.61 809.791   2
  17   0   8 2173.02 679.044   3
   0 -17   8 3057.00 812.870   1
 -17  17   8 2809.08 468.813   3
 -17  17   8 3335.12 640.746   4
 -18   0  -9 238.830 489.953   4
 -18   0  -6 29359.1 1543.66   2
 -18   0  -6 31816.3 1576.03   4
  18 -18  -3-78.2347 396.930   1
  18 -18  -3 66.4126 298.493   3
 -18   0  -3 53.7231 438.856   2
 -18   0  -3-351.250 479.591   4
   0  18  -3-274.640 164.564   2
 -18   0   0 14795.8 715.678   3
 -18   0   0 16985.8 1024.85   2
   0  18   0 18064.4 841.292   2
   0  18   0 16682.0 925.021   3
  18 -18   0 16475.9 1036.23   1
 -18   0   0 18011.8 1074.39   4
 -18   0   3 221.086 446.260   2
 -18   0   3 10.0911 124.779   3
  18 -18   3 4.20523 455.076   1
   0  18   3 375.438 389.511   3
 -18   0   3 253.978 386.792   4
 -18   0   6 21457.1 1189.20   4
  18 -18   6 18968.4 1255.30   1
   0  18   6 18757.8 1180.34   3
 -18   0   6 18208.8 1163.22   2
 -18   0   9 234.931 525.463   2
  18 -18   9 100.066 766.422   3
   0  18   9 150.868 552.527   3
 -18   0   9 13.4664 676.487   1
  18 -18   9 851.847 587.930   1
 -18   1  -7 8065.25 866.592   4
 -18   1  -7 8400.00 974.706   2
 -17  -1  -7 7016.75 910.551   2
 -17  -1  -7 7795.07 855.904   4
  -1  18  -4 957.570 336.500   4
 -17  -1  -4 1200.46 508.178   4
  18 -17  -4 442.379 289.876   3
  17 -18  -4 1435.09 497.946   1
 -18   1  -4 1472.27 533.368   2
 -17  -1  -4 2262.48 553.638   2
   1  17  -4 539.659 106.457   2
   1  17  -4 1182.46 365.614   4
 -18   1  -4 915.919 444.066   4
 -18   1  -1 12175.1 723.393   3
  18 -17  -1 15311.9 980.942   1
 -17  -1  -1 12101.4 756.172   3
   1  17  -1 16073.4 725.025   2
  -1  18  -1 15494.3 668.631   2
 -18   1  -1 14898.5 960.634   2
 -17  -1  -1 13108.2 926.172   2
  18 -17  -1 12646.8 656.752   3
   1  17  -1 13176.7 843.707   3
  -1  18  -1 14252.5 875.481   3
  17 -18  -1 14473.5 944.478   1
 -18   1  -1 14830.3 1003.95   4
 -17  -1  -1 16627.5 1055.54   4
 -18   1   2 1867.88 198.837   3
 -18   1   2 3702.07 571.206   2
 -17  -1   2 2955.39 535.526   2
 -17  -1   2 2373.41 268.688   3
  17 -18   2 2566.42 553.581   1
   1  17   2 3368.56 530.644   3
  -1  18   2 3036.49 499.642   3
  18 -17   2 3544.64 606.874   1
 -17  -1   2 4050.14 598.111   4
 -18   1   2 3126.77 555.720   4
  17 -18   5 10225.2 969.030   1
  18 -17   5 8826.92 871.190   1
 -17  -1   5 5472.38 329.698   3
   1  17   5 9291.02 838.130   3
  -1  18   5 8275.22 773.920   3
  17 -18   5 5981.99 534.725   2
 -18   1   5 9680.04 823.423   4
 -17  -1   5 8264.82 775.375   4
 -18   1   5 7252.56 762.385   2
 -17  -1   5 10193.7 861.588   2
  18 -17   8 12528.1 1360.51   3
  18 -17   8 9735.23 1014.38   1
   1  17   8 9345.99 988.819   3
  -1  18   8 10075.5 996.968   3
 -17  -1   8 8448.39 1108.53   1
 -18   1   8 9364.30 811.865   4
 -17  -1   8 9218.43 776.397   4
 -18   1   8 7291.40 862.377   2
 -17  -1   8 7299.31 863.633   2
  17 -18   8 10759.9 1088.53   1
 -16  -2  -8 1437.56 557.338   4
 -18   2  -8 93.7486 451.911   4
 -18   2  -5 3415.37 648.406   4
 -16  -2  -5 2818.79 608.815   4
 -16  -2  -5 2415.65 423.607   1
  18 -16  -5 1748.46 359.135   3
 -18   2  -5 3542.67 682.877   2
 -16  -2  -5 4292.16 681.994   2
   2  16  -5 2924.67 387.652   4
  -2  18  -5 2869.78 388.248   4
  -2  18  -2 9020.55 442.974   2
 -18   2  -2 8199.09 773.466   2
 -16  -2  -2 7257.40 730.846   2
   2  16  -2 9530.69 543.305   2
  18 -16  -2 8007.59 513.843   3
   2  16  -2 7749.41 684.491   3
  18 -16  -2 7609.75 708.615   1
  -2  18  -2 7844.82 690.953   3
 -18   2  -2 9626.60 834.704   4
 -16  -2  -2 8984.23 837.050   4
  16 -18  -2 8877.70 759.573   1
 -18   2   1 858.475 203.654   3
 -18   2   1 480.689 417.232   2
 -16  -2   1 1278.93 311.001   3
 -16  -2   1 1060.75 425.523   2
  18 -16   1 1077.88 476.336   1
  16 -18   1 921.413 433.003   1
   2  16   1 1317.75 406.033   3
  -2  18   1 844.574 386.511   3
 -18   2   1 1468.56 476.399   4
 -16  -2   1 1445.63 482.996   4
 -18   2   4 1446.18 521.597   2
 -16  -2   4 2179.78 496.707   2
  18 -16   4 1302.40 525.274   1
 -16  -2   4 732.088 223.808   3
   2  16   4 1780.09 496.083   3
  -2  18   4 2383.60 526.071   3
  16 -18   4 901.037 324.086   2
  16 -18   4 2512.82 618.261   1
  -2  18   4 999.348 351.933   1
 -18   2   4 1913.77 548.965   4
 -16  -2   4 1597.03 459.394   4
 -18   2   7 1268.54 535.116   2
  18 -16   7 1466.13 615.471   1
 -16  -2   7 512.124 476.623   2
 -16  -2   7 630.680 369.959   3
   2  16   7 2014.26 631.045   3
  -2  18   7 1280.56 531.907   3
  16 -18   7 1320.51 640.518   1
 -18   2   7 500.959 456.557   4
 -16  -2   7 1458.51 480.204   4
 -18   3  -9 259.256 448.502   4
 -18   3  -6 9098.89 840.849   4
 -18   3  -6 8802.33 928.444   2
 -15  -3  -6 8982.70 904.873   2
  -3  18  -6 8034.97 429.248   4
 -15  -3  -6 9326.87 905.883   4
 -15  -3  -3 2457.13 594.641   4
  15 -18  -3 2746.08 513.027   1
  18 -15  -3 1488.40 286.000   3
 -18   3  -3 1582.66 446.514   2
 -15  -3  -3 2086.91 506.924   2
   3  15  -3 2413.89 335.297   2
 -18   3  -3 3472.60 601.107   4
  18 -15   0 23742.3 1165.18   1
 -18   3   0 22603.4 1114.88   2
   3  15   0 22745.3 929.353   2
 -15  -3   0 19380.3 848.332   3
 -15  -3   0 22173.5 1102.02   2
  15 -18   0 23004.3 1137.58   1
  -3  18   0 23548.4 887.608   2
  18 -15   0 21335.8 745.640   3
   3  15   0 23200.7 1019.30   3
  -3  18   0 21925.3 1016.66   3
 -18   3   0 23588.9 1165.31   4
 -15  -3   0 23198.6 1174.54   4
  -3  18   3 149.529 342.728   1
 -18   3   3 670.548 401.201   2
 -15  -3   3-18.1936 416.872   2
 -15  -3   3 801.461 389.725   4
 -15  -3   3 229.299 217.575   3
   3  15   3 205.296 357.504   3
  -3  18   3 412.632 377.151   3
  15 -18   3 354.790 464.029   1
  15 -18   3 493.306 293.702   2
 -18   3   3 593.053 391.418   4
  18 -15   3 293.598 403.977   1
  18 -15   6 9534.85 894.590   1
   3  15   6 9984.11 887.657   3
  -3  18   6 10227.4 900.275   3
 -18   3   6 10982.8 866.674   4
  15 -18   6 10171.5 1012.26   1
 -18   3   6 10409.7 943.985   2
 -15  -3   6 11203.7 810.410   4
 -15  -3   6 10085.1 843.278   2
 -15  -3   9-484.698 521.187   2
  18 -15   9 89.5076 710.104   3
  18 -15   9 1325.58 611.206   1
   3  15   9 1727.36 660.851   3
  -3  18   9 277.136 508.358   3
  15 -18   9 1005.46 635.107   1
 -18   3   9 886.216 507.805   4
 -18   3   9 77.6488 528.641   2
 -15  -3   9 1506.15 792.054   1
 -14  -4  -7 5940.70 771.427   4
 -18   4  -7 4604.87 736.445   2
 -18   4  -7 4793.09 677.774   4
  18 -14  -4 5662.25 385.147   3
 -18   4  -4 7390.66 754.157   2
 -14  -4  -4 8859.54 838.762   2
  14 -18  -4 8440.42 704.655   1
 -14  -4  -4 7509.77 539.781   1
   4  14  -4 7436.30 566.824   4
   4  14  -4 6532.35 425.633   2
 -18   4  -4 6955.44 766.404   4
 -14  -4  -4 8690.88 827.242   4
  -4  18  -4 7146.80 542.672   4
   4  14  -1 2613.83 382.786   2
 -14  -4  -1 2673.85 446.469   3
  -4  18  -1 3628.56 356.648   2
 -18   4  -1 2794.78 524.861   2
  14 -18  -1 3517.27 547.284   1
  18 -14  -1 3080.76 317.461   3
 -14  -4  -1 3032.76 529.429   2
   4  14  -1 2887.53 476.129   3
  -4  18  -1 2493.97 463.813   3
  18 -14  -1 3181.02 512.481   1
 -18   4  -1 2725.65 557.952   4
 -14  -4  -1 3976.97 591.191   4
 -14  -4   2 11397.5 787.081   2
 -14  -4   2 10438.5 582.636   3
   4  14   2 12716.0 804.793   3
  -4  18   2 13330.8 829.164   3
  18 -14   2 12599.6 896.066   1
 -18   4   2 12095.0 861.335   4
 -14  -4   2 13771.7 866.429   4
  14 -18   2 11073.8 882.516   1
 -18   4   2 12930.0 891.239   2
  -4  18   5 3603.62 440.806   1
   4  14   5 4478.96 619.440   3
  -4  18   5 4825.85 648.622   3
 -14  -4   5 2861.50 333.390   3
  18 -14   5 3714.26 608.717   1
  14 -18   5 4378.63 766.872   1
  14 -18   5 3626.58 354.710   2
 -18   4   5 4278.31 637.377   4
 -18   4   5 3985.16 683.660   2
 -14  -4   5 5278.92 589.384   4
 -14  -4   5 4444.43 605.038   2
 -14  -4   8 4707.21 673.810   3
  18 -14   8 7075.45 1126.07   3
  18 -14   8 3851.67 698.739   1
   4  14   8 3854.63 738.035   3
  -4  18   8 4337.64 740.287   3
  14 -18   8 5872.90 911.561   1
 -18   4   8 5902.14 842.471   2
 -18   4   8 4225.61 626.284   4
 -14  -4   8 4610.32 880.738   1
 -14  -4   8 4616.02 660.908   2
 -14  -4   8 3919.54 471.555   4
 -18   5  -8 6692.10 727.541   4
 -13  -5  -5 3754.82 630.287   4
  18 -13  -5 2453.17 303.665   3
  13 -18  -5 3685.85 540.487   1
 -13  -5  -5 2834.36 364.656   1
 -18   5  -5 2731.34 580.827   2
 -13  -5  -5 2206.14 538.461   2
  -5  18  -5 3504.58 382.023   4
   5  13  -5 2523.30 342.454   2
   5  13  -5 3099.89 375.003   4
 -18   5  -5 3308.77 594.981   4
  -5  18  -5 3061.22 373.627   4
 -18   5  -2 22282.7 1098.87   2
  -5  18  -2 20726.9 507.141   2
  18 -13  -2 19571.7 566.035   3
 -13  -5  -2 23349.5 1150.14   2
  13 -18  -2 22922.2 1060.31   1
   5  13  -2 21630.8 988.609   3
  18 -13  -2 23601.4 1144.75   1
  -5  18  -2 23086.0 579.911   2
 -18   5  -2 22510.5 1149.34   4
   5  13  -2 25353.6 911.885   2
 -13  -5  -2 24088.0 1210.90   4
 -18   5   1 6996.19 698.341   4
  18 -13   1 6843.32 705.529   1
 -13  -5   1 6765.64 640.072   2
 -13  -5   1 6176.65 527.578   3
   5  13   1 5445.68 561.608   3
  -5  18   1 6821.02 621.757   3
  -5  18   1 7666.32 599.125   2
  18 -13   1 7147.81 476.539   3
 -13  -5   1 7578.52 673.100   4
  13 -18   1 7496.27 731.617   1
 -18   5   1 6911.79 673.430   2
 -13  -5   4 9951.77 749.344   2
   5  13   4 9306.70 782.360   3
 -13  -5   4 7828.50 506.332   3
  -5  18   4 10219.3 761.745   3
 -18   5   4 9947.83 806.330   4
  18 -13   4 10337.9 841.749   1
  13 -18   4 7361.10 420.776   2
  13 -18   4 9350.24 887.360   1
  -5  18   4 8648.62 660.296   1
 -18   5   4 9841.44 829.420   2
 -13  -5   4 10186.1 739.747   4
 -13  -5   7 2115.18 472.526   2
  18 -13   7 3957.67 862.004   3
 -18   5   7 1804.79 201.948   3
  13 -18   7 2609.91 672.011   1
   5  13   7 1627.98 573.873   3
  -5  18   7 1934.60 568.336   3
  18 -13   7 1813.18 521.670   1
 -13  -5   7 2887.57 761.016   1
 -18   5   7 3006.07 580.052   4
 -18   5   7 2408.34 594.671   2
 -13  -5   7 2181.63 448.542   4
 -18   6  -9 1551.83 488.223   4
  -6  18  -6 6854.75 389.450   4
 -18   6  -6 7941.98 845.034   2
 -12  -6  -6 5964.38 361.254   1
 -12  -6  -6 4734.30 321.018   1
   6  12  -6 6014.35 418.871   4
 -18   6  -6 6155.75 677.427   4
  -6  18  -6 5394.67 363.344   4
 -12  -6  -3 5288.52 494.581   1
   6  12  -3 5584.36 486.821   2
 -18   6  -3 5669.68 648.157   2
 -12  -6  -3 6366.36 696.899   2
  12 -18  -3 5263.57 571.089   1
 -18   6  -3 5358.99 632.640   4
 -12  -6  -3 6868.17 734.724   4
 -18   6   0 8469.34 718.937   2
 -12  -6   0 7823.92 606.639   3
 -12  -6   0 8818.46 724.263   2
   6  12   0 8336.17 626.323   3
  18 -12   0 8933.86 431.452   3
  -6  18   0 8047.80 647.193   3
 -18   6   0 9594.72 775.297   4
  18 -12   0 8818.75 736.050   1
 -12  -6   0 9283.23 757.617   4
  12 -18   0 9551.66 765.759   1
 -12  -6   3 3008.60 486.983   2
  -6  18   3 2618.88 473.242   1
  12 -18   3 2484.84 574.737   1
 -18   6   3 3105.64 524.343   4
 -12  -6   3 2367.15 361.368   3
   6  12   3 3243.90 497.584   3
  -6  18   3 3675.29 522.983   3
  18 -12   3 2791.11 515.942   1
 -18   6   3 3803.93 600.786   2
 -12  -6   3 3632.12 505.871   4
 -12  -6   6 2180.75 448.060   2
  18 -12   6 3283.12 791.656   3
  12 -18   6 2767.87 711.753   1
  -6  18   6 1524.19 390.514   1
   6  12   6 3393.14 622.138   3
  -6  18   6 2145.12 484.710   3
  18 -12   6 3709.20 627.488   1
 -18   6   6 2995.87 580.469   4
 -12  -6   6 2815.09 729.167   1
 -18   6   6 1786.15 538.403   2
 -12  -6   6 2686.26 429.552   4
 -12  -6   9 3481.07 572.248   2
 -12  -6   9 4784.77 707.971   3
  18 -12   9 5073.94 972.811   3
  12 -18   9 2715.05 713.111   1
  -6  18   9 5452.21 790.513   3
   6  12   9 4588.12 819.717   3
  18 -12   9 4776.22 722.488   1
 -18   6   9 4166.16 626.112   4
 -18   6   9 3912.31 775.471   2
 -12  -6   9 3864.53 896.529   1
 -18   7  -7 4706.46 718.570   2
 -18   7  -7 5511.27 677.638   4
 -11  -7  -4 18613.6 1121.07   4
 -18   7  -4 18196.0 1055.84   2
 -11  -7  -4 17165.5 681.630   1
 -11  -7  -4 16900.3 1092.79   2
  -7  18  -4 20105.6 831.721   4
   7  11  -4 16229.2 753.532   2
 -18   7  -4 19058.6 1054.48   4
   7  11  -4 16393.2 785.740   4
  11 -18  -4 19680.1 947.511   1
  11 -18  -1 12340.3 813.137   1
 -11  -7  -1 12283.9 824.648   2
  18 -11  -1 10709.0 373.525   3
   7  11  -1 11282.2 693.820   3
  -7  18  -1 11867.1 774.895   3
  -7  18  -1 14453.7 602.317   2
  18 -11  -1 11358.6 823.569   1
 -18   7  -1 12787.0 873.780   4
 -18   7  -1 11753.5 794.201   2
 -11  -7  -1 12471.8 850.601   4
   7  11  -1 11041.5 684.908   2
  18 -11   2 20615.9 975.167   3
 -11  -7   2 23158.2 1011.48   2
  18 -11   2 21929.7 1103.83   1
 -11  -7   2 19071.0 823.650   3
   7  11   2 21625.6 993.572   3
  -7  18   2 21498.5 1015.41   3
  11 -18   2 23261.6 1201.44   1
 -18   7   2 22553.6 1118.53   4
 -18   7   2 20538.5 1086.89   2
 -11  -7   2 22071.0 1024.03   4
  -7  18   5 3511.09 473.957   1
  18 -11   5 4229.04 574.012   1
  11 -18   5 4686.75 713.830   1
  18 -11   5 4225.98 710.127   3
   7  11   5 3727.27 619.443   3
  -7  18   5 3992.84 582.647   3
 -18   7   5 4094.13 610.294   4
 -11  -7   5 3813.10 757.071   1
 -11  -7   5 3376.40 470.579   4
 -18   7   5 3577.83 636.470   2
 -11  -7   5 4170.62 508.321   2
  18 -11   8 5601.96 970.437   3
   7  11   8 5022.34 797.243   3
  -7  18   8 5312.83 734.949   3
  18 -11   8 4785.09 672.242   1
  11 -18   8 5900.06 904.737   1
 -18   7   8 5361.66 689.723   4
 -18   7   8 5014.70 775.470   2
 -11  -7   8 4450.84 583.093   2
 -11  -7   8 3510.46 827.390   1
 -18   8  -8 13355.2 918.012   4
   8  10  -5 7672.44 531.058   4
 -10  -8  -5 6891.07 418.304   1
 -18   8  -5 8972.75 789.904   2
 -10  -8  -5 6891.25 383.187   1
  10 -18  -5 8537.57 650.291   1
   8  10  -5 5705.52 530.431   2
  -8  18  -5 8085.73 526.262   4
 -18   8  -5 7909.21 751.560   4
 -18   8  -2 21688.6 1051.98   2
  10 -18  -2 23048.3 1021.24   1
 -18   8  -2 23175.3 1136.33   4
 -10  -8  -2 23819.4 1155.86   2
   8  10  -2 23135.3 944.649   3
  -8  18  -2 24633.3 1010.77   4
 -10  -8  -2 22184.2 965.444   1
  -8  18  -2 22252.8 558.045   2
   8  10  -2 22521.7 942.418   2
 -10  -8  -2 26232.5 1219.66   4
  18 -10   1 19869.1 837.846   3
 -10  -8   1 19890.4 948.693   2
 -10  -8   1 17382.0 827.321   3
  18 -10   1 19645.4 1023.14   1
   8  10   1 19523.0 877.806   3
  -8  18   1 19679.9 928.488   3
 -10  -8   1 22218.8 1149.45   1
  10 -18   1 21425.8 1120.19   1
 -18   8   1 20984.0 1090.67   4
 -18   8   1 18979.6 1012.79   2
 -10  -8   1 21438.4 1036.46   4
  18 -10   4 17122.1 990.904   1
 -10  -8   4 18020.9 862.465   2
  18 -10   4 17841.0 1130.46   3
  -8  18   4 14831.8 858.693   1
   8  10   4 16556.8 965.720   3
  -8  18   4 16886.7 926.416   3
  10 -18   4 20269.4 1203.80   1
 -10  -8   4 18781.3 1256.95   1
 -18   8   4 16858.1 1025.83   4
 -18   8   4 17626.5 1078.99   2
 -10  -8   4 17853.3 893.960   4
  18 -10   7 14365.8 1252.30   3
   8  10   7 14382.3 1122.72   3
 -18   8   7 10488.2 422.577   3
  -8  18   7 14221.1 980.779   3
  10 -18   7 13646.7 1126.62   1
  18 -10   7 12405.4 915.188   1
 -10  -8   7 13020.0 1214.38   1
 -18   8   7 12541.9 957.603   4
 -18   8   7 11603.5 1022.43   2
 -10  -8   7 11169.9 744.661   2
 -10  -8   7 11227.2 597.270   4
 -18   9  -9 1326.10 436.153   4
 -18   9  -6 3082.05 600.361   2
  -9  18  -6 3121.44 333.565   4
   9   9  -6 2583.82 345.593   4
 -18   9  -6 2995.94 548.936   4
  -9  -9  -3 8639.32 780.137   4
 -18   9  -3 8006.68 719.397   4
 -18   9  -3 7181.07 674.672   2
   9 -18  -3 7107.02 613.270   1
  -9  -9  -3 7079.76 728.046   2
  -9  18  -3 8227.42 589.215   4
  -9  -9  -3 8512.58 582.464   1
   9   9  -3 7233.05 613.939   2
 -18   9   0 214.893 378.674   4
  -9  -9   0 217.412 352.530   4
 -18   9   0 516.146 395.693   2
  18  -9   0-41.8510 220.887   3
   9 -18   0-554.676 441.633   1
  -9  -9   0 81.6508 346.407   2
   9   9   0 190.542 259.352   3
  -9  18   0 344.548 322.286   3
  -9  18   0 1.74022 289.363   2
  -9  -9   0 256.917 379.103   1
  18  -9   3 7743.08 716.630   3
  -9  -9   3 6456.62 578.208   2
   9   9   3 7090.54 640.031   3
  -9  -9   3 8497.13 640.915   4
  -9  18   3 7587.82 633.996   3
  18  -9   3 7569.85 697.982   1
   9 -18   3 6468.18 754.679   1
  -9  -9   3 8327.47 866.092   1
 -18   9   3 6944.02 663.643   4
 -18   9   3 7937.16 751.047   2
 -18   9   6 3098.97 539.299   4
  -9  -9   6 2453.59 371.424   4
  18  -9   6 4189.52 787.085   3
  -9  -9   6 2322.29 400.397   2
   9   9   6 2896.94 616.734   3
 -18   9   6 1897.32 131.945   3
  -9  18   6 2579.03 526.152   3
  18  -9   6 2476.85 511.007   1
  -9  18   6 2630.27 475.672   1
   9 -18   6 3846.19 739.007   1
 -18   9   6 3228.39 641.501   2
  -9  -9   6 5267.58 836.426   1
  -9  -9   9 1560.53 443.199   2
  -9  -9   9 1527.76 806.382   1
  18  -9   9 498.950 645.739   3
   9   9   9 3596.67 794.271   3
  -9  18   9 1561.83 545.875   3
  18  -9   9 1252.97 483.612   1
 -18   9   9 1432.20 505.002   4
 -18   9   9 1777.93 684.152   2
   9 -18   9 2523.09 708.246   1
 -18  10  -7 12924.7 990.515   2
 -18  10  -7 11178.4 829.331   4
 -18  10  -4 19697.1 1047.88   2
   8 -18  -4 17680.8 842.004   1
  -8 -10  -4 17675.2 698.188   1
 -18  10  -4 17411.4 998.716   4
 -10  18  -4 17683.2 803.320   4
  -8 -10  -1 20546.1 1056.35   4
 -18  10  -1 18702.1 936.869   2
  -8 -10  -1 19359.1 985.024   2
  10   8  -1 19740.7 834.196   3
  -8 -10  -1 21218.3 994.560   1
   8 -18  -1 20791.0 1026.80   1
 -10  18  -1 21588.7 981.979   4
 -10  18  -1 21404.0 751.521   2
 -18  10  -1 19132.8 1034.79   4
  18  -8   2 24152.3 1110.05   1
  18  -8   2 24993.1 1022.35   3
  -8 -10   2 22499.7 936.370   2
  10   8   2 23177.3 1004.44   3
   8 -18   2 23558.7 1175.82   1
 -10  18   2 23448.4 1004.01   3
 -10  18   2 22986.9 1055.82   2
 -18  10   2 23733.9 1128.35   4
  -8 -10   2 24337.4 1262.79   1
 -18  10   2 21989.7 1100.43   2
  -8 -10   2 24722.1 1054.17   4
  -8 -10   5 8465.89 598.956   4
  -8 -10   5 7741.39 567.702   2
  18  -8   5 8854.23 892.049   3
  10   8   5 8444.33 788.681   3
  18  -8   5 9114.38 771.279   1
   8 -18   5 8901.45 910.104   1
 -10  18   5 7383.42 664.359   3
 -18  10   5 7998.84 744.697   4
  -8 -10   5 9992.81 1043.18   1
 -18  10   5 6936.25 751.460   2
  18  -8   8 11938.3 867.112   1
  18  -8   8 15752.4 1343.82   3
  10   8   8 14182.3 1185.31   3
 -18  10   8 13812.8 613.940   3
 -10  18   8 14139.3 1005.24   3
   8 -18   8 12363.3 1172.23   1
 -18  10   8 12365.3 965.751   4
 -18  10   8 12899.4 1124.57   2
  -8 -10   8 15672.1 1382.72   1
  -8 -10   8 11537.7 734.943   2
 -18  11  -8 5054.84 582.142   4
  -7 -11  -5 4029.55 275.801   1
  -7 -11  -5 3872.34 257.709   1
 -18  11  -5 4535.23 607.038   2
  11   7  -5 4377.02 471.051   4
 -11  18  -5 4311.46 444.550   4
 -18  11  -5 5327.14 591.691   4
   7 -18  -5 4009.68 467.135   1
  -7 -11  -2 23284.9 970.943   1
 -18  11  -2 19972.7 987.621   2
  -7 -11  -2 23037.2 1118.00   2
  11   7  -2 19338.3 813.634   3
 -11  18  -2 23191.7 987.551   4
 -18  11  -2 22412.6 1088.75   4
   7 -18  -2 23172.4 1031.28   1
 -11  18  -2 21371.6 656.842   2
  -7 -11   1 12330.7 779.521   4
  18  -7   1 11800.7 611.578   3
  -7 -11   1 12065.5 721.399   2
  11   7   1 12215.5 696.804   3
   7 -18   1 12216.8 870.096   1
 -11  18   1 12247.3 752.969   3
 -18  11   1 12689.3 863.405   4
 -11  18   1 13257.9 863.986   4
 -11  18   1 13179.8 779.519   2
  -7 -11   1 14002.2 943.253   1
 -18  11   1 10737.5 790.898   2
  18  -7   4 19764.3 1126.21   3
  -7 -11   4 17048.8 754.343   2
 -18  11   4 16703.7 1069.47   2
  11   7   4 19388.2 1037.32   3
   7 -18   4 18055.4 1182.56   1
 -11  18   4 18133.6 933.285   3
 -11  18   4 18359.7 1118.24   2
 -18  11   4 18495.8 1041.17   4
  -7 -11   4 18725.3 1240.28   1
  18  -7   4 19057.5 1019.24   1
  18  -7   7 6442.61 886.278   3
  11   7   7 7641.29 888.842   3
 -18  11   7 5777.16 385.659   3
 -11  18   7 5245.67 630.378   3
  18  -7   7 4769.65 608.842   1
 -11  18   7 6950.78 810.466   4
 -18  11   7 5122.73 706.890   4
   7 -18   7 5529.75 848.593   1
 -18  11   7 6440.01 827.458   2
 -11  18   7 8719.86 1028.53   2
  -7 -11   7 7504.27 1016.19   1
  -7 -11   7 4255.92 456.600   2
 -18  12  -9 3045.31 494.500   4
 -18  12  -6 1753.15 500.328   2
 -12  18  -6 1310.63 311.406   4
 -18  12  -6 1421.39 391.614   4
 -12  18  -3 3391.61 318.562   2
 -18  12  -3 3198.20 513.176   2
 -12  18  -3 4017.91 472.554   4
 -18  12  -3 3749.05 544.610   4
  -6 -12  -3 4369.87 466.705   1
   6 -18  -3 3078.81 472.568   1
  18  -6   0 8257.45 385.349   3
  12   6   0 8199.02 552.987   3
  -6 -12   0 10284.2 703.264   2
   6 -18   0 9689.45 761.941   1
 -12  18   0 9545.27 632.799   2
 -18  12   0 8560.28 703.919   4
  -6 -12   0 9782.72 782.097   1
 -18  12   0 8112.57 669.533   2
 -12  18   0 8436.08 691.613   4
  18  -6   3 6684.53 649.209   3
  -6 -12   3 5438.81 496.437   2
  12   6   3 5492.26 592.836   3
   6 -18   3 6186.80 772.265   1
 -12  18   3 5708.51 561.666   3
 -12  18   3 4993.47 649.120   4
 -12  18   3 5011.73 606.974   2
 -18  12   3 5654.66 631.193   4
  -6 -12   3 7391.99 843.257   1
 -18  12   3 6208.56 702.547   2
  -6 -12   6 7217.25 505.091   2
  18  -6   6 10253.8 1012.79   3
  12   6   6 8723.57 880.996   3
   6 -18   6 8855.53 943.823   1
 -18  12   6 8162.75 772.802   4
 -12  18   6 8134.17 703.792   3
 -18  12   6 7249.19 385.277   3
 -12  18   6 9285.32 880.462   4
 -12  18   6 8907.91 936.697   2
 -18  12   6 8886.13 914.155   2
  -6 -12   6 10933.2 1096.98   1
  18  -6   6 7452.66 673.275   1
  -6 -12   9 2801.28 906.726   1
  18  -6   9 3697.14 834.392   3
  18  -6   9 1548.27 431.023   1
  12   6   9 3464.43 754.388   3
 -12  18   9 2058.45 540.664   3
 -12  18   9 2710.60 652.768   4
 -12  18   9 2101.83 715.973   2
   6 -18   9 1607.08 713.684   1
 -18  12   9 2258.25 653.744   2
 -18  12   9 2221.91 581.342   4
 -13  18  -7 1990.87 333.942   4
 -18  13  -7 2608.14 470.163   4
  -5 -13  -4 12165.1 574.310   1
   5 -18  -4 10806.0 654.550   1
 -18  13  -4 11077.5 782.395   2
 -13  18  -4 9597.82 456.068   2
 -13  18  -4 10935.6 690.110   4
 -18  13  -4 10070.7 758.653   4
  13   5  -1 7720.81 520.073   3
   5 -18  -1 7271.91 648.918   1
  -5 -13  -1 8189.23 675.244   2
 -13  18  -1 7548.88 641.296   4
 -13  18  -1 7768.11 533.469   2
 -18  13  -1 7321.47 689.894   4
  -5 -13  -1 8229.89 696.964   1
 -18  13  -1 7048.64 634.252   2
  18  -5   2 22918.4 924.784   3
   5 -18   2 23344.8 1230.71   1
  13   5   2 22871.2 959.902   3
  -5 -13   2 22907.1 868.132   2
 -13  18   2 24379.7 980.298   3
 -13  18   2 24784.1 1158.28   4
 -13  18   2 23429.1 1093.29   2
 -18  13   2 22242.2 1112.15   4
  -5 -13   2 24044.4 1257.83   1
 -18  13   2 22026.7 1110.75   2
  18  -5   5 3824.97 678.906   3
  13   5   5 2812.05 607.322   3
  -5 -13   5 1919.51 312.459   2
 -13  18   5 3556.32 495.024   3
 -18  13   5 2204.48 233.303   3
   5 -18   5 4201.72 728.217   1
 -13  18   5 2864.77 565.921   4
 -13  18   5 2385.19 576.350   2
 -18  13   5 3193.43 577.440   4
  -5 -13   5 4171.44 814.865   1
 -18  13   5 2589.77 577.604   2
  18  -5   8 8774.22 1048.78   3
  13   5   8 8928.89 1005.64   3
   5 -18   8 7833.00 1032.73   1
 -18  13   8 7962.13 542.996   3
 -13  18   8 6554.43 698.716   3
 -13  18   8 8591.36 902.730   4
 -13  18   8 9226.98 1102.30   2
 -18  13   8 7361.22 792.897   4
 -18  13   8 6540.58 891.539   2
  -5 -13   8 9402.92 1162.62   1
 -18  14  -8 2890.04 465.948   4
 -18  14  -5 4007.23 581.225   2
 -14  18  -5 3735.57 340.775   2
   4 -18  -5 4801.34 450.537   1
  -4 -14  -5 3488.23 292.141   1
 -14  18  -5 3383.79 447.475   4
 -18  14  -5 4494.18 572.912   4
 -18  14  -2 12707.4 774.315   2
  14   4  -2 12238.5 597.215   3
   4 -18  -2 12326.6 779.488   1
 -14  18  -2 13298.8 802.320   4
 -18  14  -2 13722.3 880.000   4
 -14  18  -2 12659.7 625.016   2
  -4 -14  -2 14727.4 810.566   1
 -18  14   1 3606.26 531.474   2
  18  -4   1 3687.49 374.972   3
   4 -18   1 4057.62 604.260   1
  14   4   1 3436.46 422.986   3
  -4 -14   1 3361.74 438.750   2
 -14  18   1 3167.55 435.505   3
 -14  18   1 4352.42 573.849   4
 -18  14   1 3122.02 542.481   4
 -14  18   1 4222.54 534.336   2
  -4 -14   1 4961.45 674.592   1
  18  -4   4 9745.80 830.440   3
   4 -18   4 10186.4 943.068   1
 -18  14   4 9076.75 841.947   2
  14   4   4 9928.38 794.299   3
  -4 -14   4 8062.50 479.878   2
 -14  18   4 9914.10 680.577   3
 -18  14   4 7746.81 367.917   3
 -14  18   4 9322.99 803.351   4
 -14  18   4 10983.4 893.905   2
 -18  14   4 9535.45 814.598   4
  -4 -14   4 11269.9 1032.19   1
  -4 -14   7 2441.58 271.022   2
  18  -4   7 5183.59 849.303   3
   4 -18   7 5357.23 904.923   1
  14   4   7 6086.56 853.415   3
  -4 -14   7 4368.66 849.424   1
 -14  18   7 3562.24 545.181   3
 -18  14   7 3831.93 407.890   3
 -14  18   7 4097.15 777.138   2
 -14  18   7 4469.13 682.393   4
 -18  14   7 4760.50 674.211   4
 -18  14   7 3356.51 743.545   2
   3 -18  -6 9703.12 450.611   1
 -18  15  -6 11795.8 849.443   2
 -15  18  -6 10044.1 690.182   4
 -18  15  -6 11024.5 792.475   4
 -15  18  -3 629.906 301.916   2
   3 -18  -3-186.752 346.870   1
 -18  15  -3 438.793 370.972   2
  -3 -15  -3 273.897 315.739   1
 -15  18  -3 343.907 325.202   4
 -18  15  -3 214.361 367.317   4
   3 -18   0 25268.7 1175.93   1
  18  -3   0 26543.9 712.105   3
  15   3   0 25074.1 873.053   3
 -15  18   0 24928.6 1144.86   4
 -18  15   0 25514.7 1173.32   4
 -15  18   0 26895.2 1039.26   2
 -18  15   0 24566.9 1079.67   2
  -3 -15   0 28063.8 1238.29   1
  -3 -15   3 3079.65 694.878   1
  18  -3   3 2462.27 473.047   3
  15   3   3 2643.37 454.678   3
  -3 -15   3 1988.31 327.524   2
   3 -18   3 1821.27 583.791   1
 -15  18   3 1934.76 396.896   3
 -15  18   3 2423.44 483.618   4
 -18  15   3 2395.10 511.952   4
 -15  18   3 2569.54 546.097   2
 -18  15   3 2015.49 533.544   2
 -18  15   6 7218.24 864.777   2
   3 -18   6 7820.13 980.200   1
  18  -3   6 8696.05 904.274   3
  15   3   6 9260.24 909.004   3
 -15  18   6 6689.53 613.834   3
 -18  15   6 6395.06 472.702   3
 -15  18   6 7004.27 778.126   4
 -15  18   6 8375.96 935.119   2
 -18  15   6 7298.52 777.385   4
  -3 -15   6 8708.45 1005.83   1
  18  -3   9 789.278 607.601   3
  15   3   9 953.361 576.874   3
  -3 -15   9 326.067 687.378   1
 -15  18   9 1203.59 500.896   3
   3 -18   9 1052.43 738.077   1
 -15  18   9 513.519 561.183   4
 -18  15   9 153.823 478.012   4
 -15  18   9 316.882 617.200   2
 -18  15   9-330.688 632.688   2
 -18  16  -7 345.330 373.763   2
 -16  18  -7 868.072 339.964   4
 -18  16  -7 275.255 378.649   4
 -18  16  -4 1353.66 400.531   2
 -16  18  -4 1151.65 377.751   2
   2 -18  -4 889.528 331.216   1
 -16  18  -4 744.949 377.937   4
 -18  16  -4 844.780 390.465   4
  -2 -16  -4 749.693 316.452   1
 -16  18  -1 759.772 313.740   2
 -18  16  -1 342.107 326.752   2
  -2 -16  -1 1357.54 413.847   1
  18  -2  -1 827.140 178.774   3
  16   2  -1 853.013 262.770   3
 -18  16  -1 823.349 390.722   4
   2 -18  -1 581.601 429.564   1
 -16  18  -1 692.436 334.764   4
   2 -18   2 10956.8 936.529   1
  18  -2   2 9505.66 629.068   3
  16   2   2 10380.7 670.721   3
 -16  18   2 9687.29 617.169   3
 -16  18   2 10684.6 851.583   4
 -18  16   2 8655.54 771.461   4
 -16  18   2 9906.15 796.809   2
 -18  16   2 9612.91 798.244   2
  -2 -16   2 9028.29 876.927   1
  18  -2   5 4564.62 688.454   3
  -2 -16   5 2425.52 690.462   1
  16   2   5 3128.44 598.707   3
 -16  18   5 3320.35 467.801   3
 -18  16   5 3231.37 361.629   3
   2 -18   5 3673.69 719.572   1
 -16  18   5 3904.89 716.708   2
 -16  18   5 2500.94 542.294   4
 -18  16   5 3255.64 584.432   4
 -18  16   5 3350.23 703.560   2
  18  -2   8 405.803 592.857   3
  16   2   8 1607.42 680.250   3
  -2 -16   8 1840.54 788.868   1
 -16  18   8 1783.23 439.876   3
 -18  16   8 1228.59 354.112   3
   2 -18   8 2265.78 781.514   1
 -16  18   8 1328.03 544.653   4
 -18  16   8 1688.13 556.653   4
 -16  18   8 2254.92 705.424   2
 -18  16   8 2850.16 683.872   2
 -18  17  -8 7832.13 655.419   4
 -17  18  -8 6934.61 586.116   4
   1 -18  -5 9397.72 534.084   1
 -18  17  -5 9138.48 704.597   2
 -17  18  -5 8051.76 622.473   2
  -1 -17  -5 9810.87 511.564   1
 -17  18  -5 9164.41 720.198   4
 -18  17  -5 8982.41 717.492   4
 -18  17  -2 4237.31 589.035   4
  -1 -17  -2 4152.01 534.999   1
   1 -18  -2 3770.01 521.807   1
  17   1  -2 3481.27 293.184   3
 -17  18  -2 4124.54 569.535   4
 -17  18  -2 3451.06 440.926   2
 -18  17  -2 3355.47 485.330   2
  -1 -17   1 15552.0 1052.10   1
 -18  17   1 13675.1 889.702   2
   1 -18   1 14165.7 1014.89   1
  18  -1   1 14556.0 683.920   3
  17   1   1 12117.1 656.842   3
 -17  18   1 14220.7 883.819   2
 -17  18   1 14156.4 941.723   4
 -18  17   1 13201.9 931.648   4
 -18  17   4 1732.79 545.342   2
 -17  18   4 2033.66 510.632   4
  18  -1   4 1776.80 501.343   3
  17   1   4 1071.19 444.420   3
  -1 -17   4 1814.02 676.551   1
   1 -18   4 2406.14 651.627   1
 -17  18   4 1259.44 345.131   3
 -18  17   4 1212.56 301.976   3
 -18  17   4 1189.96 468.052   4
 -17  18   4 1415.45 532.838   2
  -1 -17   7 7891.96 1040.82   1
   1 -18   7 10046.5 1099.69   1
  18  -1   7 9173.54 999.341   3
  17   1   7 8613.19 970.590   3
 -17  18   7 6052.39 583.031   3
 -18  17   7 7018.03 566.111   3
 -17  18   7 7301.20 806.458   4
 -18  17   7 7219.68 789.303   4
 -17  18   7 8344.38 969.841   2
 -18  17   7 8309.15 975.031   2
 -18  18  -6 17559.0 910.045   2
 -18  18  -6 17541.1 945.144   4
 -18  18  -3 298.004 334.440   2
 -18  18  -3-288.463 372.880   4
   0 -18  -3 265.078 372.251   1
  18   0   0 17456.9 694.378   3
 -18  18   0 15815.7 990.685   4
 -18  18   0 16655.3 927.569   2
 -18  18   3-122.511 405.070   4
  18   0   3 420.269 365.806   3
   0 -18   3 550.694 570.436   1
 -18  18   3 165.849 274.223   3
 -18  18   3-303.843 444.343   2
   0 -18   6 29090.4 1690.54   1
 -18  18   6 24441.9 965.305   3
 -18  18   6 26336.6 1379.89   4
 -18  18   6 28116.2 1570.83   2
  18   0   9 658.871 623.393   3
   0 -18   9 448.768 707.919   1
 -18  18   9 106.834 471.661   4
 -18  18   9 951.636 718.209   2
 -19   0  -7 637.124 498.170   4
 -19   0  -7-434.434 570.454   2
 -19   0  -4 2678.54 629.747   4
 -19   0  -4 2723.32 620.888   2
  19 -19  -4 1460.37 512.309   1
 -19   0  -1 175.909 336.396   3
   0  19  -1-212.670 291.475   2
 -19   0  -1-18.1789 447.256   2
   0  19  -1 549.935 399.222   3
  19 -19  -1 1073.62 438.437   1
 -19   0  -1 192.923 446.112   4
 -19   0   2 19563.1 1130.74   2
  19 -19   2 19171.3 1189.60   1
   0  19   2 18570.8 1053.10   3
 -19   0   2 19151.4 1141.33   4
 -19   0   5 555.933 502.669   2
 -19   0   5-189.820 113.364   3
  19 -19   5 257.316 511.543   1
   0  19   5-179.550 428.649   3
 -19   0   5 176.762 463.343   4
  19 -19   8 8941.50 1016.17   1
   0  19   8 10040.0 993.773   3
 -19   0   8 9186.77 852.539   4
 -19   0   8 8668.02 952.872   2
 -19   1  -8-121.144 513.403   4
 -18  -1  -8 1624.51 552.844   4
 -18  -1  -5 584.142 481.109   4
 -19   1  -5 860.102 482.237   4
 -19   1  -5 142.491 516.805   2
 -18  -1  -5 103.782 526.466   2
 -19   1  -2 3229.80 615.691   2
  19 -18  -2 2685.07 397.888   3
 -18  -1  -2 2899.67 565.900   2
  19 -18  -2 2482.11 537.871   1
   1  18  -2 3313.79 566.924   3
  -1  19  -2 2931.84 546.724   3
 -19   1  -2 3877.67 669.628   4
 -18  -1  -2 3798.01 667.944   4
   1  18  -2 3398.30 397.893   2
  18 -19  -2 2726.91 577.048   1
  -1  19  -2 3647.56 361.510   2
 -19   1   1 2240.74 288.690   3
  19 -18   1 3446.20 593.487   1
 -18  -1   1 2416.42 334.543   3
 -19   1   1 2654.75 543.728   2
 -18  -1   1 3182.63 596.963   2
   1  18   1 3627.69 527.707   3
  -1  19   1 2833.99 504.969   3
  18 -19   1 3174.93 612.281   1
 -18  -1   1 3918.91 614.951   4
 -19   1   1 3680.61 594.326   4
  18 -19   4 2647.58 640.914   1
 -19   1   4 2607.85 561.693   2
 -18  -1   4 3404.28 647.214   2
 -18  -1   4 1926.32 219.190   3
  19 -18   4 3605.62 661.519   1
   1  18   4 3078.23 542.898   3
  -1  19   4 2957.30 540.006   3
 -18  -1   4 4009.60 619.943   4
 -19   1   4 3129.48 585.594   4
  19 -18   7 686.981 533.405   1
 -19   1   7 1250.03 575.156   2
 -18  -1   7-140.357 472.027   2
   1  18   7 356.855 521.969   3
  -1  19   7 1019.04 550.322   3
  18 -19   7 687.358 568.986   1
 -19   1   7 993.163 463.084   4
 -18  -1   7 886.432 462.571   4
 -19   2  -9 3977.52 716.608   4
 -19   2  -6 7317.29 845.724   2
 -17  -2  -6 6187.19 843.525   2
  -2  19  -6 6507.37 456.435   4
 -19   2  -6 6465.06 798.081   4
 -17  -2  -6 6705.18 878.663   4
  19 -17  -3 2727.56 381.016   3
 -19   2  -3 4142.96 671.825   2
 -17  -2  -3 4450.78 689.899   2
  17 -19  -3 4184.91 616.463   1
  19 -17  -3 3360.49 584.785   1
   2  17  -3 3737.57 361.471   2
 -19   2  -3 4250.52 674.683   4
 -17  -2  -3 4367.48 691.081   4
 -17  -2   0 3206.41 425.848   3
  -2  19   0 3909.58 450.944   2
 -19   2   0 3106.32 569.287   2
 -17  -2   0 3605.36 584.094   2
  19 -17   0 2809.22 371.301   3
  17 -19   0 3806.18 626.774   1
   2  17   0 3952.18 540.105   3
  -2  19   0 3900.12 539.137   3
 -17  -2   0 3674.21 606.990   4
 -19   2   0 3328.44 584.064   4
  19 -17   0 3884.27 618.291   1
 -17  -2   3 6197.30 713.757   2
  17 -19   3 7115.01 812.080   1
 -17  -2   3 4310.03 349.783   3
   2  17   3 6972.32 687.051   3
  -2  19   3 5798.34 654.879   3
  19 -17   3 5943.64 735.441   1
  17 -19   3 5851.18 563.934   2
 -19   2   3 5600.28 668.745   4
 -17  -2   3 6884.86 720.866   4
 -19   2   3 5946.27 716.369   2
 -17  -2   6 3756.94 647.266   2
  19 -17   6 4058.47 701.357   1
   2  17   6 4644.77 700.726   3
  -2  19   6 4745.27 680.646   3
  17 -19   6 3882.46 727.398   1
 -17  -2   6 4540.72 636.119   4
 -19   2   6 3532.08 585.943   4
 -19   2   6 4985.50 754.752   2
  19 -17   9 4945.81 855.218   1
 -19   2   9 4708.35 827.555   2
   2  17   9 4564.79 828.278   3
  -2  19   9 4301.73 798.566   3
 -17  -2   9 4977.98 954.527   1
 -17  -2   9 4312.70 764.517   2
  17 -19   9 6337.28 974.504   1
 -19   3  -7 3341.57 618.920   4
 -16  -3  -7 2870.74 637.840   4
 -19   3  -7 1402.94 585.791   2
  19 -16  -4 5138.23 430.004   3
 -19   3  -4 7332.61 804.029   2
 -16  -3  -4 6625.28 803.378   2
   3  16  -4 5272.81 353.984   2
  16 -19  -4 7485.37 724.002   1
 -19   3  -4 8402.68 850.133   4
 -16  -3  -4 8528.07 857.713   4
  -3  19  -4 7930.38 613.200   4
   3  16  -1 3443.75 445.891   2
  -3  19  -1 4218.23 390.381   2
 -19   3  -1 2950.66 549.303   2
  19 -16  -1 2503.45 339.950   3
 -16  -3  -1 3172.24 553.487   2
  19 -16  -1 3439.98 604.175   1
   3  16  -1 3903.27 526.566   3
  16 -19  -1 3716.38 601.523   1
  -3  19  -1 2516.60 495.824   3
 -19   3  -1 4934.09 668.511   4
 -16  -3  -1 3833.71 606.294   4
  16 -19   2 10351.2 884.281   1
 -16  -3   2 10200.0 817.093   2
 -16  -3   2 8016.75 513.643   3
   3  16   2 10098.1 794.374   3
  -3  19   2 9337.21 749.080   3
  16 -19   2 8386.67 625.140   2
  19 -16   2 10115.9 844.783   1
 -19   3   2 10931.8 871.901   4
 -16  -3   2 10756.3 852.081   4
 -19   3   2 9295.09 818.895   2
 -19   3   5 1275.93 516.804   2
 -16  -3   5 1225.30 498.554   2
 -16  -3   5 1294.19 273.470   3
   3  16   5 1579.93 525.920   3
  -3  19   5 1208.14 478.813   3
  19 -16   5 1153.92 496.242   1
  16 -19   5 2149.18 620.001   1
  16 -19   5 1218.13 329.204   2
  -3  19   5 1384.64 380.721   1
 -19   3   5 1756.59 536.159   4
 -16  -3   5 1342.67 460.675   4
  19 -16   8 13557.1 1435.48   3
 -16  -3   8 8739.87 765.374   3
  19 -16   8 9757.63 983.371   1
   3  16   8 10329.8 1036.53   3
  -3  19   8 12027.8 1091.93   3
 -16  -3   8 11921.3 1235.89   1
 -19   3   8 10978.1 927.564   4
  16 -19   8 12390.6 1181.67   1
 -19   3   8 9998.86 1021.23   2
 -16  -3   8 10434.8 761.704   4
 -16  -3   8 8790.87 913.345   2
 -19   4  -8 1055.28 501.799   4
  19 -15  -5 5384.90 424.148   3
 -15  -4  -5 6387.93 538.147   1
 -19   4  -5 8551.18 851.051   4
  15 -19  -5 8410.80 755.853   1
 -19   4  -5 8321.44 867.779   2
 -15  -4  -5 7726.28 864.795   2
  -4  19  -5 9243.03 588.156   4
   4  15  -5 7627.27 544.411   4
  -4  19  -5 7635.22 545.856   4
 -15  -4  -5 9834.66 936.742   4
  19 -15  -2 6299.39 687.539   1
  -4  19  -2 6353.95 336.739   2
 -19   4  -2 5395.39 681.475   2
  19 -15  -2 5790.86 391.062   3
 -15  -4  -2 5927.58 709.121   2
   4  15  -2 5835.34 607.756   3
  15 -19  -2 6921.76 699.641   1
 -19   4  -2 6672.56 716.805   4
   4  15  -2 7368.09 550.811   2
 -15  -4  -2 7293.72 789.112   4
 -19   4   1 4187.41 615.371   2
 -15  -4   1 4438.28 586.708   2
 -15  -4   1 4375.17 453.799   3
   4  15   1 5051.80 574.359   3
  -4  19   1 3943.43 530.244   3
  19 -15   1 3929.22 390.020   3
  15 -19   1 4156.63 602.442   1
 -19   4   1 4233.10 616.955   4
 -15  -4   1 4701.96 626.082   4
  19 -15   1 3936.47 610.852   1
  -4  19   4 20.7794 352.009   1
 -19   4   4-412.056 475.781   2
 -15  -4   4 518.161 391.606   2
 -15  -4   4-244.730 260.898   3
   4  15   4-153.454 406.956   3
  -4  19   4 388.774 393.857   3
 -15  -4   4 596.440 416.371   4
  15 -19   4 110.479 526.145   1
  15 -19   4 126.541 276.201   2
  19 -15   4 404.164 440.845   1
 -19   4   4 295.850 395.213   4
  19 -15   7 5453.42 973.219   3
 -15  -4   7 2788.55 534.415   2
 -15  -4   7 3376.98 523.142   4
   4  15   7 3754.84 669.845   3
  19 -15   7 3868.68 699.349   1
  -4  19   7 3919.72 677.910   3
  15 -19   7 3081.56 747.275   1
 -19   4   7 3962.47 656.821   4
 -15  -4   7 4933.42 873.554   1
 -19   4   7 3517.68 679.078   2
 -19   5  -9 2065.63 510.553   4
 -14  -5  -6 1735.49 528.951   4
 -19   5  -6 1204.05 577.233   2
 -19   5  -6 1216.21 491.436   4
 -14  -5  -6 1789.80 568.016   2
  -5  19  -6 1223.70 247.103   4
 -19   5  -3 15580.3 1002.89   2
 -14  -5  -3 16637.0 1067.29   2
   5  14  -3 15467.2 729.954   2
 -19   5  -3 15459.1 1020.13   4
  14 -19  -3 15799.7 943.173   1
 -14  -5  -3 17634.8 1115.04   4
 -14  -5   0 1585.78 469.848   4
  14 -19   0 2435.78 528.713   1
 -19   5   0 2161.43 515.131   2
 -14  -5   0 1528.83 352.538   3
 -14  -5   0 1677.88 441.832   2
  19 -14   0 1745.34 272.699   3
  19 -14   0 1602.26 459.940   1
   5  14   0 1755.27 401.324   3
  -5  19   0 1649.85 357.878   2
  -5  19   0 1361.20 415.351   3
 -19   5   0 1166.92 451.909   4
 -14  -5   3 11188.3 813.424   2
 -14  -5   3 9327.23 565.235   3
   5  14   3 10931.9 812.354   3
  -5  19   3 12690.1 845.230   3
  19 -14   3 11767.3 901.168   1
 -19   5   3 13033.4 929.895   4
  14 -19   3 11610.5 979.099   1
 -14  -5   3 12818.5 866.766   4
 -19   5   3 12149.0 908.547   2
  19 -14   6 358.649 663.569   3
 -14  -5   6-30.5896 417.151   2
  14 -19   6 346.157 574.110   1
   5  14   6 204.579 479.719   3
  -5  19   6 291.084 410.840   3
  19 -14   6-489.081 436.447   1
 -14  -5   6 875.197 673.933   1
 -19   5   6 946.650 567.224   2
 -19   5   6 186.035 411.158   4
 -14  -5   6-164.730 370.485   4
 -14  -5   9 3934.32 703.254   3
  19 -14   9 3867.73 979.374   3
  14 -19   9 4208.04 830.844   1
   5  14   9 4105.00 799.377   3
  -5  19   9 4553.02 776.466   3
  19 -14   9 4636.73 753.877   1
 -19   5   9 3666.71 638.274   4
 -14  -5   9 4082.01 675.545   2
 -14  -5   9 4354.97 919.900   1
 -19   5   9 3556.25 746.114   2
 -19   6  -7 5297.50 794.816   2
 -19   6  -7 6189.92 727.673   4
  19 -13  -4 2807.76 210.978   3
 -13  -6  -4 5071.59 468.359   1
  13 -19  -4 5427.83 607.707   1
 -19   6  -4 5209.69 673.582   2
   6  13  -4 3917.23 434.174   2
 -13  -6  -4 5094.25 680.676   2
  -6  19  -4 6325.97 547.128   4
   6  13  -4 4467.68 497.168   4
 -19   6  -4 5219.53 647.051   4
 -13  -6  -4 6087.20 730.678   4
   6  13  -1 6427.55 563.925   2
  19 -13  -1 6165.60 670.810   1
 -19   6  -1 5557.45 635.131   2
  13 -19  -1 6136.41 663.343   1
 -13  -6  -1 6909.77 690.603   2
  19 -13  -1 6450.26 363.238   3
  -6  19  -1 6428.62 431.007   2
   6  13  -1 5552.09 557.228   3
  -6  19  -1 6386.90 637.604   3
 -19   6  -1 5960.25 687.482   4
 -13  -6  -1 6483.63 695.725   4
  19 -13   2 19258.5 1070.99   1
 -13  -6   2 18819.9 996.254   2
   6  13   2 17408.5 931.874   3
  -6  19   2 18655.2 993.400   3
 -19   6   2 20119.2 1113.04   4
  13 -19   2 19823.6 1157.66   1
 -13  -6   2 20237.2 1048.63   4
 -19   6   2 18528.6 1054.17   2
 -19   6   5 1651.28 508.760   2
  19 -13   5 2969.89 733.118   3
  19 -13   5 1870.21 506.512   1
 -13  -6   5 1518.92 463.550   2
  -6  19   5 1688.05 420.033   1
  13 -19   5 845.125 589.080   1
   6  13   5 1152.44 430.138   3
  -6  19   5 1784.27 502.071   3
 -13  -6   5 1243.08 625.043   1
 -19   6   5 1458.31 439.833   4
 -13  -6   5 1920.59 458.667   4
  19 -13   8 13525.6 1406.55   3
   6  13   8 10281.6 1027.08   3
  -6  19   8 10492.1 965.344   3
  19 -13   8 9498.83 924.101   1
  13 -19   8 12987.3 1189.03   1
 -13  -6   8 12034.3 1268.38   1
 -19   6   8 10553.2 922.582   4
 -19   6   8 10124.5 1003.14   2
 -13  -6   8 8898.19 789.496   2
 -19   7  -8 1766.18 505.021   4
 -19   7  -8 1240.34 542.716   2
 -12  -7  -5 13160.0 1029.40   4
 -19   7  -5 11952.5 978.046   2
 -12  -7  -5 10381.4 524.740   1
 -12  -7  -5 12025.8 1001.28   2
  12 -19  -5 11231.8 770.072   1
   7  12  -5 9122.87 595.881   2
  -7  19  -5 12651.7 647.825   4
   7  12  -5 9386.08 585.753   4
 -12  -7  -5 10696.2 576.043   1
 -19   7  -5 12534.7 940.482   4
 -12  -7  -2 3085.48 562.440   4
   7  12  -2 2059.45 396.632   2
  19 -12  -2 1165.76 125.290   3
 -19   7  -2 2025.94 478.579   2
  -7  19  -2 2195.08 213.035   2
  12 -19  -2 2819.77 497.380   1
 -12  -7  -2 2020.38 484.517   2
   7  12  -2 2123.74 434.509   3
  -7  19  -2 2394.29 232.284   2
 -19   7  -2 2598.30 522.559   4
 -12  -7   1 8676.02 709.555   2
 -12  -7   1 7234.76 600.153   3
   7  12   1 8416.98 657.459   3
  -7  19   1 8732.45 680.728   3
  12 -19   1 9461.97 828.850   1
  19 -12   1 8258.88 747.486   1
 -19   7   1 8391.24 754.324   4
 -12  -7   1 9520.55 759.590   4
 -19   7   1 7826.29 738.501   2
 -12  -7   4 3190.40 509.763   2
  19 -12   4 3404.82 636.774   3
  12 -19   4 3798.94 721.018   1
  -7  19   4 3073.60 506.211   1
 -19   7   4 4301.22 653.626   2
  -7  19   4 3820.75 557.407   3
   7  12   4 3427.24 558.201   3
 -19   7   4 3747.71 595.577   4
 -12  -7   4 3838.32 727.521   1
  19 -12   4 3318.14 609.318   1
 -12  -7   4 3329.20 538.937   4
 -12  -7   7 2366.48 401.340   4
 -12  -7   7 1825.94 448.088   2
  19 -12   7 2756.83 607.045   1
  12 -19   7 1064.92 590.299   1
  19 -12   7 2702.95 776.855   3
   7  12   7 4179.65 758.167   3
  -7  19   7 1896.36 560.697   3
 -19   7   7 3581.52 641.834   4
 -12  -7   7 2033.40 746.743   1
 -19   7   7 2048.09 606.633   2
 -19   8  -9 3288.60 584.887   4
 -11  -8  -6 141.067 132.642   1
 -19   8  -6 886.627 529.854   2
  -8  19  -6 625.038 242.052   4
 -11  -8  -6 832.875 149.345   1
   8  11  -6 127.614 253.028   4
 -19   8  -6 874.979 486.509   4
 -19   8  -3 6292.20 676.305   2
 -11  -8  -3 6482.63 758.475   2
  11 -19  -3 6643.92 635.865   1
  -8  19  -3 7735.87 617.735   4
 -11  -8  -3 6550.25 563.410   1
   8  11  -3 5493.19 552.419   2
 -19   8  -3 6659.50 709.282   4
 -11  -8  -3 6556.10 738.451   4
 -11  -8   0 792.668 383.120   4
  19 -11   0 1293.19 302.123   3
 -19   8   0 588.802 389.606   2
 -11  -8   0 1126.29 392.182   2
   8  11   0 1111.23 351.782   3
  11 -19   0 1273.60 458.088   1
  19 -11   0 1189.74 207.767   3
  -8  19   0 826.165 384.924   3
  -8  19   0 1075.38 339.671   2
  19 -11   0 1374.21 447.605   1
 -19   8   0 1539.85 453.984   4
 -11  -8   0 1238.25 437.080   1
 -11  -8   3 8003.55 660.864   2
  19 -11   3 7513.34 755.251   1
   8  11   3 8162.95 722.735   3
  -8  19   3 7741.68 684.434   3
  11 -19   3 8383.19 856.085   1
 -11  -8   3 9253.13 933.432   1
  19 -11   3 8140.13 761.558   3
 -19   8   3 7787.88 726.818   4
 -19   8   3 8492.12 804.239   2
 -11  -8   3 7899.13 668.920   4
 -11  -8   6 200.561 324.168   4
  11 -19   6 651.305 552.534   1
  19 -11   6 381.828 559.751   3
 -11  -8   6 298.898 366.895   2
   8  11   6-332.700 440.237   3
  -8  19   6 480.942 401.059   3
  19 -11   6-255.929 410.517   1
 -19   8   6 540.861 420.522   4
 -11  -8   6-334.271 575.049   1
 -19   8   6 284.108 458.592   2
 -11  -8   9 4997.15 998.900   1
  11 -19   9 5080.45 934.218   1
 -11  -8   9 2879.28 545.953   2
  19 -11   9 3573.84 958.706   3
 -19   8   9 4495.75 814.429   2
   8  11   9 4906.25 854.816   3
  19 -11   9 3538.16 633.946   1
  -8  19   9 4194.12 727.535   3
 -19   8   9 3408.23 684.904   4
 -19   9  -7 5424.08 772.293   2
 -19   9  -7 5462.01 661.741   4
  -9  19  -7 3935.51 294.622   4
 -10  -9  -4 6898.87 779.412   4
 -19   9  -4 5612.17 635.112   2
 -10  -9  -4 6152.01 764.374   2
  -9  19  -4 6141.84 538.668   4
 -10  -9  -4 5886.03 480.400   1
   9  10  -4 4567.29 530.519   2
 -19   9  -4 5471.67 635.432   4
  10 -19  -4 5822.68 577.002   1
 -19   9  -1 7427.90 690.306   2
 -10  -9  -1 8660.70 752.842   2
  19 -10  -1 6195.35 240.946   3
   9  10  -1 8260.01 614.629   3
  -9  19  -1 5929.12 612.172   4
 -10  -9  -1 9896.11 753.339   1
  -9  19  -1 8845.66 526.324   2
 -19   9  -1 8391.20 753.263   4
  10 -19  -1 7609.57 715.516   1
 -10  -9  -1 9027.35 772.618   4
  19 -10   2 16786.3 875.745   3
 -10  -9   2 15900.2 862.529   2
   9  10   2 15568.2 862.116   3
  -9  19   2 14923.0 858.427   3
  10 -19   2 14975.9 1006.71   1
 -10  -9   2 18554.5 1181.00   1
  19 -10   2 15618.0 956.719   1
 -19   9   2 15694.0 992.769   4
 -19   9   2 14141.4 925.266   2
 -10  -9   2 17597.3 956.195   4
 -10  -9   5 3264.60 462.376   2
  19 -10   5 5199.61 774.184   3
   9  10   5 2655.13 538.352   3
  -9  19   5 3089.59 551.029   3
 -19   9   5 3791.61 607.568   4
  19 -10   5 4019.94 587.400   1
 -10  -9   5 4276.84 823.352   1
 -19   9   5 2852.91 630.343   2
 -10  -9   5 3994.59 502.446   4
  10 -19   5 4097.03 717.486   1
 -10  -9   8 1422.23 787.419   1
 -10  -9   8 1203.23 407.281   2
  19 -10   8 884.067 686.624   3
   9  10   8 1097.52 625.179   3
  -9  19   8 2567.07 578.605   3
  19 -10   8 1254.55 500.627   1
 -19   9   8 1827.04 550.965   4
 -19   9   8 1930.01 676.403   2
  10 -19   8 1475.09 654.546   1
 -19  10  -8 1852.16 487.592   4
 -19  10  -8 924.468 570.486   2
   9 -19  -5 2884.94 464.533   1
 -19  10  -5 2026.92 512.032   2
  10   9  -5 2600.69 406.219   4
 -10  19  -5 2499.70 367.145   4
  -9 -10  -5 2681.19 266.538   1
  -9 -10  -5 2380.84 281.184   1
 -19  10  -5 3068.85 560.462   4
  -9 -10  -2 15817.6 986.109   4
 -19  10  -2 13862.4 885.126   2
  -9 -10  -2 15133.0 835.336   1
  -9 -10  -2 16067.4 994.105   2
  10   9  -2 14612.1 781.178   3
 -10  19  -2 16346.1 866.541   4
 -19  10  -2 14899.4 934.906   4
 -10  19  -2 14703.2 525.325   2
   9 -19  -2 14797.4 857.881   1
  19  -9   1 7389.16 536.921   3
  -9 -10   1 6968.89 613.277   2
  10   9   1 7713.15 609.551   3
 -10  19   1 6672.72 603.188   3
   9 -19   1 7111.44 737.556   1
  -9 -10   1 7486.20 759.059   1
 -19  10   1 7154.83 732.550   4
 -10  19   1 8017.44 645.667   2
 -19  10   1 7211.87 720.516   2
  -9 -10   1 7171.67 689.357   4
  19  -9   4 6390.70 764.439   3
  -9 -10   4 6477.36 573.180   2
  10   9   4 6599.52 683.917   3
 -10  19   4 6788.75 655.709   3
   9 -19   4 7118.74 812.684   1
  19  -9   4 6311.34 680.167   1
  -9 -10   4 6595.46 837.188   1
 -19  10   4 6149.99 648.946   4
 -19  10   4 5736.34 749.823   2
  -9 -10   4 6931.95 602.241   4
  19  -9   7 6407.10 950.369   3
  19  -9   7 4302.19 630.700   1
  10   9   7 5780.59 864.185   3
   9 -19   7 6663.34 936.278   1
 -10  19   7 3715.71 578.677   3
 -19  10   7 5198.96 668.401   4
  -9 -10   7 5576.47 984.987   1
 -19  10   7 5842.66 805.467   2
  -9 -10   7 4380.35 517.443   2
 -19  11  -9 2826.04 547.947   4
 -19  11  -6 1065.70 540.072   2
 -11  19  -6 91.2324 263.913   4
 -19  11  -6 181.463 394.627   4
 -11  19  -3 6311.07 325.924   2
   8 -19  -3 7284.71 618.289   1
 -19  11  -3 7528.14 707.543   2
 -11  19  -3 7593.00 619.090   4
  -8 -11  -3 8009.14 767.816   2
  -8 -11  -3 8855.77 619.501   1
 -19  11  -3 8129.47 736.422   4
  -8 -11   0 917.799 374.974   4
 -19  11   0 571.207 383.087   2
   8 -19   0 93.7505 411.104   1
  19  -8   0 877.028 202.694   3
  11   8   0 263.969 274.450   3
  -8 -11   0 423.071 368.484   2
 -11  19   0 334.226 333.593   3
 -11  19   0 241.529 330.884   4
 -11  19   0 1255.95 362.556   2
 -19  11   0 1043.17 424.129   4
  -8 -11   0 1399.66 486.983   1
  -8 -11   3 7392.04 643.029   4
  19  -8   3 7559.32 740.612   1
  19  -8   3 6887.90 678.940   3
  -8 -11   3 5696.17 526.935   2
  11   8   3 6949.18 653.311   3
   8 -19   3 6451.35 784.819   1
 -11  19   3 6833.52 631.308   3
 -11  19   3 6207.19 689.069   2
 -19  11   3 6679.32 730.531   2
  -8 -11   3 7761.79 886.899   1
 -19  11   3 6180.49 685.609   4
  -8 -11   6 486.568 603.028   1
   8 -19   6 679.251 578.253   1
  19  -8   6 1479.79 534.869   3
  -8 -11   6 488.760 330.392   2
  11   8   6 807.004 467.675   3
 -11  19   6 327.753 384.274   3
  19  -8   6 855.443 406.187   1
 -19  11   6 211.302 71.0506   3
 -11  19   6 954.374 529.522   4
 -19  11   6 831.879 437.515   4
 -19  11   6 1021.15 540.000   2
 -19  11   9 3722.04 780.111   2
  -8 -11   9 5804.07 1016.86   1
  19  -8   9 4128.00 917.637   3
  11   8   9 4041.03 821.709   3
  19  -8   9 4728.43 656.163   1
 -11  19   9 3624.87 627.199   3
 -11  19   9 5747.45 871.884   4
 -11  19   9 5496.10 1005.79   2
 -19  11   9 4525.39 689.457   4
   8 -19   9 5014.86 923.163   1
 -12  19  -7 1560.62 299.387   4
 -19  12  -7 2428.97 492.400   4
 -19  12  -4 4004.35 592.278   2
   7 -19  -4 3794.57 475.799   1
 -12  19  -4 2347.95 183.655   2
 -12  19  -4 4222.78 485.840   4
 -19  12  -4 3554.93 559.805   4
  -7 -12  -4 3867.71 425.593   1
  12   7  -1 10992.8 647.785   3
  -7 -12  -1 10845.9 779.236   2
 -12  19  -1 10068.0 732.217   4
   7 -19  -1 11029.7 810.561   1
  -7 -12  -1 11252.0 784.002   1
 -19  12  -1 10798.7 816.911   4
 -12  19  -1 10846.8 605.406   2
 -19  12  -1 8090.60 699.901   2
 -19  12   2 2378.66 504.839   2
  -7 -12   2 2731.16 620.374   1
  19  -7   2 2689.83 456.746   3
 -12  19   2 1973.67 443.646   2
  12   7   2 1709.40 407.293   3
  -7 -12   2 2292.55 412.101   2
 -12  19   2 2341.13 436.287   3
 -12  19   2 3230.35 536.344   4
 -19  12   2 2428.62 514.089   4
   7 -19   2 3327.10 625.480   1
  19  -7   5 13286.0 1038.36   3
  -7 -12   5 11098.1 641.460   2
  12   7   5 11614.0 925.706   3
   7 -19   5 12157.6 1076.60   1
 -12  19   5 12465.9 828.969   3
 -12  19   5 14179.9 1069.08   4
 -19  12   5 13140.1 955.942   4
  -7 -12   5 15328.1 1243.33   1
 -19  12   5 11669.5 976.658   2
  19  -7   5 11842.8 845.818   1
 -12  19   5 13165.0 1072.87   2
  19  -7   8 2448.61 502.911   1
  -7 -12   8 2442.43 841.562   1
  -7 -12   8 1415.03 346.709   2
  19  -7   8 3865.37 807.268   3
  12   7   8 1906.30 729.534   3
 -12  19   8 1508.82 469.889   3
 -12  19   8 1946.46 650.516   4
 -12  19   8 1480.40 632.436   2
   7 -19   8 1620.27 692.377   1
 -19  12   8 1722.78 495.352   4
 -19  12   8 2421.01 645.226   2
 -19  13  -8 8271.06 737.296   4
   6 -19  -5 1951.09 396.417   1
 -13  19  -5 1870.01 375.655   4
  -6 -13  -5 1804.48 239.358   1
 -19  13  -5 2286.52 510.551   2
 -19  13  -5 2455.04 510.722   4
 -19  13  -2 19568.9 1008.03   2
  13   6  -2 19860.5 826.135   3
 -13  19  -2 21962.1 1009.73   4
   6 -19  -2 20409.1 997.636   1
 -19  13  -2 21514.0 1121.31   4
  -6 -13  -2 22017.8 992.020   1
 -13  19  -2 19255.8 708.297   2
  19  -6   1 7760.10 497.267   3
  13   6   1 6049.01 557.307   3
   6 -19   1 7373.65 737.909   1
  -6 -13   1 6676.65 597.580   2
 -13  19   1 6956.20 617.717   3
 -13  19   1 7181.78 638.031   2
 -13  19   1 6912.43 672.694   4
 -19  13   1 6786.99 702.335   4
  -6 -13   1 8118.42 790.782   1
 -19  13   1 6629.55 689.765   2
  19  -6   4 6572.40 733.438   3
  -6 -13   4 5965.14 476.497   2
  13   6   4 6854.83 694.145   3
   6 -19   4 6363.45 828.682   1
 -13  19   4 6433.25 645.176   3
 -13  19   4 6620.75 709.123   4
 -13  19   4 6846.38 729.915   2
 -19  13   4 6625.11 734.433   4
 -19  13   4 6996.59 785.541   2
  -6 -13   4 6466.30 876.873   1
 -13  19   7 7036.11 918.682   2
  -6 -13   7 4521.87 433.619   2
  19  -6   7 7625.63 967.459   3
  -6 -13   7 4882.30 855.838   1
  13   6   7 6799.26 875.018   3
   6 -19   7 6388.07 967.349   1
 -13  19   7 4823.78 607.961   3
 -19  13   7 4135.18 328.459   3
 -19  13   7 4651.43 661.143   4
 -13  19   7 6673.48 848.164   4
 -19  13   7 4747.60 796.164   2
 -19  14  -9 2837.33 489.955   4
   5 -19  -6 111.076 269.785   1
 -19  14  -6 410.240 451.909   2
 -14  19  -6 563.884 303.485   4
 -19  14  -6-376.949 377.954   4
  -5 -14  -3 15431.2 787.499   1
 -14  19  -3 13652.2 633.297   2
 -19  14  -3 14295.7 886.460   2
 -14  19  -3 13940.9 825.188   4
 -19  14  -3 13607.3 905.051   4
   5 -19  -3 14995.8 827.044   1
 -19  14   0 1664.89 446.867   2
  -5 -14   0 1359.03 478.837   1
  19  -5   0 1646.89 233.880   3
  14   5   0 1909.42 353.001   3
  -5 -14   0 1615.68 414.533   2
 -14  19   0 1393.57 424.554   4
 -19  14   0 1285.68 454.686   4
   5 -19   0 1136.14 460.487   1
 -14  19   0 1748.52 396.265   2
  19  -5   3 18734.3 986.053   3
   5 -19   3 18134.6 1210.31   1
  14   5   3 16684.7 907.964   3
  -5 -14   3 15786.2 697.184   2
 -14  19   3 18216.3 908.769   3
 -14  19   3 16711.2 1036.47   4
 -14  19   3 17317.0 1048.45   2
 -19  14   3 16797.5 1029.96   4
 -19  14   3 16339.5 1056.36   2
  -5 -14   3 20950.7 1293.17   1
  -5 -14   6 1093.53 635.194   1
  19  -5   6 1632.90 616.924   3
  14   5   6 1280.68 533.769   3
  -5 -14   6 1239.87 288.063   2
 -14  19   6 2143.05 466.708   3
 -19  14   6 1367.13 235.688   3
   5 -19   6 191.410 576.330   1
 -14  19   6 1412.04 529.549   4
 -14  19   6 1436.67 559.625   2
 -19  14   6 1059.83 492.340   4
 -19  14   6 1062.54 527.166   2
  19  -5   9 3374.66 857.855   3
  -5 -14   9 5037.48 1005.70   1
  14   5   9 2288.44 780.091   3
 -14  19   9 3160.05 587.424   3
 -14  19   9 2817.76 806.131   2
   5 -19   9 4255.60 922.517   1
 -19  14   9 2604.15 609.650   4
 -14  19   9 2955.73 633.693   4
 -19  14   9 4231.87 805.257   2
 -19  15  -7 3840.48 615.921   2
 -15  19  -7 3022.05 432.184   4
 -19  15  -7 2998.42 503.122   4
 -19  15  -4 429.338 453.490   2
 -15  19  -4 241.692 288.608   2
  -4 -15  -4 168.735 290.972   1
 -15  19  -4 152.410 315.231   4
   4 -19  -4 241.656 331.215   1
 -19  15  -4 741.469 404.742   4
   4 -19  -1 3913.72 583.676   1
  19  -4  -1 3146.33 198.041   3
  15   4  -1 3967.62 422.547   3
 -15  19  -1 3767.16 525.591   4
 -19  15  -1 4397.45 598.322   4
 -15  19  -1 4330.63 457.222   2
  -4 -15  -1 5542.35 624.930   1
 -19  15  -1 3339.36 505.964   2
  19  -4   2 6373.93 547.427   3
   4 -19   2 6980.50 792.655   1
  15   4   2 6540.67 585.449   3
 -15  19   2 7425.69 725.933   2
  -4 -15   2 6042.35 498.759   2
 -15  19   2 6140.63 559.762   3
 -15  19   2 6924.79 701.015   4
 -19  15   2 6264.27 705.759   4
 -19  15   2 6049.13 693.346   2
  -4 -15   2 7251.14 823.791   1
  19  -4   5 8369.31 858.999   3
   4 -19   5 9218.33 1011.54   1
  15   4   5 8732.50 838.049   3
  -4 -15   5 5837.69 387.140   2
 -15  19   5 8265.27 668.636   3
 -19  15   5 6646.98 373.618   3
 -15  19   5 9104.62 875.658   4
 -15  19   5 8645.40 859.261   2
 -19  15   5 7785.72 798.353   4
 -19  15   5 7788.18 873.868   2
  -4 -15   5 9221.79 1030.32   1
  19  -4   8-228.384 595.283   3
  -4 -15   8-160.561 645.650   1
  15   4   8 1207.90 658.110   3
 -15  19   8 68.3808 385.638   3
 -19  15   8 471.613 453.108   4
   4 -19   8 0.61151 601.596   1
 -15  19   8 829.433 529.923   4
 -15  19   8 667.387 645.536   2
 -19  15   8-602.612 620.193   2
 -19  16  -8 8939.36 735.309   4
   3 -19  -5 2280.80 378.328   1
 -19  16  -5 1917.30 501.281   2
 -16  19  -5 1036.83 298.420   2
  -3 -16  -5 1904.12 302.265   1
 -16  19  -5 1747.67 415.345   4
 -19  16  -5 1836.69 444.883   4
 -19  16  -2 10822.7 748.995   2
  -3 -16  -2 11272.5 774.764   1
 -16  19  -2 10547.4 793.034   4
   3 -19  -2 10902.2 761.820   1
  16   3  -2 10260.2 541.859   3
 -19  16  -2 9937.35 808.959   4
 -16  19  -2 9473.38 610.646   2
   3 -19   1 4393.50 662.138   1
  19  -3   1 3940.77 398.323   3
  16   3   1 4143.50 445.488   3
 -16  19   1 4421.36 600.586   4
 -19  16   1 3654.62 574.112   4
 -16  19   1 4777.76 581.497   2
 -19  16   1 3770.94 583.492   2
  -3 -16   1 5607.83 725.149   1
   3 -19   4 9738.52 1021.10   1
  19  -3   4 10356.3 836.129   3
  16   3   4 9580.02 789.567   3
  -3 -16   4 6559.54 395.431   2
 -16  19   4 10036.1 698.778   3
 -19  16   4 6295.32 399.114   3
 -16  19   4 8497.19 821.683   4
 -19  16   4 7889.71 811.555   4
 -16  19   4 10026.9 900.766   2
  -3 -16   4 9688.24 1013.34   1
 -19  16   4 10087.6 880.930   2
 -19  16   7 2396.72 592.288   4
  19  -3   7 2227.21 661.962   3
  -3 -16   7 4189.18 854.264   1
  16   3   7 2386.80 614.016   3
 -16  19   7 2684.01 492.159   3
 -19  16   7 1945.25 332.232   3
   3 -19   7 4771.00 886.782   1
 -16  19   7 2175.94 570.636   4
 -16  19   7 2578.33 761.751   2
 -19  16   7 2872.77 703.948   2
   2 -19  -6 3333.65 314.476   1
 -19  17  -6 5338.36 619.073   2
 -17  19  -6 4125.51 482.414   2
 -17  19  -6 4989.81 570.995   4
 -19  17  -6 3849.21 541.764   4
 -17  19  -3 6175.25 549.235   2
 -19  17  -3 5802.38 619.382   2
  -2 -17  -3 5828.49 554.827   1
 -17  19  -3 6017.33 644.218   4
   2 -19  -3 6634.41 611.324   1
 -19  17  -3 6414.16 684.271   4
  -2 -17   0 4811.68 648.570   1
   2 -19   0 4991.37 676.106   1
  19  -2   0 4365.37 365.066   3
  17   2   0 4279.04 417.578   3
 -19  17   0 3466.64 560.958   4
 -17  19   0 4349.14 597.205   4
 -17  19   0 3782.09 513.466   2
 -19  17   0 3505.69 534.509   2
   2 -19   3 5679.39 870.169   1
  19  -2   3 5522.80 612.745   3
  17   2   3 5628.18 619.161   3
 -17  19   3 4248.47 647.476   4
 -17  19   3 4282.93 474.493   3
 -19  17   3 4285.68 633.415   4
 -17  19   3 5035.12 694.086   2
 -19  17   3 4926.04 685.403   2
  -2 -17   3 5772.88 836.799   1
  -2 -17   6 6886.45 1033.96   1
   2 -19   6 6223.25 909.435   1
  19  -2   6 6442.64 828.991   3
  17   2   6 6614.13 855.836   3
 -17  19   6 4828.60 529.252   3
 -19  17   6 4668.57 443.811   3
 -17  19   6 5676.40 726.432   4
 -19  17   6 5852.31 758.582   4
 -17  19   6 6175.45 834.384   2
 -19  17   6 5982.68 848.427   2
  19  -2   9 5098.80 973.386   3
  17   2   9 5703.03 979.526   3
 -17  19   9 3574.86 575.592   3
  -2 -17   9 5569.24 1047.80   1
   2 -19   9 5905.60 1041.27   1
 -19  17   9 4761.63 748.916   4
 -17  19   9 4292.61 718.373   4
 -17  19   9 4155.76 896.901   2
 -19  17   9 4987.25 908.699   2
 -19  18  -7 678.376 399.854   2
 -18  19  -7 636.545 383.331   4
 -19  18  -7 9.43494 337.488   4
 -18  19  -4 3441.62 492.863   2
 -19  18  -4 4490.81 572.185   2
  -1 -18  -4 3837.17 483.717   1
   1 -19  -4 3448.46 486.097   1
 -18  19  -4 3534.50 537.039   4
 -19  18  -4 4370.79 591.368   4
 -19  18  -1 3458.60 548.987   4
 -19  18  -1 3055.28 484.095   2
  -1 -18  -1 3937.71 596.916   1
  19  -1  -1 3003.76 294.503   3
  18   1  -1 2994.91 334.252   3
   1 -19  -1 3351.52 580.537   1
 -18  19  -1 2823.40 548.177   4
 -18  19  -1 3552.21 502.689   2
  -1 -18   2 4490.15 736.827   1
  19  -1   2 3401.68 451.778   3
  18   1   2 3139.98 467.688   3
   1 -19   2 3508.42 671.341   1
 -18  19   2 3067.41 579.336   4
 -19  18   2 2520.09 551.912   4
 -19  18   2 4284.09 653.419   2
 -18  19   2 3353.36 555.075   2
  19  -1   5 135.592 454.013   3
  18   1   5-85.2241 434.567   3
  -1 -18   5 1005.56 618.410   1
   1 -19   5 908.434 609.528   1
 -18  19   5 417.321 325.664   3
 -19  18   5 140.852 251.277   3
 -18  19   5 551.573 443.959   4
 -19  18   5-99.0596 417.256   4
 -18  19   5-179.781 488.641   2
 -19  18   5 258.612 482.466   2
  19  -1   8 1596.85 768.830   3
  18   1   8 1486.62 676.701   3
  -1 -18   8 575.897 716.179   1
 -18  19   8 677.462 386.673   3
 -19  18   8 638.564 347.366   3
   1 -19   8 93.3539 652.567   1
 -18  19   8 507.164 534.830   4
 -19  18   8 235.836 481.045   4
 -18  19   8 679.750 642.309   2
 -19  18   8 960.058 602.086   2
 -19  19  -8 6021.93 596.579   4
 -19  19  -5 61.5492 380.959   2
   0 -19  -5 293.092 319.980   1
 -19  19  -5-657.875 400.587   4
   0 -19  -2 21169.5 1059.92   1
 -19  19  -2 20764.8 1137.24   4
 -19  19  -2 19642.2 950.184   2
  19   0   1 158.294 272.048   3
   0 -19   1 94.8388 487.651   1
 -19  19   1 175.209 417.443   4
 -19  19   1 712.826 460.704   2
  19   0   4 2291.62 521.753   3
   0 -19   4 2033.79 647.840   1
 -19  19   4 1418.05 338.426   3
 -19  19   4 1607.06 522.745   4
 -19  19   4 1670.14 562.878   2
  19   0   7-177.368 533.330   3
   0 -19   7-388.662 689.705   1
 -19  19   7 347.473 313.884   3
 -19  19   7 56.4965 478.276   4
 -19  19   7 272.432 564.990   2
 -20   0  -8 688.414 547.190   4
 -20   0  -5 69.9645 472.551   4
 -20   0  -5 292.893 495.458   2
  20 -20  -2 4559.37 686.380   1
 -20   0  -2 3831.21 646.787   2
   0  20  -2 4412.95 632.835   3
 -20   0  -2 4496.38 705.090   4
   0  20  -2 4698.15 433.941   2
  20 -20   1 668.126 491.599   1
 -20   0   1 389.174 279.567   3
 -20   0   1 801.523 514.805   2
   0  20   1 652.093 439.694   3
 -20   0   1-525.364 433.271   4
 -20   0   4-141.080 479.055   2
  20 -20   4 1445.82 586.521   1
   0  20   4 488.621 441.713   3
 -20   0   4 920.387 514.882   4
 -20   0   7-92.6599 511.997   2
  20 -20   7 201.596 570.950   1
   0  20   7 283.330 545.658   3
 -20   0   7-108.047 441.686   4
 -20   1  -6 2482.59 670.547   4
 -19  -1  -6 2388.44 630.389   4
 -20   1  -6 2899.81 719.686   2
 -19  -1  -6 2392.74 705.398   2
  20 -19  -3 5283.08 495.827   3
 -20   1  -3 8518.09 879.943   2
 -19  -1  -3 6879.00 799.831   2
  19 -20  -3 8042.79 810.478   1
  -1  20  -3 4700.49 268.836   2
   1  19  -3 5350.67 377.171   2
 -20   1  -3 8840.02 908.560   4
 -19  -1  -3 9764.47 967.124   4
  20 -19  -3 8334.80 828.522   1
 -20   1   0 9924.71 625.189   3
 -19  -1   0 9209.73 644.050   3
 -20   1   0 12500.5 953.037   2
 -19  -1   0 9669.71 883.995   2
   1  19   0 11475.4 872.131   3
  -1  20   0 11481.8 852.950   3
  19 -20   0 12401.9 953.060   1
  20 -19   0 12293.2 972.846   1
 -20   1   0 13301.0 1022.00   4
 -19  -1   0 12708.7 982.672   4
 -20   1   3 7392.58 793.429   2
 -19  -1   3 8887.11 863.997   2
  19 -20   3 9177.18 903.966   1
   1  19   3 8184.90 790.046   3
  20 -19   3 8404.11 857.000   1
  -1  20   3 7906.85 774.711   3
 -20   1   3 8802.51 875.315   4
 -19  -1   3 8298.52 831.985   4
 -20   1   6 1102.11 553.002   2
 -19  -1   6 2301.55 555.817   2
  20 -19   6 2753.54 715.318   1
   1  19   6 2210.06 596.115   3
  -1  20   6 1611.16 542.478   3
 -20   1   6 3065.26 664.720   4
 -19  -1   6 2489.35 564.891   4
  19 -20   6 2225.78 656.952   1
 -20   2  -7 3766.04 695.660   4
 -18  -2  -7 3535.67 698.180   4
 -20   2  -7 2750.53 730.013   2
 -18  -2  -7 3690.14 743.340   2
 -18  -2  -4 114.718 460.843   4
  20 -18  -4 31.8982 289.732   3
 -20   2  -4 364.093 486.168   2
 -18  -2  -4 600.477 550.256   2
  18 -20  -4 1093.33 493.701   1
   2  18  -4-16.6651 145.190   2
 -20   2  -4 697.767 469.556   4
   2  18  -1 12440.3 707.850   2
  -2  20  -1 12954.6 648.674   2
 -20   2  -1 11700.0 915.885   2
 -18  -2  -1 12339.5 946.645   2
  20 -18  -1 12830.1 966.867   1
  20 -18  -1 9766.63 593.793   3
   2  18  -1 12432.9 856.382   3
  -2  20  -1 12289.9 854.851   3
  18 -20  -1 12399.9 945.522   1
 -20   2  -1 12638.3 975.819   4
 -18  -2  -1 11590.1 967.934   4
  20 -18   2 1888.70 559.673   1
 -20   2   2 1606.52 540.741   2
 -18  -2   2 637.776 270.113   3
 -18  -2   2 1069.66 459.594   2
  18 -20   2 1176.22 548.938   1
   2  18   2 1216.95 449.828   3
  -2  20   2 1571.50 464.688   3
 -20   2   2 1727.88 555.528   4
 -18  -2   2 1017.26 485.286   4
  18 -20   5 10300.3 1011.55   1
  20 -18   5 8066.77 885.370   1
   2  18   5 8235.88 790.816   3
  -2  20   5 8221.95 821.100   3
 -20   2   5 9732.42 873.870   4
 -18  -2   5 9041.88 847.693   4
 -20   2   5 8389.00 866.325   2
 -18  -2   5 8703.16 852.235   2
 -20   2   8 1669.00 670.793   2
 -18  -2   8 830.875 541.073   2
  20 -18   8 1621.02 849.236   3
  20 -18   8 2105.02 654.844   1
   2  18   8 1027.29 579.145   3
  -2  20   8 1430.36 593.414   3
  18 -20   8 2232.56 741.504   1
 -18  -2   8 808.897 691.374   1
 -20   2   8 719.276 469.771   4
 -18  -2   8 1563.52 526.548   4
 -20   3  -8 3218.52 675.462   4
 -17  -3  -8 1601.72 533.001   4
 -20   3  -8 2410.45 733.759   2
 -17  -3  -5 576.783 509.809   4
 -20   3  -5 1962.17 582.498   2
 -17  -3  -5 2031.85 644.854   2
 -20   3  -5 1238.00 525.684   4
 -17  -3  -2 2329.83 565.558   4
  -3  20  -2 1988.83 264.093   2
   3  17  -2 1741.95 360.523   2
  20 -17  -2 1842.29 350.396   3
 -20   3  -2 2069.69 530.065   2
  20 -17  -2 1651.39 523.785   1
 -17  -3  -2 2851.75 633.751   2
  17 -20  -2 1507.51 497.036   1
   3  17  -2 1676.37 453.633   3
  -3  20  -2 796.467 406.047   3
 -20   3  -2 2415.71 568.261   4
 -17  -3   1 2198.47 382.006   3
 -20   3   1 1764.56 502.301   2
 -17  -3   1 2803.24 563.379   2
  17 -20   1 3062.49 623.149   1
   3  17   1 2476.18 514.606   3
  20 -17   1 2153.56 541.192   1
  -3  20   1 2094.45 464.572   3
 -20   3   1 3107.90 607.521   4
 -17  -3   1 2982.23 570.602   4
 -17  -3   4 5351.69 685.999   2
 -17  -3   4 3551.18 354.769   3
   3  17   4 4798.81 652.157   3
  -3  20   4 4313.09 634.802   3
  17 -20   4 3974.16 462.597   2
  20 -17   4 3810.39 669.305   1
 -20   3   4 5218.92 708.762   4
 -17  -3   4 4576.73 629.173   4
 -20   3   4 4752.83 700.793   2
  17 -20   4 5412.45 790.816   1
 -20   3   7 1298.03 594.014   2
  20 -17   7 1338.05 765.505   3
 -17  -3   7 2213.74 616.416   2
  20 -17   7 2562.20 643.905   1
   3  17   7 1121.72 560.938   3
  -3  20   7 911.179 487.982   3
 -20   3   7 1443.10 530.821   4
  17 -20   7 1238.54 613.986   1
 -17  -3   7 3027.23 810.025   1
 -17  -3   7 1080.94 478.076   4
 -20   4  -6 9346.52 956.940   2
 -16  -4  -6 8774.59 913.417   2
  -4  20  -6 8687.07 508.743   4
 -16  -4  -6 8682.46 915.759   4
 -20   4  -6 9449.09 906.994   4
  20 -16  -3 2250.23 303.614   3
 -20   4  -3 2930.73 609.446   2
 -16  -4  -3 2421.23 595.302   2
  16 -20  -3 2715.73 536.997   1
 -20   4  -3 3236.81 606.224   4
 -16  -4  -3 4287.76 686.802   4
   4  16  -3 2636.90 396.413   2
 -20   4   0 7933.68 778.981   2
 -16  -4   0 7070.71 594.116   3
 -16  -4   0 8845.73 810.527   2
  20 -16   0 8674.21 813.442   1
  16 -20   0 7147.39 738.815   1
  -4  20   0 8166.30 590.896   2
  20 -16   0 7132.64 479.726   3
   4  16   0 7418.63 677.260   3
  -4  20   0 7613.17 697.848   3
 -20   4   0 8590.36 815.140   4
 -16  -4   0 8443.42 798.857   4
 -16  -4   3 7105.06 741.962   2
 -16  -4   3 5337.80 445.292   3
   4  16   3 6749.11 696.256   3
  -4  20   3 6799.99 697.226   3
  20 -16   3 7284.51 777.196   1
 -20   4   3 7836.42 785.235   4
 -16  -4   3 7453.02 735.025   4
 -20   4   3 6635.66 749.927   2
  16 -20   3 8647.08 914.500   1
 -20   4   6 1145.47 573.761   2
  20 -16   6 1815.49 703.535   3
 -16  -4   6 1825.15 541.287   2
   4  16   6 1108.83 486.180   3
  -4  20   6 1346.04 517.396   3
  16 -20   6 869.788 598.812   1
  20 -16   6 2093.52 577.111   1
 -16  -4   6 811.690 605.629   1
 -20   4   6 2521.48 604.268   4
 -16  -4   6 1537.37 461.377   4
 -15  -5  -7 9375.54 932.381   4
 -20   5  -7 8767.95 958.878   2
 -20   5  -7 8032.89 832.611   4
 -20   5  -4 6202.90 780.314   2
  15 -20  -4 5932.60 649.439   1
 -15  -5  -4 5913.04 751.117   2
   5  15  -4 4823.46 432.007   2
 -15  -5  -4 4888.51 503.691   1
 -20   5  -4 6353.35 730.066   4
 -15  -5  -4 6634.35 807.341   4
   5  15  -1 20316.0 904.902   2
 -20   5  -1 20592.2 1139.87   2
 -15  -5  -1 21384.7 1157.27   2
  -5  20  -1 20715.2 735.433   2
  15 -20  -1 20202.3 1103.20   1
  20 -15  -1 18211.3 647.640   3
   5  15  -1 18929.5 970.585   3
  -5  20  -1 18474.4 1008.96   3
  20 -15  -1 20853.1 1156.48   1
 -20   5  -1 20083.1 1145.88   4
 -15  -5  -1 21116.8 1171.55   4
 -15  -5   2 2070.80 512.182   4
 -20   5   2 1887.20 512.858   2
 -15  -5   2 1280.61 412.514   2
 -15  -5   2 1513.84 344.161   3
   5  15   2 2138.41 482.504   3
  -5  20   2 1688.78 463.521   3
  20 -15   2 1725.39 510.896   1
  15 -20   2 2021.24 569.367   1
 -20   5   2 2166.13 527.170   4
 -15  -5   5 12123.8 859.858   2
  20 -15   5 13637.0 1175.11   3
   5  15   5 12687.2 964.802   3
  -5  20   5 11889.4 907.501   3
  20 -15   5 12887.3 991.519   1
  15 -20   5 12032.7 1093.25   1
 -20   5   5 13572.9 1009.59   4
 -20   5   5 12325.0 1009.53   2
 -15  -5   5 12315.6 860.993   4
 -15  -5   8 2435.90 571.271   2
  20 -15   8 3223.39 917.618   3
   5  15   8 1600.89 630.610   3
  15 -20   8 2640.31 782.286   1
  -5  20   8 693.078 525.492   3
  20 -15   8 1363.56 584.051   1
 -20   5   8 2013.81 601.042   4
 -15  -5   8 2689.55 853.157   1
 -20   5   8 1155.97 627.833   2
 -20   6  -8 375.452 433.155   4
 -20   6  -8-298.457 614.601   2
 -14  -6  -5 3444.64 414.202   1
 -20   6  -5 4663.08 720.028   2
 -14  -6  -5 4188.08 753.436   2
  -6  20  -5 5109.94 492.377   4
   6  14  -5 2096.90 342.771   2
  14 -20  -5 5040.24 600.371   1
 -20   6  -5 5309.57 701.809   4
  -6  20  -5 3909.80 443.608   4
 -14  -6  -5 5564.67 770.200   4
 -20   6  -2 14919.9 980.101   2
  -6  20  -2 14707.6 471.909   2
  20 -14  -2 10920.7 441.275   3
 -14  -6  -2 13964.7 983.665   2
  -6  20  -2 16228.6 520.742   2
  14 -20  -2 15570.8 956.986   1
   6  14  -2 14748.6 872.250   3
 -20   6  -2 16033.0 1051.10   4
   6  14  -2 15115.2 805.848   2
 -14  -6  -2 18342.1 1146.19   4
 -20   6   1 7444.88 724.967   2
 -14  -6   1 7592.54 728.402   2
 -14  -6   1 6579.01 561.577   3
  20 -14   1 7395.72 740.034   1
   6  14   1 7716.61 657.126   3
  -6  20   1 8015.28 710.843   3
  20 -14   1 7580.03 493.787   3
 -20   6   1 7594.13 770.687   4
 -14  -6   1 9587.24 795.129   4
  14 -20   1 8222.26 826.088   1
 -20   6   4 2083.15 530.910   2
  20 -14   4 2753.02 671.630   3
 -14  -6   4 3050.59 540.904   2
  20 -14   4 3057.92 595.824   1
  14 -20   4 1475.45 589.573   1
 -14  -6   4 1630.81 333.474   3
   6  14   4 3140.59 566.833   3
  -6  20   4 2317.08 491.597   3
 -20   6   4 2769.70 558.951   4
 -14  -6   4 2696.26 542.216   4
  20 -14   7 3967.22 701.080   1
 -14  -6   7 2895.44 538.777   2
  20 -14   7 4432.87 922.828   3
   6  14   7 4680.25 790.096   3
  14 -20   7 3774.24 794.174   1
  -6  20   7 4896.90 704.057   3
 -20   6   7 4442.22 674.535   4
 -14  -6   7 4445.25 863.796   1
 -14  -6   7 4455.53 549.759   4
 -20   6   7 3512.54 710.951   2
 -20   7  -9 2528.62 604.226   4
 -20   7  -6 11039.9 1010.62   2
 -13  -7  -6 8393.30 452.394   1
  -7  20  -6 11118.8 548.091   4
 -20   7  -6 10074.9 894.232   4
 -13  -7  -3 1926.50 584.890   4
  13 -20  -3 1435.46 453.922   1
 -20   7  -3 1984.54 524.386   2
 -13  -7  -3 1737.60 532.266   2
  -7  20  -3 2122.19 449.864   4
 -20   7  -3 855.442 407.550   4
   7  13  -3 1158.93 366.031   2
 -20   7   0 6989.11 720.974   2
 -13  -7   0 8171.63 738.119   2
   7  13   0 7360.57 625.597   3
  20 -13   0 6508.72 391.019   3
  -7  20   0 6890.28 645.911   3
 -20   7   0 7020.75 728.687   4
  20 -13   0 7333.22 730.073   1
 -13  -7   0 7035.46 719.640   4
  13 -20   0 7220.31 763.280   1
 -20   7   3 3248.55 610.181   2
  20 -13   3 2437.94 548.282   3
 -13  -7   3 3915.03 540.926   2
 -13  -7   3 4366.20 764.337   1
  13 -20   3 3432.79 694.870   1
  -7  20   3 3208.34 529.394   3
   7  13   3 2834.81 507.665   3
 -20   7   3 4682.44 655.234   4
  20 -13   3 3489.05 580.146   1
 -13  -7   3 3581.32 543.811   4
 -13  -7   6 1074.15 391.393   4
  20 -13   6 1543.52 643.846   3
 -13  -7   6 1005.00 429.490   2
  13 -20   6 787.861 636.760   1
  20 -13   6 1492.75 523.851   1
   7  13   6 1841.39 608.790   3
  -7  20   6 1572.69 484.207   3
 -20   7   6 1495.54 517.747   4
 -13  -7   6 1706.45 671.959   1
 -20   7   6 927.808 524.067   2
 -13  -7   9 1874.48 507.884   2
  20 -13   9 2187.20 861.234   3
  13 -20   9 774.193 668.658   1
  20 -13   9 2420.21 640.696   1
   7  13   9 2989.25 764.806   3
  -7  20   9 1956.36 612.033   3
 -20   7   9 3034.41 724.131   2
 -20   7   9 1003.90 506.212   4
 -13  -7   9 1710.18 752.161   1
 -20   8  -7 8476.07 935.503   2
 -20   8  -7 6973.88 754.972   4
 -12  -8  -4 2821.19 596.386   4
 -20   8  -4 1677.88 518.439   2
  12 -20  -4 1973.94 455.234   1
 -12  -8  -4 2326.72 586.393   2
 -12  -8  -4 1575.90 328.200   1
  -8  20  -4 2056.57 397.526   4
 -12  -8  -4 2085.07 402.668   1
   8  12  -4 1208.43 371.000   2
 -20   8  -4 2962.90 585.191   4
  12 -20  -1 14139.2 930.765   1
  20 -12  -1 10176.6 449.206   3
 -20   8  -1 14362.9 936.873   2
 -12  -8  -1 14815.7 962.483   2
  20 -12  -1 12405.1 409.803   3
   8  12  -1 13609.5 790.680   3
  -8  20  -1 12850.5 847.171   3
  -8  20  -1 17225.1 703.882   2
 -20   8  -1 13584.4 952.793   4
 -12  -8  -1 15526.0 1009.29   4
  20 -12   2 5748.66 643.010   3
 -12  -8   2 5249.11 598.246   2
   8  12   2 4837.58 578.215   3
  -8  20   2 4421.36 529.192   3
  20 -12   2 6303.26 706.174   1
 -12  -8   2 7407.96 836.975   1
  12 -20   2 5631.92 766.146   1
 -20   8   2 5073.19 651.516   4
 -20   8   2 4864.35 653.112   2
 -12  -8   2 7049.07 699.779   4
 -12  -8   5 6073.51 625.939   2
  20 -12   5 8882.97 936.089   3
   8  12   5 6800.22 769.062   3
  -8  20   5 5218.47 638.804   3
  12 -20   5 6371.04 847.233   1
 -12  -8   5 7416.32 960.177   1
 -20   8   5 6862.39 755.448   4
  20 -12   5 5916.84 701.176   1
 -12  -8   5 6654.94 621.681   4
 -20   8   5 5692.44 759.498   2
 -12  -8   8 1124.43 451.738   2
  12 -20   8 369.351 660.955   1
  20 -12   8 1933.65 738.099   3
   8  12   8 186.698 549.938   3
  20 -12   8 1480.63 589.463   1
  -8  20   8 1836.29 574.932   3
 -20   8   8 1601.98 532.776   4
 -20   8   8 1375.32 651.847   2
 -12  -8   8 1538.80 743.612   1
 -20   9  -8 5910.82 814.763   2
 -20   9  -8 4484.93 615.753   4
 -20   9  -5 5328.46 727.498   2
  11 -20  -5 6367.34 614.327   1
 -11  -9  -5 4829.26 372.433   1
  -9  20  -5 5855.97 505.992   4
 -11  -9  -5 6012.31 444.232   1
 -20   9  -5 6534.26 730.021   4
 -20   9  -2 6850.85 714.411   2
  11 -20  -2 7488.55 693.344   1
 -11  -9  -2 7557.04 761.257   2
   9  11  -2 7754.05 639.703   3
  -9  20  -2 8854.18 696.776   4
 -11  -9  -2 7612.21 657.883   1
  -9  20  -2 6994.60 370.385   2
 -20   9  -2 7640.83 753.391   4
 -11  -9  -2 7843.64 791.481   4
  20 -11   1 10040.1 843.010   1
  20 -11   1 10574.0 660.972   3
 -11  -9   1 11106.9 791.455   2
   9  11   1 10753.8 732.380   3
 -11  -9   1 12078.4 967.397   1
  -9  20   1 11321.2 791.929   3
  -9  20   1 11459.5 751.034   2
  11 -20   1 11483.8 928.527   1
 -20   9   1 10350.4 838.939   4
 -20   9   1 9997.03 814.107   2
 -11  -9   1 12463.6 886.981   4
  20 -11   4 5717.18 758.289   3
 -11  -9   4 4285.71 525.966   2
 -11  -9   4 6543.95 874.255   1
  20 -11   4 5056.49 662.954   1
   9  11   4 4818.39 610.562   3
  -9  20   4 5169.11 591.510   3
  11 -20   4 5817.08 821.701   1
 -20   9   4 5355.23 709.868   4
 -20   9   4 5379.74 754.682   2
 -11  -9   4 6241.83 632.436   4
 -20   9   7 5225.86 770.492   2
  20 -11   7 7350.59 990.315   3
   9  11   7 5888.35 827.262   3
  -9  20   7 5719.77 704.105   3
  11 -20   7 6484.02 922.394   1
 -11  -9   7 8468.44 1069.84   1
 -20   9   7 6289.56 769.018   4
  20 -11   7 5474.23 716.711   1
 -11  -9   7 5771.32 529.472   4
 -11  -9   7 5482.48 620.001   2
 -20  10  -9 346.889 413.454   4
 -20  10  -6 5282.33 760.872   2
 -10  20  -6 3889.94 413.866   4
 -20  10  -6 5060.17 637.397   4
 -10 -10  -3 649.092 441.302   4
  10 -20  -3-134.448 359.378   1
 -20  10  -3-385.376 428.491   2
 -10 -10  -3 378.885 439.289   2
 -10  20  -3 290.436 324.027   4
 -20  10  -3 530.227 460.746   4
 -10 -10  -3 616.176 345.786   1
  20 -10   0 4212.62 362.700   3
 -10 -10   0 4505.70 588.025   2
  10 -20   0 4194.85 619.933   1
  10  10   0 4089.84 503.877   3
  20 -10   0 4114.41 289.494   3
 -10  20   0 4587.43 551.763   3
 -10  20   0 2835.99 521.962   4
 -10  20   0 5262.26 524.230   2
 -10 -10   0 5882.19 700.786   1
 -20  10   0 5124.03 649.490   4
 -20  10   0 4665.89 629.770   2
 -10 -10   0 5483.10 652.966   4
 -20  10   3-182.880 431.675   2
 -10 -10   3-47.4221 337.916   4
  10 -20   3 733.474 565.255   1
  20 -10   3 226.728 421.010   1
  20 -10   3-230.634 396.208   3
 -10 -10   3-44.8876 356.572   2
  10  10   3 586.911 390.758   3
 -10  20   3 57.0552 365.005   3
 -20  10   3 150.711 425.092   4
 -10 -10   3-64.3796 529.901   1
 -10 -10   6 4145.90 532.786   2
  20 -10   6 5750.04 855.939   3
  20 -10   6 4205.52 655.402   1
  10  10   6 4843.21 743.633   3
 -10  20   6 3882.40 593.290   3
 -10 -10   6 5733.71 909.214   1
 -20  10   6 4207.63 657.394   4
 -20  10   6 4190.64 727.043   2
  10 -20   6 5074.19 820.807   1
 -10 -10   6 4199.17 479.898   4
  10 -20   9 29.5145 629.628   1
 -10 -10   9 401.751 749.776   1
  20 -10   9 1087.00 744.510   3
  10  10   9 499.849 601.587   3
 -10  20   9-237.430 462.110   3
 -10  20   9-727.162 605.744   4
 -20  10   9-20.4595 444.348   4
 -20  10   9-915.576 597.459   2
  20 -10   9 131.239 449.387   1
 -20  11  -7 6090.78 825.751   2
 -11  20  -7 3941.36 374.009   4
 -20  11  -7 5821.13 695.541   4
 -20  11  -4 5555.33 675.549   2
   9 -20  -4 5020.42 565.543   1
 -11  20  -4 5007.05 522.663   4
  -9 -11  -4 5284.19 484.799   1
 -20  11  -4 5003.16 636.634   4
  -9 -11  -1 10779.3 858.035   4
 -20  11  -1 9629.80 771.527   2
  -9 -11  -1 10118.5 806.601   2
  11   9  -1 10376.6 676.947   3
 -11  20  -1 10778.0 772.705   4
  -9 -11  -1 10439.7 785.255   1
 -11  20  -1 11188.5 608.088   2
   9 -20  -1 9982.68 808.276   1
 -20  11  -1 10911.6 873.190   4
  -9 -11   2 7532.48 703.296   4
  20  -9   2 7213.94 616.569   3
 -11  20   2 7267.58 696.800   2
  20  -9   2 6191.59 704.634   1
  -9 -11   2 6614.46 610.406   2
  11   9   2 5912.79 604.667   3
 -11  20   2 6259.08 620.029   3
   9 -20   2 6124.13 767.781   1
  -9 -11   2 7241.21 843.570   1
 -20  11   2 6366.83 704.042   4
 -20  11   2 5713.36 711.720   2
 -20  11   5 6850.10 760.844   4
  20  -9   5 7655.15 874.223   3
  -9 -11   5 6046.53 557.990   2
  11   9   5 6775.45 753.166   3
 -11  20   5 7043.84 696.067   3
   9 -20   5 7644.03 921.235   1
  20  -9   5 6486.09 698.319   1
 -11  20   5 8260.35 894.280   2
  -9 -11   5 8899.83 997.419   1
 -20  11   5 6830.82 799.755   2
  -9 -11   8 4733.93 500.360   2
  20  -9   8 8612.59 1083.14   3
  11   9   8 6642.95 930.932   3
 -11  20   8 5075.30 707.863   3
  20  -9   8 5804.29 704.883   1
   9 -20   8 5766.61 926.464   1
 -11  20   8 7262.71 993.369   2
 -11  20   8 6906.31 925.984   4
 -20  11   8 5697.74 788.363   4
 -20  11   8 6086.77 867.970   2
  -9 -11   8 7088.38 1102.75   1
 -20  12  -8 1995.65 626.524   2
 -20  12  -8 1596.46 477.657   4
  -8 -12  -5 4940.99 362.508   1
 -20  12  -5 5389.40 708.231   2
  -8 -12  -5 4319.36 320.281   1
 -12  20  -5 5027.04 498.001   4
   8 -20  -5 5218.59 557.861   1
 -20  12  -5 4012.67 604.935   4
 -20  12  -2 5585.11 650.542   2
  -8 -12  -2 5115.57 576.442   1
  -8 -12  -2 5965.11 688.542   2
  12   8  -2 5642.01 538.844   3
 -12  20  -2 5613.84 584.153   4
 -20  12  -2 5611.03 665.880   4
   8 -20  -2 5803.92 635.797   1
 -12  20  -2 5541.81 396.501   2
  20  -8   1 13916.2 657.658   3
  -8 -12   1 13542.3 804.189   2
  12   8   1 14251.2 803.037   3
 -12  20   1 13062.5 821.134   3
   8 -20   1 14961.0 1019.35   1
 -12  20   1 13631.5 912.713   4
 -12  20   1 14153.5 835.428   2
  -8 -12   1 15369.1 1039.05   1
 -20  12   1 12434.3 911.309   4
 -20  12   1 13572.3 914.780   2
  -8 -12   4 2139.32 655.495   1
  20  -8   4 2258.83 562.070   3
  20  -8   4 1801.72 486.303   1
  12   8   4 1661.85 485.712   3
  -8 -12   4 1115.59 365.499   2
 -20  12   4 1681.99 577.546   2
 -12  20   4 2194.13 455.353   3
 -12  20   4 2234.14 602.121   4
 -12  20   4 2244.22 561.292   2
 -20  12   4 1792.95 483.338   4
   8 -20   4 2248.77 641.109   1
  -8 -12   7 6453.79 561.756   2
  20  -8   7 8766.97 1038.87   3
  12   8   7 9280.64 969.514   3
   8 -20   7 8913.01 1041.08   1
 -12  20   7 7493.47 721.263   3
 -12  20   7 9292.53 993.313   4
 -12  20   7 10377.2 1115.83   2
  20  -8   7 7194.35 722.135   1
 -20  12   7 8665.06 862.286   4
 -20  12   7 7065.78 877.887   2
  -8 -12   7 10563.0 1199.89   1
 -20  13  -9 1508.71 437.098   4
 -20  13  -6 1333.44 537.499   2
   7 -20  -6 1183.86 351.064   1
 -13  20  -6 1289.94 322.749   4
 -20  13  -6 1697.94 454.322   4
 -13  20  -3 3486.38 335.701   2
 -20  13  -3 4009.54 582.185   2
 -13  20  -3 4037.21 498.639   4
 -20  13  -3 3106.44 556.365   4
  -7 -13  -3 3917.07 512.936   1
   7 -20  -3 3300.55 509.951   1
  20  -7   0 6469.30 358.738   3
  13   7   0 6844.23 558.368   3
  -7 -13   0 6742.27 650.791   2
   7 -20   0 7175.24 747.267   1
 -13  20   0 6308.48 652.898   4
 -13  20   0 7112.35 594.594   2
 -20  13   0 7939.66 768.344   4
  -7 -13   0 8420.28 809.628   1
 -20  13   0 6481.07 650.017   2
  -7 -13   3 1338.62 562.580   1
  20  -7   3 1789.06 448.234   3
  13   7   3 2043.93 452.245   3
  -7 -13   3 1494.50 361.875   2
 -13  20   3 805.106 358.492   3
 -13  20   3 1539.73 482.653   4
 -13  20   3 1985.07 506.710   2
 -20  13   3 2097.64 523.090   4
   7 -20   3 1909.80 590.086   1
 -20  13   3 1897.26 532.792   2
  20  -7   6 9938.59 825.104   1
  20  -7   6 12503.5 1115.33   3
  -7 -13   6 8213.08 557.883   2
  13   7   6 12315.9 1014.58   3
   7 -20   6 11667.5 1136.05   1
 -13  20   6 9574.38 772.025   3
 -13  20   6 10678.8 970.205   4
 -13  20   6 10981.7 1018.57   2
 -20  13   6 9261.51 880.524   4
 -20  13   6 10714.3 998.811   2
  -7 -13   6 12520.9 1219.07   1
 -20  13   9 3829.64 700.714   4
  -7 -13   9 5250.51 995.560   1
  20  -7   9 3990.53 872.845   3
  13   7   9 4484.39 848.349   3
 -13  20   9 3595.59 611.129   3
 -13  20   9 3901.63 767.815   4
 -13  20   9 5168.61 1023.04   2
   7 -20   9 4412.13 934.297   1
 -20  13   9 3915.64 831.865   2
 -14  20  -7 3421.90 424.522   4
 -20  14  -7 3660.56 600.997   4
  -6 -14  -4 3666.85 427.835   1
   6 -20  -4 3291.29 484.155   1
 -14  20  -4 2585.70 292.455   2
 -20  14  -4 3165.41 581.522   2
 -14  20  -4 2804.13 439.877   4
 -20  14  -4 2826.38 560.982   4
  14   6  -1 8569.25 588.627   3
  -6 -14  -1 8760.33 743.939   2
   6 -20  -1 8455.94 731.669   1
 -14  20  -1 8516.42 718.535   4
 -20  14  -1 8590.64 758.006   4
 -14  20  -1 7405.18 557.688   2
  -6 -14  -1 9186.05 785.068   1
 -20  14  -1 7264.66 674.335   2
  20  -6   2 15041.8 806.943   3
  14   6   2 16326.2 878.630   3
   6 -20   2 17253.6 1148.58   1
  -6 -14   2 15234.8 786.274   2
 -14  20   2 16319.2 881.068   3
 -14  20   2 16697.6 1018.59   4
 -14  20   2 16953.8 994.261   2
  -6 -14   2 17425.2 1158.92   1
 -20  14   2 16265.2 1022.85   2
 -20  14   2 15735.1 1026.64   4
  -6 -14   5 4787.92 850.595   1
  20  -6   5 3749.50 652.476   3
  -6 -14   5 3422.28 383.337   2
  14   6   5 3685.95 647.557   3
 -14  20   5 3716.29 550.953   3
 -14  20   5 3729.90 667.033   4
   6 -20   5 3510.98 748.438   1
 -14  20   5 3497.60 701.242   2
 -20  14   5 3422.41 594.534   4
 -20  14   5 4150.78 718.972   2
  -6 -14   8 1510.90 840.873   1
  20  -6   8 2271.71 762.766   3
  14   6   8 1808.20 668.472   3
 -14  20   8 1343.41 468.900   3
 -14  20   8 1256.38 579.048   4
 -14  20   8 880.123 642.949   2
   6 -20   8 1566.21 753.354   1
 -20  14   8 1560.93 530.480   4
 -20  14   8 2233.42 758.598   2
 -20  15  -8 651.487 348.143   4
 -20  15  -5 13348.3 943.153   2
   5 -20  -5 12347.8 703.721   1
  -5 -15  -5 13629.1 545.299   1
 -15  20  -5 12730.1 791.621   4
 -20  15  -5 12646.2 905.267   4
 -15  20  -2 1829.83 354.920   2
 -20  15  -2 1441.53 446.016   2
   5 -20  -2 2103.85 529.248   1
  -5 -15  -2 1150.78 412.467   1
  15   5  -2 1698.82 355.994   3
 -15  20  -2 2115.35 479.446   4
 -20  15  -2 2264.52 507.285   4
  20  -5   1 20125.8 747.134   3
   5 -20   1 20898.5 1185.45   1
  15   5   1 21997.9 936.214   3
  -5 -15   1 19399.4 907.330   2
 -15  20   1 18850.4 934.800   3
 -15  20   1 20835.2 1135.34   4
 -20  15   1 21281.7 1164.63   4
 -15  20   1 20526.0 1039.82   2
  -5 -15   1 23349.2 1284.15   1
 -20  15   1 20186.8 1083.03   2
  20  -5   4 7330.31 758.291   3
   5 -20   4 6707.43 854.415   1
  15   5   4 6621.30 700.928   3
  -5 -15   4 6120.63 468.076   2
 -20  15   4 7366.70 831.197   2
 -15  20   4 7149.82 639.446   3
 -15  20   4 6631.05 754.102   4
 -15  20   4 7212.96 801.621   2
 -20  15   4 6608.51 757.198   4
  -5 -15   4 8564.82 986.403   1
  20  -5   7 9256.57 1063.60   3
  15   5   7 9519.67 995.292   3
   5 -20   7 8217.21 1064.59   1
 -15  20   7 8436.05 755.845   3
 -15  20   7 7796.23 905.632   4
 -20  15   7 8579.45 868.841   4
 -15  20   7 8677.46 1040.92   2
 -20  15   7 6656.83 910.030   2
  -5 -15   7 9477.67 1133.55   1
 -20  16  -6 1684.32 474.482   4
 -20  16  -6 990.676 498.675   2
   4 -20  -6 1305.99 285.451   1
 -16  20  -6 807.823 346.754   4
 -16  20  -3 7137.20 550.502   2
 -20  16  -3 8057.81 732.241   2
  -4 -16  -3 9055.26 663.770   1
 -16  20  -3 8726.29 729.295   4
   4 -20  -3 7589.16 679.451   1
 -20  16  -3 7485.53 760.060   4
  20  -4   0 8081.42 427.807   3
   4 -20   0 9090.87 822.051   1
  16   4   0 8304.96 571.583   3
 -16  20   0 8064.33 735.897   4
 -20  16   0 9284.28 822.598   4
 -16  20   0 9011.79 698.640   2
 -20  16   0 8144.99 740.890   2
  -4 -16   0 9033.14 828.258   1
  20  -4   3 4308.13 547.875   3
  -4 -16   3 3681.94 695.164   1
  16   4   3 3409.51 501.588   3
  -4 -16   3 3158.81 393.993   2
 -16  20   3 3498.69 482.698   3
   4 -20   3 3586.82 728.094   1
 -16  20   3 3354.06 594.122   4
 -20  16   3 4040.51 653.762   4
 -16  20   3 3077.67 582.795   2
 -20  16   3 3946.90 651.737   2
  20  -4   6 10874.6 1029.47   3
   4 -20   6 9458.26 1092.53   1
  16   4   6 10206.7 973.886   3
 -16  20   6 8317.73 690.331   3
 -20  16   6 7115.08 424.576   3
 -16  20   6 10504.2 947.555   4
 -16  20   6 9711.49 1004.76   2
 -20  16   6 9313.66 888.832   4
 -20  16   6 9930.60 962.677   2
  -4 -16   6 11257.5 1180.81   1
 -20  17  -7 897.298 486.265   2
 -17  20  -7 1475.33 385.731   4
 -20  17  -7 1353.54 449.847   4
 -17  20  -4 5657.57 535.532   2
 -20  17  -4 5211.84 651.440   2
  -3 -17  -4 5085.82 479.424   1
 -17  20  -4 4364.54 571.002   4
 -20  17  -4 4602.41 610.143   4
   3 -20  -4 5558.27 578.541   1
 -17  20  -1 1828.19 406.366   2
  -3 -17  -1 2045.54 533.298   1
  20  -3  -1 1645.84 191.359   3
  17   3  -1 2749.44 390.964   3
 -17  20  -1 2691.57 518.685   4
   3 -20  -1 1730.17 505.897   1
 -20  17  -1 2089.21 516.458   4
 -20  17  -1 3027.24 536.214   2
  20  -3   2 3543.85 447.802   3
  17   3   2 3025.55 443.005   3
   3 -20   2 3867.45 706.683   1
 -17  20   2 2557.47 410.959   3
 -17  20   2 3316.30 609.245   4
 -20  17   2 2862.44 566.103   4
 -17  20   2 3366.97 589.930   2
 -20  17   2 3217.65 609.925   2
  -3 -17   2 4067.12 738.191   1
  20  -3   5 1566.58 546.152   3
  -3 -17   5 1517.10 680.588   1
  17   3   5 284.848 495.805   3
 -17  20   5 1862.93 533.416   4
   3 -20   5 1354.51 664.519   1
 -17  20   5 1588.04 417.480   3
 -20  17   5 1196.02 256.503   3
 -20  17   5 804.248 442.454   4
 -17  20   5 203.317 487.764   2
 -20  17   5 1784.68 587.211   2
   3 -20   8 5428.12 999.480   1
  20  -3   8 3562.77 773.101   3
  17   3   8 3917.47 801.045   3
  -3 -17   8 4040.50 969.841   1
 -17  20   8 1778.33 448.415   3
 -17  20   8 2334.13 627.101   4
 -20  17   8 2453.59 623.976   4
 -17  20   8 2729.63 787.177   2
 -20  17   8 3027.57 746.024   2
 -20  18  -8 1671.69 455.810   4
   2 -20  -5 9432.61 614.063   1
 -20  18  -5 9732.07 804.399   2
 -18  20  -5 8470.45 625.049   2
  -2 -18  -5 9623.83 547.383   1
 -18  20  -5 9646.89 770.744   4
 -20  18  -5 9151.92 797.705   4
 -18  20  -2 624.489 334.885   2
 -20  18  -2 1558.21 457.770   4
 -20  18  -2 305.977 381.619   2
  -2 -18  -2 1516.13 460.864   1
  18   2  -2 987.917 273.307   3
 -18  20  -2 1023.18 433.844   4
   2 -20  -2 931.422 433.786   1
   2 -20   1 13949.4 1065.27   1
  20  -2   1 12671.6 655.120   3
  18   2   1 12630.8 711.843   3
 -18  20   1 13811.9 965.948   4
 -20  18   1 12183.2 921.837   4
 -18  20   1 14426.2 934.556   2
 -20  18   1 12917.0 907.795   2
  20  -2   4 264.410 385.073   3
  -2 -18   4-990.940 659.844   1
  18   2   4 34.8827 409.850   3
   2 -20   4 141.596 568.191   1
 -18  20   4 113.519 303.654   3
 -18  20   4 373.558 419.967   4
 -20  18   4 351.484 477.920   4
 -18  20   4-200.706 493.992   2
 -20  18   4 633.660 537.972   2
  20  -2   7 2112.51 645.905   3
  18   2   7 4180.36 807.730   3
  -2 -18   7 3664.92 827.022   1
 -18  20   7 1988.64 446.308   3
   2 -20   7 3372.29 851.703   1
 -20  18   7 2012.84 356.357   3
 -18  20   7 3245.18 652.452   4
 -20  18   7 3622.80 696.520   4
 -18  20   7 1921.24 713.156   2
 -20  18   7 2506.08 734.781   2
 -20  19  -6 2197.02 499.338   2
 -19  20  -6 1579.67 377.347   2
 -19  20  -6 1799.80 469.045   4
 -20  19  -6 2410.82 514.338   4
 -19  20  -3 7593.89 645.107   2
 -20  19  -3 8064.38 700.826   2
  -1 -19  -3 7803.47 671.273   1
   1 -20  -3 8429.02 688.607   1
 -19  20  -3 8217.25 762.004   4
 -20  19  -3 7877.24 765.865   4
  -1 -19   0 11000.0 907.237   1
   1 -20   0 12300.1 970.138   1
  20  -1   0 11364.6 568.180   3
  19   1   0 11328.5 624.703   3
 -19  20   0 9890.87 786.318   2
 -19  20   0 11200.4 908.742   4
 -20  19   0 11081.6 907.125   4
 -20  19   0 11892.3 835.842   2
  -1 -19   3 7280.58 970.750   1
   1 -20   3 8178.02 987.274   1
  20  -1   3 8294.76 700.154   3
  19   1   3 6961.32 667.489   3
 -19  20   3 5881.99 527.392   3
 -19  20   3 7705.49 825.421   4
 -20  19   3 6490.47 742.909   4
 -19  20   3 8156.49 832.773   2
 -20  19   3 7993.63 841.199   2
  20  -1   6 3104.16 652.152   3
  19   1   6 3064.86 687.220   3
  -1 -19   6 3792.73 815.549   1
 -19  20   6 2858.59 460.092   3
 -20  19   6 2742.74 408.362   3
   1 -20   6 4688.86 871.839   1
 -19  20   6 2314.51 534.430   4
 -20  19   6 3372.78 676.107   4
 -19  20   6 3953.38 758.396   2
 -20  19   6 3793.77 759.675   2
 -20  20  -7-173.069 357.734   2
 -20  20  -7-158.616 348.227   4
   0 -20  -4 936.010 401.644   1
 -20  20  -4-172.448 371.697   2
 -20  20  -4 1326.98 447.786   4
 -20  20  -1 123.057 356.109   2
  20   0  -1 102.820 225.792   3
   0 -20  -1 51.1931 431.782   1
 -20  20  -1-501.358 424.915   4
   0 -20   2 5366.58 778.179   1
 -20  20   2 4259.24 654.295   4
  20   0   2 3990.48 498.100   3
 -20  20   2 4783.82 679.712   2
  20   0   5 301.539 444.904   3
   0 -20   5 957.941 652.329   1
 -20  20   5-2.72376 295.325   3
 -20  20   5 543.332 480.969   4
 -20  20   5 655.908 526.002   2
  20   0   8 874.562 606.490   3
   0 -20   8 1547.76 794.955   1
 -20  20   8 1202.60 581.058   4
 -20  20   8 1924.81 729.168   2
 -21   0  -6 5566.84 847.793   2
 -21   0  -6 6051.07 857.192   4
  21 -21  -3 209.997 458.231   1
 -21   0  -3 414.154 505.350   2
 -21   0  -3 25.4356 479.441   4
 -21   0   0 24895.4 1365.18   2
   0  21   0 23088.3 1200.28   3
  21 -21   0 25241.4 1366.36   1
 -21   0   0 28469.4 1478.05   4
 -21   0   3 323.827 525.175   2
   0  21   3 714.820 446.888   3
  21 -21   3 133.119 489.327   1
 -21   0   3-322.744 448.803   4
  21 -21   6 11803.2 1084.52   1
   0  21   6 10453.6 980.873   3
 -21   0   6 13865.5 1080.27   4
 -21   0   6 11616.4 1018.59   2
 -21   1  -7 125.699 495.995   4
 -20  -1  -7 693.696 540.695   4
 -21   1  -7 1748.52 681.299   2
 -20  -1  -7 91.4744 567.320   2
 -20  -1  -4 1638.03 619.059   4
  20 -21  -4 1290.42 546.772   1
 -21   1  -4 1762.50 602.923   2
 -20  -1  -4 1735.58 578.418   2
 -21   1  -4 1358.25 563.165   4
  21 -20  -1 909.307 504.178   1
 -21   1  -1 1217.08 411.495   3
   1  20  -1 935.240 347.078   2
  -1  21  -1 1193.27 343.647   2
 -21   1  -1 1353.95 546.356   2
 -20  -1  -1 1538.38 548.622   2
   1  20  -1 745.111 416.019   3
  -1  21  -1 587.984 420.100   3
  20 -21  -1 813.160 480.455   1
 -21   1  -1 689.395 489.600   4
 -20  -1  -1 1133.62 501.631   4
  21 -20   2 1489.56 566.740   1
 -20  -1   2 1059.34 256.944   3
 -21   1   2 2251.17 583.553   2
 -20  -1   2 1435.21 584.117   2
   1  20   2 1592.20 493.834   3
  -1  21   2 1226.43 462.280   3
  20 -21   2 1406.58 572.548   1
 -21   1   2 2411.08 598.145   4
 -20  -1   2 1062.90 492.773   4
 -21   1   5 2968.66 664.798   2
  20 -21   5 1963.00 633.987   1
 -20  -1   5 3175.93 676.235   2
  21 -20   5 2627.47 702.433   1
   1  20   5 2041.00 545.579   3
  -1  21   5 2368.70 588.013   3
 -21   1   5 2734.45 594.928   4
 -20  -1   5 3775.22 653.083   4
 -21   2  -8 1931.64 647.092   4
 -19  -2  -8 1740.34 592.847   4
 -21   2  -8 688.173 629.301   2
 -21   2  -5 3100.02 658.898   4
 -19  -2  -5 2662.40 697.561   4
 -19  -2  -5 2167.45 666.363   2
  -2  21  -2 3562.62 365.962   2
  21 -19  -2 3317.64 653.585   1
  19 -21  -2 3221.81 651.362   1
  21 -19  -2 2769.35 405.244   3
 -21   2  -2 3190.33 663.277   2
 -19  -2  -2 3611.34 670.908   2
   2  19  -2 2935.77 556.553   3
  -2  21  -2 2867.53 544.231   3
 -19  -2  -2 4187.41 704.143   4
   2  19  -2 3531.15 442.643   2
 -21   2  -2 4152.36 689.314   4
 -19  -2   1 2073.35 375.090   3
 -21   2   1 3560.50 614.802   2
 -19  -2   1 3477.10 612.151   2
   2  19   1 3232.17 577.956   3
  -2  21   1 3178.94 539.600   3
  19 -21   1 3360.76 641.289   1
  21 -19   1 3806.37 694.437   1
 -21   2   1 4043.67 671.297   4
 -19  -2   1 3425.22 608.193   4
  19 -21   4 7.82890 518.675   1
 -21   2   4-697.791 516.032   2
  21 -19   4 312.919 500.866   1
 -19  -2   4 205.926 451.567   2
   2  19   4 323.248 433.262   3
  -2  21   4-577.064 418.476   3
 -21   2   4 277.522 489.322   4
 -19  -2   4 622.192 476.038   4
 -21   2   7 1786.34 673.680   2
 -19  -2   7 2579.38 687.998   2
  21 -19   7 3341.39 739.741   1
   2  19   7 3011.70 697.988   3
  -2  21   7 3062.94 625.503   3
  19 -21   7 2682.18 751.340   1
 -21   2   7 2728.93 609.066   4
 -19  -2   7 3238.36 643.000   4
 -21   3  -6 13569.8 1165.13   2
 -18  -3  -6 12213.3 1104.44   2
  -3  21  -6 15093.7 703.818   4
 -21   3  -6 13720.9 1123.60   4
 -18  -3  -6 13000.7 1160.11   4
 -18  -3  -3 988.022 538.855   4
  18 -21  -3 1217.73 465.698   1
  21 -18  -3 550.216 307.526   3
  21 -18  -3 73.9356 448.670   1
 -21   3  -3 539.219 458.464   2
 -18  -3  -3 755.867 497.137   2
   3  18  -3 1004.16 328.949   2
 -21   3  -3 669.292 545.201   4
 -21   3   0 25633.5 1303.52   2
 -18  -3   0 20120.8 946.588   3
  21 -18   0 26031.2 1354.39   1
 -18  -3   0 24822.9 1288.03   2
  -3  21   0 25459.1 1008.96   2
  18 -21   0 26906.0 1373.42   1
   3  18   0 24749.1 1161.99   3
  -3  21   0 22399.3 1142.27   3
 -21   3   0 27856.5 1399.80   4
 -18  -3   0 27589.3 1394.29   4
  21 -18   3 1159.29 548.755   1
 -21   3   3 740.075 531.279   2
 -18  -3   3 635.105 471.459   2
 -18  -3   3 420.186 251.950   3
   3  18   3 494.753 450.909   3
  -3  21   3 21.8537 378.055   3
  18 -21   3 580.153 517.088   1
 -21   3   3 320.314 466.689   4
 -18  -3   3 370.924 433.334   4
   3  18   6 13350.7 1076.87   3
  -3  21   6 13872.8 1068.64   3
  21 -18   6 14672.2 1150.61   1
 -21   3   6 15437.7 1137.93   4
 -18  -3   6 13702.3 968.908   4
 -21   3   6 13394.3 1091.76   2
  18 -21   6 14465.2 1189.24   1
 -18  -3   6 11598.6 954.857   2
 -21   4  -7 1803.16 584.499   4
 -17  -4  -7 2243.27 627.564   4
 -21   4  -7 1618.06 704.623   2
 -17  -4  -4 2014.84 631.595   4
  21 -17  -4 1282.91 270.469   3
 -21   4  -4 2190.37 588.596   2
 -17  -4  -4 1891.52 646.417   2
   4  17  -4 1068.89 265.219   2
  17 -21  -4 2206.60 527.027   1
 -21   4  -4 2191.70 588.345   4
 -17  -4  -1 4118.93 648.156   4
  -4  21  -1 4302.38 422.944   2
 -17  -4  -1 4151.75 653.426   2
 -21   4  -1 3587.89 591.567   2
  21 -17  -1 2787.03 362.710   3
   4  17  -1 3515.31 525.103   3
  -4  21  -1 2941.81 517.573   3
 -21   4  -1 4062.43 663.615   4
  17 -21  -1 2950.72 588.778   1
  21 -17  -1 3643.87 625.772   1
 -21   4   2 2403.69 571.899   2
 -17  -4   2 1925.47 366.628   3
 -17  -4   2 2706.78 575.343   2
   4  17   2 3708.62 551.660   3
  21 -17   2 3781.61 645.133   1
  -4  21   2 2776.63 542.013   3
 -21   4   2 3349.10 608.584   4
  17 -21   2 3022.80 689.798   1
 -17  -4   2 2997.89 567.584   4
 -17  -4   5 4154.33 656.330   2
   4  17   5 5031.20 714.897   3
  -4  21   5 4134.13 620.266   3
  21 -17   5 4749.69 733.660   1
  17 -21   5 4570.71 831.573   1
 -21   4   5 5323.92 748.148   4
 -17  -4   5 5232.53 674.637   4
 -21   4   5 4152.38 707.006   2
 -21   4   8 1735.58 640.551   2
 -17  -4   8 1265.12 528.750   2
  21 -17   8 1098.84 716.527   3
   4  17   8 1907.12 591.615   3
  -4  21   8 1114.20 582.622   3
  17 -21   8 2243.05 777.584   1
  21 -17   8 2485.50 625.068   1
 -17  -4   8 2965.87 847.919   1
 -21   4   8 2359.43 643.035   4
 -21   5  -8 4883.15 797.592   2
 -21   5  -8 5115.08 737.655   4
 -16  -5  -5 469.969 483.720   4
  16 -21  -5 613.400 461.229   1
 -21   5  -5 470.300 497.733   2
 -16  -5  -5 111.401 536.269   2
  -5  21  -5 742.932 313.503   4
 -21   5  -5-95.6916 472.761   4
  -5  21  -2 4979.87 321.791   2
 -21   5  -2 4282.85 692.216   2
  21 -16  -2 3965.56 652.118   1
  21 -16  -2 2867.48 317.091   3
 -16  -5  -2 3783.70 654.175   2
   5  16  -2 4211.50 569.893   3
  -5  21  -2 5237.49 361.413   2
  16 -21  -2 5274.88 672.955   1
 -21   5  -2 4915.69 718.482   4
   5  16  -2 4263.43 501.825   2
 -16  -5  -2 4435.93 702.429   4
  16 -21   1 1273.01 538.109   1
  21 -16   1 230.842 426.285   1
 -21   5   1 1243.19 520.037   2
 -16  -5   1 475.858 330.430   3
 -16  -5   1-7.25654 426.010   2
   5  16   1 552.459 374.802   3
  -5  21   1 801.986 452.308   3
 -21   5   1 172.562 468.155   4
 -16  -5   1 665.489 443.880   4
 -16  -5   4 5077.01 678.263   2
   5  16   4 6489.80 732.847   3
 -16  -5   4 3151.17 372.504   3
  -5  21   4 5313.69 661.037   3
  21 -16   4 5123.03 720.368   1
 -21   5   4 6374.91 745.931   4
  16 -21   4 5338.15 819.851   1
 -16  -5   4 6024.78 691.407   4
 -21   5   4 6044.85 750.553   2
 -21   5   7 460.566 517.584   2
  21 -16   7-259.153 664.508   3
 -16  -5   7 221.215 431.257   2
   5  16   7-212.079 533.526   3
  -5  21   7 242.054 456.293   3
  16 -21   7 952.738 670.803   1
 -16  -5   7 872.289 675.225   1
 -21   5   7 537.258 512.967   4
  21 -16   7 608.284 585.783   1
 -16  -5   7 335.070 379.948   4
 -15  -6  -6 26575.1 1488.64   4
 -21   6  -6 25622.3 1462.21   2
 -15  -6  -6 25500.5 1499.05   2
  -6  21  -6 24448.0 829.925   4
 -21   6  -6 24023.6 1348.22   4
 -21   6  -3 6140.28 754.777   2
 -15  -6  -3 6027.30 773.438   2
   6  15  -3 4862.64 517.638   2
  15 -21  -3 5164.22 664.790   1
 -21   6  -3 4791.42 659.406   4
 -15  -6  -3 6655.47 811.345   4
 -15  -6   0 3532.31 597.935   4
  15 -21   0 3659.51 637.180   1
 -21   6   0 2985.54 566.163   2
 -15  -6   0 3357.49 576.496   2
  -6  21   0 3013.51 421.428   2
  21 -15   0 2335.60 311.436   3
   6  15   0 2925.88 521.602   3
  -6  21   0 2833.01 515.476   3
 -21   6   0 3070.64 578.218   4
  21 -15   0 3346.72 623.028   1
 -21   6   3 1825.52 585.699   2
 -15  -6   3 1197.51 438.017   2
 -15  -6   3 1171.74 327.357   3
   6  15   3 1082.56 421.897   3
  -6  21   3 1232.15 469.679   3
  15 -21   3 1917.05 625.732   1
  21 -15   3 931.057 479.970   1
 -21   6   3 1560.96 507.298   4
 -15  -6   3 2206.07 513.379   4
 -21   6   6 1274.38 579.931   2
  21 -15   6 2196.03 729.196   3
  21 -15   6 1194.33 529.600   1
 -15  -6   6 1027.58 481.454   2
  15 -21   6 1505.44 636.114   1
   6  15   6 1496.44 586.192   3
  -6  21   6 666.008 456.505   3
 -15  -6   6 1012.01 669.272   1
 -21   6   6 758.448 464.168   4
 -15  -6   6 629.224 386.732   4
 -21   7  -7 2873.23 643.182   4
 -21   7  -7 3486.07 772.172   2
 -14  -7  -4 1455.97 365.090   1
 -14  -7  -4 1102.32 489.397   4
 -21   7  -4 1044.81 482.617   2
 -14  -7  -4 1398.70 529.509   2
  -7  21  -4 2219.80 448.613   4
   7  14  -4 1150.62 367.639   2
  14 -21  -4 1561.36 478.217   1
 -21   7  -4 1889.34 539.187   4
 -14  -7  -1 2387.95 553.288   4
  14 -21  -1 2251.87 518.421   1
 -21   7  -1 2651.29 538.838   2
  21 -14  -1 1624.25 232.771   3
 -14  -7  -1 3035.26 592.575   2
  -7  21  -1 2384.38 338.660   2
   7  14  -1 2033.33 449.426   3
  -7  21  -1 2076.08 512.974   3
  21 -14  -1 2637.49 559.298   1
  -7  21  -1 3094.81 407.542   2
 -21   7  -1 2628.94 569.028   4
 -14  -7   2 5232.38 617.492   2
  21 -14   2 5851.60 705.517   1
   7  14   2 5065.23 611.396   3
  -7  21   2 5699.48 667.598   3
 -21   7   2 5164.06 664.465   4
  14 -21   2 6275.75 802.139   1
 -14  -7   2 6018.84 686.412   4
 -21   7   2 6146.03 717.925   2
 -14  -7   5 3395.28 532.212   4
 -21   7   5 2978.03 668.671   2
  21 -14   5 4023.36 775.660   3
 -14  -7   5 2165.71 485.563   2
  14 -21   5 3464.25 767.738   1
   7  14   5 3409.80 619.693   3
  -7  21   5 3156.40 554.208   3
  21 -14   5 3159.76 629.380   1
 -14  -7   5 5126.23 867.344   1
 -21   7   5 2915.23 624.003   4
  21 -14   8 8116.16 1169.76   3
  -7  21   8 6084.24 818.578   3
   7  14   8 5227.40 798.701   3
  21 -14   8 5303.52 780.989   1
  14 -21   8 7120.41 1038.11   1
 -14  -7   8 5829.50 1061.65   1
 -21   7   8 5909.03 760.446   4
 -21   7   8 7130.74 952.855   2
 -14  -7   8 6099.76 714.181   2
 -21   8  -8 4478.55 802.986   2
 -21   8  -8 4253.22 674.868   4
 -13  -8  -5-731.580 515.340   4
 -21   8  -5 469.789 472.134   2
 -13  -8  -5-337.905 499.594   2
  13 -21  -5 29.2489 394.162   1
  -8  21  -5 117.338 275.216   4
 -13  -8  -5 640.665 327.897   1
 -21   8  -5 175.119 421.862   4
 -21   8  -2 22935.1 1195.51   2
  13 -21  -2 22038.1 1115.07   1
  -8  21  -2 20587.0 577.928   2
 -13  -8  -2 23404.7 1236.74   2
   8  13  -2 21232.0 1058.02   3
  -8  21  -2 21362.2 599.277   2
 -21   8  -2 24085.4 1281.30   4
 -13  -8  -2 24350.3 1318.20   4
  21 -13   1 4866.22 540.307   3
 -13  -8   1 4093.35 584.221   2
   8  13   1 4325.86 551.161   3
  -8  21   1 3920.97 556.403   3
  21 -13   1 3170.62 359.462   3
  13 -21   1 4768.79 688.054   1
 -21   8   1 4783.79 694.842   4
  21 -13   1 5111.94 665.511   1
 -13  -8   1 4387.87 617.687   4
 -21   8   1 4370.27 640.710   2
  21 -13   4 8892.84 902.161   3
  21 -13   4 6102.10 730.871   1
 -13  -8   4 6006.31 661.217   2
   8  13   4 6768.15 716.738   3
  -8  21   4 6258.90 689.266   3
 -13  -8   4 7283.89 992.297   1
  13 -21   4 7077.54 916.939   1
 -21   8   4 7618.89 817.776   4
 -21   8   4 6646.94 819.011   2
 -13  -8   4 7851.39 732.945   4
 -13  -8   7 254.378 332.694   4
  21 -13   7-148.726 572.556   3
 -13  -8   7-245.820 376.810   2
  13 -21   7-1359.52 683.402   1
   8  13   7 318.594 475.730   3
  -8  21   7 51.9934 441.030   3
  21 -13   7 741.755 508.624   1
 -21   8   7 592.223 502.659   4
 -13  -8   7-119.764 646.287   1
 -21   8   7-322.685 534.087   2
 -21   9  -6 3890.14 714.918   2
  -9  21  -6 3587.41 391.479   4
 -12  -9  -6 2513.29 244.307   1
 -21   9  -6 4550.32 671.900   4
 -12  -9  -3 5547.37 744.824   4
 -21   9  -3 5654.23 692.627   2
  12 -21  -3 5216.21 621.206   1
 -12  -9  -3 5968.71 749.107   2
  -9  21  -3 7030.23 638.036   4
 -12  -9  -3 6292.60 604.603   1
 -21   9  -3 5736.98 710.330   4
 -21   9   0 8743.13 785.522   2
  21 -12   0 8062.46 513.690   3
  21 -12   0 8579.61 800.440   1
 -12  -9   0 8464.04 778.994   2
   9  12   0 8263.71 681.011   3
  21 -12   0 7975.48 393.623   3
  -9  21   0 7855.45 725.371   3
  -9  21   0 10075.4 673.505   2
 -12  -9   0 8969.28 833.793   1
 -21   9   0 8449.23 800.295   4
  12 -21   0 9789.95 879.673   1
 -12  -9   0 9967.21 845.156   4
  21 -12   3 5226.65 658.315   3
 -12  -9   3 5617.64 618.857   2
   9  12   3 4466.40 611.397   3
  -9  21   3 5382.43 630.141   3
  21 -12   3 4655.23 675.876   1
  12 -21   3 6098.33 810.595   1
 -12  -9   3 7608.12 922.605   1
 -21   9   3 5226.77 708.583   4
 -21   9   3 6240.31 763.138   2
 -12  -9   3 5797.86 676.569   4
  21 -12   6 4074.07 660.435   1
  12 -21   6 2671.72 727.573   1
  21 -12   6 3170.99 731.651   3
 -12  -9   6 2793.46 513.022   2
   9  12   6 2896.90 647.667   3
  -9  21   6 2691.85 539.169   3
 -21   9   6 3472.49 634.434   4
 -12  -9   6 3223.45 819.071   1
 -12  -9   6 3521.39 505.902   4
 -21   9   6 2393.04 649.603   2
 -21  10  -7 1979.26 691.341   2
 -21  10  -7 1296.47 519.105   4
 -21  10  -4 9087.30 860.450   2
 -11 -10  -4 8338.25 861.146   2
 -10  21  -4 8947.36 667.164   4
  11 -21  -4 8341.93 727.247   1
 -11 -10  -4 8416.31 622.449   1
 -21  10  -4 8816.27 857.051   4
 -21  10  -1 4476.87 622.524   2
 -11 -10  -1 5481.20 691.404   2
  10  11  -1 3904.12 530.529   3
 -10  21  -1 5462.81 471.720   2
 -10  21  -1 5383.00 624.870   4
 -11 -10  -1 5992.62 700.730   1
 -21  10  -1 6237.37 727.199   4
  11 -21  -1 5017.91 698.224   1
 -11 -10  -1 4720.48 645.830   4
  21 -11   2 19312.1 979.019   3
 -11 -10   2 17087.8 938.102   2
  10  11   2 16007.6 911.627   3
 -10  21   2 17399.3 1012.75   3
 -10  21   2 19332.3 1074.67   2
  11 -21   2 18282.9 1200.19   1
 -11 -10   2 21684.4 1329.02   1
 -21  10   2 18819.7 1131.67   4
 -21  10   2 17187.7 1061.29   2
  21 -11   2 17363.1 1065.78   1
 -11 -10   2 19307.7 1055.61   4
 -11 -10   5 1565.14 439.394   4
  11 -21   5 1877.79 637.136   1
  21 -11   5 2266.69 652.744   3
 -11 -10   5 1057.83 387.986   2
  21 -11   5 1235.14 496.590   1
  10  11   5 1049.24 481.548   3
 -10  21   5 2098.23 528.958   3
 -21  10   5 1656.63 508.183   4
 -11 -10   5 1969.90 709.393   1
 -21  10   5 2076.62 630.100   2
 -11 -10   8 9693.65 772.383   2
 -21  10   8 11725.7 1012.43   4
  21 -11   8 12473.7 1306.42   3
  21 -11   8 8865.82 870.974   1
  10  11   8 11591.3 1118.72   3
 -10  21   8 10048.0 917.488   3
  11 -21   8 12354.9 1268.10   1
 -11 -10   8 13366.8 1321.91   1
 -21  10   8 10336.9 1044.73   2
 -21  11  -8 8648.60 965.114   2
 -21  11  -8 8139.28 808.518   4
 -10 -11  -5 1075.18 288.759   1
 -21  11  -5 954.178 533.574   2
 -11  21  -5 1060.64 340.349   4
 -10 -11  -5 966.125 255.259   1
  10 -21  -5 722.754 439.737   1
 -21  11  -5 618.535 448.125   4
  10 -21  -2 17680.2 1004.17   1
 -10 -11  -2 19268.0 1170.17   4
 -21  11  -2 17467.6 1034.16   2
 -10 -11  -2 19154.6 1149.29   2
  11  10  -2 15948.7 874.108   3
 -11  21  -2 19515.3 1001.91   4
 -10 -11  -2 19904.6 1008.73   1
 -21  11  -2 19785.8 1165.92   4
 -11  21  -2 17448.5 609.861   2
  21 -10   1 5278.50 482.620   3
 -10 -11   1 3959.29 554.922   2
  11  10   1 5066.75 558.739   3
 -11  21   1 4670.93 601.962   3
  10 -21   1 4927.66 715.438   1
 -11  21   1 2442.31 546.692   4
 -11  21   1 5136.79 577.886   2
 -10 -11   1 5121.31 730.336   1
 -21  11   1 4201.97 618.315   4
 -21  11   1 4250.74 627.751   2
 -10 -11   1 4793.67 644.605   4
  21 -10   4 7924.11 820.380   3
 -10 -11   4 8075.21 640.504   2
  11  10   4 8283.31 756.588   3
 -11  21   4 8284.44 744.506   3
  10 -21   4 9998.66 1016.06   1
 -11  21   4 8552.30 879.930   2
 -10 -11   4 9289.23 1030.49   1
 -21  11   4 7784.34 776.740   4
  21 -10   4 8483.49 810.279   1
 -21  11   4 7240.43 783.294   2
 -10 -11   4 8702.70 709.157   4
 -10 -11   7 1979.60 791.575   1
  21 -10   7 1526.75 697.264   3
 -10 -11   7 2209.77 444.651   2
  11  10   7 2048.82 620.911   3
  21 -10   7 2260.83 593.994   1
 -11  21   7 1550.44 483.882   3
 -21  11   7 2256.61 601.345   4
 -21  11   7 3655.77 743.461   2
  10 -21   7 2137.30 749.032   1
 -21  12  -6 3450.72 669.544   2
 -12  21  -6 3116.92 408.577   4
 -21  12  -6 4071.28 623.656   4
   9 -21  -6 3714.67 498.312   1
 -12  21  -3 4289.62 301.220   2
   9 -21  -3 4963.95 618.101   1
 -21  12  -3 5384.34 636.616   2
  -9 -12  -3 5055.42 703.683   2
 -12  21  -3 5459.68 579.551   4
  -9 -12  -3 6712.58 616.125   1
 -21  12  -3 4784.85 654.406   4
  -9 -12   0 11628.9 879.508   4
  21  -9   0 8213.14 399.641   3
  -9 -12   0 11218.9 823.229   2
  12   9   0 10036.2 710.929   3
 -12  21   0 10402.7 805.353   3
 -12  21   0 10220.8 800.517   4
   9 -21   0 9209.28 838.391   1
 -12  21   0 10438.9 691.394   2
  -9 -12   0 11187.1 892.090   1
 -21  12   0 10172.0 863.653   4
 -21  12   0 9491.34 817.689   2
  -9 -12   3 6609.13 661.679   4
  21  -9   3 7820.46 738.034   3
  21  -9   3 5881.73 675.428   1
  -9 -12   3 6210.30 578.907   2
  12   9   3 5754.16 631.560   3
 -12  21   3 5985.46 639.758   3
   9 -21   3 6669.30 836.857   1
 -12  21   3 6188.67 742.234   4
 -12  21   3 7068.52 760.964   2
  -9 -12   3 7927.29 931.713   1
 -21  12   3 6523.26 772.461   4
 -21  12   3 5621.88 730.524   2
  -9 -12   6 5322.31 945.806   1
  21  -9   6 5901.28 828.647   3
  -9 -12   6 3359.75 456.525   2
  12   9   6 4389.67 703.588   3
 -12  21   6 4349.88 602.190   3
 -12  21   6 3753.37 720.854   4
 -12  21   6 4953.21 816.094   2
 -21  12   6 5122.88 721.755   4
  21  -9   6 4429.03 648.524   1
 -21  12   6 4999.56 779.643   2
   9 -21   6 4317.50 826.173   1
 -21  13  -7 326.569 529.242   2
 -13  21  -7 359.470 280.327   4
 -21  13  -7 184.912 396.192   4
 -21  13  -4 6356.04 742.580   2
   8 -21  -4 6968.68 623.912   1
 -13  21  -4 7477.57 639.052   4
 -21  13  -4 6245.03 701.686   4
  -8 -13  -4 7654.06 565.366   1
 -21  13  -1 4333.56 579.701   2
  13   8  -1 4614.51 535.195   3
  -8 -13  -1 3759.06 610.435   2
 -13  21  -1 4780.88 588.441   4
   8 -21  -1 5697.24 687.535   1
  -8 -13  -1 4276.31 604.663   1
 -21  13  -1 4407.87 644.666   4
 -13  21  -1 4801.70 474.464   2
  21  -8   2 21303.2 954.753   3
  -8 -13   2 21483.2 981.929   2
  13   8   2 21958.8 1033.96   3
   8 -21   2 22359.6 1277.71   1
 -21  13   2 21674.3 1195.36   4
 -13  21   2 21650.4 1064.08   3
 -13  21   2 22348.5 1213.61   4
 -13  21   2 22455.9 1137.46   2
  -8 -13   2 24155.6 1371.80   1
 -21  13   2 21079.8 1175.34   2
 -13  21   5-3.62786 511.844   2
  -8 -13   5 1361.49 708.945   1
  21  -8   5 271.586 507.811   3
  13   8   5 573.367 452.439   3
  -8 -13   5 43.5470 314.685   2
 -13  21   5-472.532 421.453   3
 -13  21   5 544.007 442.894   4
 -21  13   5 0.41186 425.806   4
   8 -21   5 689.563 619.299   1
  21  -8   5-50.6387 431.224   1
 -21  13   5 221.469 492.747   2
  21  -8   8 6472.41 1010.52   3
  -8 -13   8 5519.73 984.651   1
  13   8   8 4575.47 836.276   3
 -13  21   8 4333.54 644.945   3
 -21  13   8 4145.36 712.981   4
 -13  21   8 6963.17 902.041   4
 -13  21   8 6475.71 1021.73   2
   8 -21   8 5637.91 961.028   1
 -21  13   8 4843.61 837.690   2
  21  -8   8 4548.64 660.998   1
 -21  14  -8 6789.60 854.092   2
 -21  14  -8 4040.55 614.412   4
  -7 -14  -5 2823.92 315.245   1
 -21  14  -5 2707.40 581.731   2
   7 -21  -5 3119.23 472.142   1
 -14  21  -5 3317.85 462.644   4
 -21  14  -5 3478.04 581.121   4
 -21  14  -2 4940.50 645.626   2
  14   7  -2 5521.35 538.185   3
 -14  21  -2 6680.44 660.049   4
   7 -21  -2 5536.05 627.655   1
 -21  14  -2 6640.86 716.798   4
  -7 -14  -2 6083.00 670.791   1
 -14  21  -2 5275.55 436.203   2
 -21  14   1 2481.97 553.479   2
  -7 -14   1 2495.57 581.711   1
  21  -7   1 2706.02 355.596   3
  -7 -14   1 3431.44 525.309   2
  14   7   1 2318.02 407.784   3
 -14  21   1 3182.01 503.741   3
 -14  21   1 2545.24 535.482   4
 -21  14   1 1930.40 506.712   4
 -14  21   1 2700.50 511.469   2
   7 -21   1 2309.47 570.480   1
  -7 -14   4 2621.28 747.269   1
  21  -7   4 2553.47 547.824   3
  14   7   4 1676.20 479.606   3
 -21  14   4 1901.93 533.981   4
  -7 -14   4 1968.58 401.747   2
 -14  21   4 2028.79 556.151   2
 -14  21   4 854.275 401.560   3
 -14  21   4 1752.75 546.045   4
   7 -21   4 2674.75 701.756   1
 -21  14   4 2457.33 608.646   2
  21  -7   7 3670.63 771.664   3
  14   7   7 4088.04 768.827   3
 -14  21   7 3107.80 565.385   3
 -14  21   7 2155.74 641.352   4
 -14  21   7 5075.04 886.363   2
   7 -21   7 4689.31 916.603   1
 -21  14   7 3627.59 680.724   4
  -7 -14   7 5555.56 1005.04   1
 -21  14   7 3640.47 728.335   2
   6 -21  -6 987.765 334.704   1
 -21  15  -6 1462.37 510.644   2
 -15  21  -6 1805.95 379.611   4
 -21  15  -6 1668.22 481.227   4
 -15  21  -3 1439.37 321.513   2
 -21  15  -3 1678.69 500.481   2
  -6 -15  -3 2342.37 466.463   1
   6 -21  -3 1202.84 432.779   1
 -15  21  -3 1469.20 438.353   4
 -21  15  -3 2382.86 551.160   4
  21  -6   0 3044.18 279.356   3
  15   6   0 3440.84 432.364   3
   6 -21   0 3459.43 652.399   1
  -6 -15   0 3066.54 554.025   2
 -15  21   0 3166.50 519.495   4
 -21  15   0 3434.70 598.311   4
  -6 -15   0 4895.41 679.476   1
 -15  21   0 2993.77 476.628   2
 -21  15   0 3649.64 579.527   2
  21  -6   3 6788.15 659.691   3
  15   6   3 4853.36 606.134   3
   6 -21   3 5968.87 829.971   1
  -6 -15   3 6073.63 547.691   2
 -15  21   3 5833.58 614.438   3
 -15  21   3 5749.40 718.716   4
 -15  21   3 6618.12 751.007   2
 -21  15   3 6243.75 723.821   4
 -21  15   3 4706.01 702.743   2
  -6 -15   3 5417.94 824.051   1
  21  -6   6 28476.8 1553.97   3
  15   6   6 28429.1 1517.40   3
   6 -21   6 26657.9 1628.29   1
 -15  21   6 21479.2 1106.83   3
 -15  21   6 26716.0 1536.15   2
 -15  21   6 25217.3 1427.42   4
 -21  15   6 25054.3 1365.25   4
 -21  15   6 24489.4 1466.34   2
  -6 -15   6 27946.5 1760.35   1
 -21  16  -7 916.381 594.675   2
 -16  21  -7 577.236 354.574   4
 -21  16  -7 643.161 422.269   4
 -16  21  -4 6494.39 495.301   2
 -21  16  -4 6079.38 723.284   2
  -5 -16  -4 6436.82 537.087   1
 -16  21  -4 4971.69 601.240   4
 -21  16  -4 6482.91 713.979   4
   5 -21  -4 4987.87 559.437   1
   5 -21  -1 463.928 468.652   1
 -21  16  -1 717.310 430.725   2
  -5 -16  -1-15.0253 420.790   1
  16   5  -1 469.808 310.026   3
 -16  21  -1 168.459 360.636   4
 -21  16  -1-191.016 403.363   4
 -16  21  -1 189.165 331.100   2
  21  -5   2 5360.95 521.605   3
   5 -21   2 5226.79 742.071   1
  16   5   2 4198.06 527.995   3
  -5 -16   2 4002.71 470.454   2
 -16  21   2 4756.91 541.711   3
 -16  21   2 4509.66 651.303   4
 -16  21   2 4781.60 649.021   2
 -21  16   2 4501.02 654.898   4
  -5 -16   2 5713.64 814.533   1
 -21  16   2 4453.91 649.728   2
  -5 -16   5 737.049 640.547   1
  21  -5   5 301.754 457.737   3
  16   5   5 738.141 475.185   3
  -5 -16   5 425.422 252.806   2
 -16  21   5 344.931 362.937   3
   5 -21   5 382.764 584.054   1
 -16  21   5 403.609 456.520   4
 -21  16   5 1038.76 507.910   4
 -16  21   5-184.867 505.624   2
 -21  16   5 316.907 543.560   2
 -16  21   8 4958.06 809.575   4
  21  -5   8 5840.91 925.190   3
  16   5   8 5450.06 916.065   3
 -16  21   8 4651.24 634.390   3
 -16  21   8 5372.80 929.286   2
   5 -21   8 4139.48 895.772   1
 -21  16   8 4826.54 737.217   4
 -21  16   8 4958.44 858.305   2
  -5 -16   8 6617.13 1065.70   1
 -21  17  -8 1204.97 430.916   4
 -21  17  -5 5568.96 727.596   2
   4 -21  -5 4160.80 489.403   1
 -17  21  -5 3367.46 376.477   2
  -4 -17  -5 4358.12 410.913   1
 -17  21  -5 5293.26 608.618   4
 -21  17  -5 5113.64 662.452   4
  -4 -17  -2 3452.97 565.863   1
   4 -21  -2 3437.31 580.735   1
 -21  17  -2 2842.24 493.838   2
  17   4  -2 3120.22 390.438   3
 -17  21  -2 3695.32 549.352   4
 -21  17  -2 3711.15 624.371   4
 -17  21  -2 2705.07 421.206   2
  21  -4   1 4556.48 431.054   3
  -4 -17   1 3692.56 667.965   1
   4 -21   1 4947.56 742.655   1
  17   4   1 3594.83 465.592   3
 -17  21   1 3786.72 589.029   4
 -17  21   1 4279.80 593.875   2
 -21  17   1 3771.59 590.730   4
 -21  17   1 4485.91 673.481   2
  -4 -17   4 1364.33 644.054   1
  21  -4   4 1338.03 473.120   3
  17   4   4 1763.52 493.532   3
 -17  21   4 1023.75 403.274   3
   4 -21   4 768.447 630.527   1
 -17  21   4 839.651 489.130   4
 -21  17   4 763.542 500.994   4
 -17  21   4 2082.88 591.926   2
 -21  17   4 1104.76 538.743   2
  21  -4   7 2330.37 714.546   3
  -4 -17   7 593.294 670.229   1
  17   4   7 1760.88 636.944   3
 -17  21   7 2017.99 603.517   4
 -17  21   7 580.860 399.839   3
   4 -21   7 591.213 666.792   1
 -21  17   7 201.532 457.926   4
 -17  21   7 2145.35 716.149   2
 -21  17   7 2411.84 713.930   2
 -21  18  -6 13921.2 957.925   2
 -18  21  -6 10855.3 600.669   2
 -18  21  -6 13216.7 863.755   4
   3 -21  -6 12914.3 614.359   1
 -21  18  -6 14593.5 987.447   4
 -18  21  -3 1090.64 385.388   2
   3 -21  -3-206.080 383.510   1
 -21  18  -3 230.231 393.612   2
  -3 -18  -3 1453.75 437.355   1
 -18  21  -3 536.960 397.216   4
 -21  18  -3 1040.73 462.264   4
  -3 -18   0 29033.2 1393.32   1
   3 -21   0 24957.0 1306.19   1
  21  -3   0 26746.1 761.371   3
  18   3   0 24283.7 922.062   3
 -18  21   0 25266.2 1270.49   4
 -21  18   0 24853.6 1298.15   4
 -18  21   0 26690.7 1149.73   2
 -21  18   0 23805.3 1155.36   2
  21  -3   3 1023.47 400.135   3
  -3 -18   3 2240.91 665.256   1
  18   3   3 578.524 395.334   3
   3 -21   3 935.906 585.494   1
 -18  21   3 1034.21 366.170   3
 -18  21   3 818.504 447.475   4
 -21  18   3 450.736 447.176   4
 -18  21   3 1586.51 556.758   2
 -21  18   3 1331.07 568.726   2
   3 -21   6 16681.6 1381.04   1
  21  -3   6 17450.8 1254.31   3
  18   3   6 16772.7 1210.15   3
 -18  21   6 13173.7 816.515   3
 -21  18   6 10793.1 553.561   3
 -21  18   6 13829.5 1082.52   4
 -18  21   6 14818.5 1156.40   4
 -18  21   6 13892.4 1186.94   2
 -21  18   6 15319.4 1191.32   2
  -3 -18   6 17115.7 1457.28   1
 -21  19  -7 1529.39 457.123   2
 -19  21  -7 1782.48 461.557   4
 -21  19  -7 1176.82 406.040   4
 -19  21  -4 724.247 382.677   2
 -21  19  -4-290.124 392.359   2
   2 -21  -4 52.2407 365.171   1
 -19  21  -4 293.651 364.896   4
 -21  19  -4 524.666 412.146   4
  -2 -19  -4 267.930 335.914   1
 -19  21  -1 2889.83 494.593   2
  -2 -19  -1 3756.14 640.341   1
 -21  19  -1 3340.39 579.268   4
  21  -2  -1 2773.19 269.056   3
  19   2  -1 3298.70 374.656   3
 -19  21  -1 3497.38 604.134   4
   2 -21  -1 3541.92 620.956   1
 -21  19  -1 3172.65 547.227   2
  -2 -19   2 4830.48 775.580   1
  21  -2   2 4052.79 500.960   3
  19   2   2 3893.38 491.027   3
   2 -21   2 4377.69 768.985   1
 -19  21   2 4300.72 699.976   4
 -21  19   2 3605.95 626.124   4
 -19  21   2 3942.75 655.767   2
 -21  19   2 3745.00 629.062   2
  21  -2   5 1882.16 554.327   3
  19   2   5 2644.04 609.078   3
  -2 -19   5 1807.22 744.183   1
   2 -21   5 2889.63 775.668   1
 -19  21   5 1421.92 394.149   3
 -21  19   5 1562.78 330.282   3
 -19  21   5 1464.27 530.465   4
 -21  19   5 1001.21 463.370   4
 -19  21   5 902.899 552.426   2
 -21  19   5 1037.90 562.210   2
  21  -2   8 3151.14 783.432   3
  19   2   8 4341.47 870.869   3
  -2 -19   8 2629.94 906.119   1
 -19  21   8 2310.72 457.472   3
   2 -21   8 3251.47 861.872   1
 -19  21   8 3496.19 676.519   4
 -21  19   8 3131.51 689.745   4
 -19  21   8 3471.90 853.877   2
 -21  19   8 3866.40 828.296   2
 -21  20  -5 2329.15 501.106   2
 -20  21  -5 1739.97 445.806   2
  -1 -20  -5 1997.31 402.123   1
   1 -21  -5 2239.22 411.363   1
 -20  21  -5 2173.61 494.637   4
 -21  20  -5 1611.15 491.999   4
 -20  21  -2 2232.06 468.061   2
 -21  20  -2 1210.38 410.104   2
  -1 -20  -2 2490.64 537.632   1
 -20  21  -2 1083.76 454.918   4
 -21  20  -2 1969.95 528.584   4
   1 -21  -2 2462.42 525.890   1
  21  -1   1 542.786 297.138   3
  20   1   1 800.894 339.074   3
  -1 -20   1 2048.51 622.677   1
   1 -21   1 967.798 551.568   1
 -20  21   1 1539.92 530.815   4
 -21  20   1 1077.67 499.752   4
 -20  21   1 1545.61 535.535   2
 -21  20   1 491.262 436.619   2
  21  -1   4 530.665 421.108   3
  20   1   4 878.388 460.977   3
  -1 -20   4 1714.08 718.869   1
   1 -21   4 618.247 602.114   1
 -20  21   4 884.032 349.017   3
 -20  21   4 911.006 515.399   4
 -21  20   4 742.603 524.769   4
 -20  21   4 1139.53 571.359   2
 -21  20   4 1220.29 544.930   2
  21  -1   7 1458.81 672.019   3
  20   1   7 576.942 614.839   3
  -1 -20   7-412.489 737.933   1
   1 -21   7 488.303 740.303   1
 -20  21   7 870.761 389.430   3
 -20  21   7 1599.80 509.428   4
 -21  20   7 1167.61 523.189   4
 -20  21   7 1192.19 630.780   2
 -21  20   7 609.881 607.245   2
 -21  21  -6 12013.4 832.816   2
 -21  21  -6 12913.0 927.438   4
 -21  21  -3 56.3482 369.019   2
   0 -21  -3 175.083 387.160   1
 -21  21  -3 701.696 447.522   4
  21   0   0 27556.7 898.134   3
 -21  21   0 27562.8 1378.06   4
 -21  21   0 26280.6 1227.43   2
  21   0   3-415.617 387.588   3
   0 -21   3 443.404 559.974   1
 -21  21   3 255.099 529.342   4
 -21  21   3 148.102 512.788   2
  21   0   6 5413.68 824.304   3
   0 -21   6 5857.00 971.149   1
 -21  21   6 2818.61 415.013   3
 -21  21   6 4377.75 759.483   4
 -21  21   6 4324.85 800.273   2
 -22   0  -7 794.749 549.901   4
 -22   0  -7 56.0580 631.633   2
 -22   0  -4 224.973 506.297   4
  22 -22  -4 614.236 529.424   1
 -22   0  -4-435.141 556.255   2
 -22   0  -1-506.272 534.426   2
   0  22  -1 988.128 503.360   3
 -22   0  -1 24.6114 472.774   4
  22 -22  -1-1056.66 538.623   1
  22 -22   2 1950.63 600.797   1
 -22   0   2 2263.82 619.544   2
   0  22   2 1216.45 485.229   3
 -22   0   2 1784.11 568.700   4
 -22   0   5 765.436 549.317   2
  22 -22   5 536.590 559.440   1
   0  22   5-312.478 455.697   3
 -22   0   5 551.133 526.287   4
 -22   1  -5 2782.87 706.942   4
 -21  -1  -5 3425.90 751.065   4
 -22   1  -5 2510.59 665.004   2
 -21  -1  -5 3040.52 761.046   2
  21 -22  -2 320.538 467.392   1
 -22   1  -2 824.456 515.869   2
 -21  -1  -2 1039.88 496.080   2
   1  21  -2 1395.27 497.278   3
  -1  22  -2 637.028 417.457   3
  22 -21  -2 625.024 515.812   1
 -22   1  -2 1531.45 598.724   4
 -21  -1  -2 495.380 521.968   4
  21 -22   1 3260.60 691.662   1
 -22   1   1 2732.61 653.756   2
 -21  -1   1 3325.90 640.612   2
  22 -21   1 4069.87 725.552   1
   1  21   1 3549.40 583.324   3
  -1  22   1 3117.42 567.957   3
 -21  -1   1 3694.59 736.388   4
 -22   1   1 3272.32 647.057   4
 -22   1   4 1721.42 604.043   2
 -21  -1   4 2124.86 626.692   2
  21 -22   4 1138.57 564.247   1
   1  21   4 1899.00 580.821   3
  -1  22   4 1628.18 539.944   3
  22 -21   4 1649.54 597.744   1
 -22   1   4 1919.91 600.031   4
 -21  -1   4 1091.83 515.835   4
 -22   1   7 2622.64 686.968   2
 -21  -1   7 2418.07 674.733   2
  21 -22   7 3491.07 825.967   1
  22 -21   7 4030.42 796.258   1
   1  21   7 2460.12 664.884   3
  -1  22   7 3511.27 738.275   3
 -22   1   7 3360.61 663.090   4
 -21  -1   7 3742.19 665.243   4
 -22   2  -6 2721.99 680.728   4
 -22   2  -6 3908.59 806.975   2
 -20  -2  -6 4037.23 803.258   2
  -2  22  -6 3417.82 458.509   4
 -20  -2  -6 4923.32 826.151   4
  22 -20  -3 9546.10 897.668   1
 -22   2  -3 9987.34 945.200   2
 -20  -2  -3 9355.69 961.541   2
  20 -22  -3 10742.4 959.697   1
 -22   2  -3 11286.6 1026.52   4
 -20  -2  -3 10349.2 1018.01   4
 -22   2   0 3474.44 686.284   2
 -20  -2   0 2827.13 623.127   2
   2  20   0 2673.43 568.182   3
  -2  22   0 2280.32 535.249   3
  20 -22   0 4272.33 719.387   1
  22 -20   0 4018.79 718.954   1
 -22   2   0 2523.97 622.914   4
 -20  -2   0 3672.74 669.984   4
 -22   2   3 10353.6 977.009   2
 -20  -2   3 10717.5 958.517   2
  20 -22   3 12294.9 1079.67   1
   2  20   3 12041.1 952.165   3
  -2  22   3 12391.1 956.508   3
  22 -20   3 12671.9 1056.80   1
 -22   2   3 13716.1 1081.52   4
 -20  -2   3 12985.7 1026.76   4
  20 -22   6 5544.51 889.127   1
   2  20   6 5116.12 782.072   3
  22 -20   6 7143.04 927.069   1
  -2  22   6 7109.19 827.710   3
 -22   2   6 7222.87 859.653   4
 -20  -2   6 7594.57 834.217   4
 -22   2   6 5546.54 839.112   2
 -20  -2   6 6807.55 830.936   2
 -22   3  -7 930.831 506.774   4
 -19  -3  -7 480.711 522.102   4
 -22   3  -7 1481.12 629.976   2
 -19  -3  -7 662.660 638.961   2
 -19  -3  -4 2493.43 663.647   4
  19 -22  -4 828.157 525.848   1
 -22   3  -4 1560.63 620.263   2
 -19  -3  -4 1449.33 593.019   2
 -22   3  -4 2107.88 583.367   4
 -22   3  -1 2057.27 555.478   2
  19 -22  -1 2562.32 646.409   1
  -3  22  -1 1952.20 362.884   2
 -19  -3  -1 1685.82 539.475   2
  22 -19  -1 1617.94 346.842   3
   3  19  -1 1459.46 478.871   3
  -3  22  -1 1575.09 502.503   3
  22 -19  -1 1543.55 556.408   1
 -22   3  -1 1831.94 550.408   4
 -19  -3  -1 1570.82 545.616   4
 -22   3   2 1631.79 571.235   2
 -19  -3   2 1430.31 345.542   3
  19 -22   2 1801.08 579.128   1
 -19  -3   2 928.495 502.009   2
  22 -19   2 2029.70 587.187   1
   3  19   2 1744.23 514.486   3
  -3  22   2 1345.84 468.074   3
 -22   3   2 1551.73 578.459   4
 -19  -3   2 2172.04 560.367   4
 -22   3   5 1230.71 550.882   2
 -19  -3   5 817.807 493.368   2
   3  19   5 1003.43 465.078   3
  -3  22   5 1330.02 518.286   3
  22 -19   5 1196.27 556.635   1
 -22   3   5 1002.20 564.303   4
  19 -22   5 923.092 564.700   1
 -19  -3   5 1102.57 542.299   4
 -22   4  -8 1770.05 633.304   4
 -22   4  -8-633.981 645.262   2
 -18  -4  -5 3268.91 681.802   4
 -22   4  -5 3380.98 724.692   2
 -18  -4  -5 4227.14 741.753   2
  -4  22  -5 5566.76 594.579   4
  18 -22  -5 3300.37 597.053   1
 -22   4  -5 4589.91 725.965   4
 -18  -4  -2 1177.76 524.479   4
   4  18  -2 1497.93 403.867   2
  22 -18  -2 1119.63 497.020   1
  -4  22  -2 1242.82 244.524   2
  22 -18  -2 1000.06 295.483   3
 -22   4  -2 1837.68 577.275   2
 -18  -4  -2 1342.12 548.319   2
  18 -22  -2 1664.47 528.676   1
   4  18  -2 1029.91 477.552   3
 -22   4  -2 2008.67 541.215   4
 -22   4   1 4706.09 729.578   2
 -18  -4   1 3701.42 654.826   2
 -18  -4   1 2932.18 439.032   3
  18 -22   1 3010.66 665.852   1
   4  18   1 3352.33 570.531   3
  -4  22   1 2698.82 568.230   3
 -22   4   1 4608.18 717.760   4
 -18  -4   1 4803.01 716.486   4
  22 -18   1 3941.21 690.188   1
 -22   4   4-11.8570 507.655   2
 -18  -4   4 13.9301 466.429   2
  22 -18   4 217.355 470.303   1
   4  18   4 559.815 429.022   3
  -4  22   4 270.474 448.436   3
  18 -22   4 1361.59 582.155   1
 -22   4   4-374.925 493.701   4
 -18  -4   4 947.652 531.154   4
 -22   4   7 2060.56 674.918   2
  22 -18   7 1120.27 741.429   3
 -18  -4   7 1913.55 651.438   2
   4  18   7 878.692 561.940   3
  -4  22   7 1396.67 613.294   3
  18 -22   7 1362.88 655.957   1
  22 -18   7 1982.78 657.609   1
 -18  -4   7 1997.90 823.867   1
 -22   4   7 1797.87 616.293   4
 -18  -4   7 1790.86 531.712   4
 -17  -5  -6 1103.29 552.180   4
 -22   5  -6 1097.49 601.686   2
 -17  -5  -6 1249.46 607.934   2
  -5  22  -6 1844.98 349.572   4
 -22   5  -6 2118.46 573.559   4
  17 -22  -3 8439.30 817.889   1
  22 -17  -3 4409.67 335.359   3
 -22   5  -3 8089.17 855.038   2
 -17  -5  -3 8522.54 900.866   2
 -22   5  -3 9619.84 949.656   4
   5  17  -3 5437.60 537.048   2
 -17  -5  -3 9081.45 934.665   4
 -17  -5   0 606.262 504.580   4
 -22   5   0 151.221 421.188   2
  17 -22   0-84.3183 463.934   1
 -17  -5   0 474.044 493.049   2
  -5  22   0-48.0927 328.746   2
  22 -17   0-29.7971 251.426   3
   5  17   0 330.195 404.982   3
  -5  22   0-233.073 422.955   3
  22 -17   0 375.048 456.273   1
 -22   5   0 307.375 466.319   4
 -17  -5   3 4971.27 664.967   2
 -17  -5   3 3152.68 417.029   3
   5  17   3 5795.95 697.875   3
  -5  22   3 5544.88 693.534   3
 -22   5   3 6247.79 784.705   4
  22 -17   3 6055.21 775.614   1
 -17  -5   3 7083.24 773.642   4
 -22   5   3 7126.04 793.867   2
  17 -22   3 4928.68 776.518   1
 -22   5   6 548.058 550.980   2
  22 -17   6 3463.89 850.733   3
  22 -17   6 2122.73 608.230   1
 -17  -5   6 1913.55 587.496   2
   5  17   6 1583.80 585.538   3
  -5  22   6 2115.44 561.779   3
  17 -22   6 1776.67 696.510   1
 -17  -5   6 1511.32 727.737   1
 -22   5   6 1335.00 522.496   4
 -17  -5   6 2108.53 559.705   4
 -22   6  -7 402.835 481.174   4
 -22   6  -7 906.008 635.250   2
 -16  -6  -4 2333.83 666.347   4
  16 -22  -4 2099.44 526.707   1
 -22   6  -4 1974.53 600.466   2
 -16  -6  -4 2355.40 616.452   2
  -6  22  -4 2506.69 474.272   4
 -22   6  -4 2581.05 572.202   4
  22 -16  -1 11984.8 990.460   1
 -22   6  -1 11020.2 936.608   2
 -16  -6  -1 9541.35 865.372   2
  -6  22  -1 11851.8 602.571   2
  22 -16  -1 9291.62 492.903   3
  16 -22  -1 11004.1 914.999   1
   6  16  -1 10775.6 819.760   3
  -6  22  -1 9762.30 837.886   3
 -22   6  -1 10642.0 950.299   4
 -16  -6  -1 10660.0 936.045   4
  22 -16   2 4811.39 716.420   1
 -16  -6   2 4231.41 646.479   2
 -22   6   2 3517.35 649.743   2
   6  16   2 3652.15 562.167   3
  -6  22   2 4134.46 608.158   3
  16 -22   2 3735.49 679.284   1
 -22   6   2 4101.53 660.876   4
 -16  -6   2 5300.46 684.982   4
 -22   6   5 2785.21 629.434   2
  22 -16   5 3866.58 796.816   3
 -16  -6   5 2322.58 532.570   2
  22 -16   5 2791.35 632.692   1
   6  16   5 2308.96 567.752   3
  -6  22   5 2117.96 524.147   3
  16 -22   5 2730.29 735.092   1
 -16  -6   5 2815.45 744.917   1
 -22   6   5 2813.85 611.144   4
 -16  -6   5 3504.07 599.377   4
 -22   6   8 608.723 654.550   2
  22 -16   8-161.081 677.346   3
 -16  -6   8-716.551 543.761   2
  22 -16   8-109.228 537.700   1
   6  16   8 293.992 599.246   3
  -6  22   8 847.373 578.633   3
  16 -22   8 1296.41 763.883   1
 -22   6   8 306.341 534.987   4
 -16  -6   8 289.364 679.359   1
 -22   7  -8 665.740 479.041   4
 -22   7  -8 1784.58 713.844   2
 -15  -7  -5 1598.90 565.047   4
  15 -22  -5 1641.12 497.964   1
 -22   7  -5 2054.64 618.921   2
 -15  -7  -5 1028.77 508.432   2
  -7  22  -5 3205.00 456.025   4
 -22   7  -5 2123.04 586.390   4
 -22   7  -2 5256.38 703.845   2
  -7  22  -2 5507.17 331.532   2
 -15  -7  -2 7051.82 799.933   2
  15 -22  -2 7112.39 757.529   1
   7  15  -2 5955.16 675.708   3
  -7  22  -2 6507.04 366.227   2
 -22   7  -2 7577.01 818.500   4
 -15  -7  -2 7012.31 773.750   4
 -22   7   1 4494.40 665.863   2
 -15  -7   1 5282.33 700.588   2
   7  15   1 6019.69 663.281   3
  -7  22   1 5062.29 636.643   3
  22 -15   1 4670.74 425.663   3
  22 -15   1 4953.08 738.628   1
 -22   7   1 4547.42 673.644   4
  15 -22   1 4489.14 706.455   1
 -15  -7   1 5927.13 723.783   4
 -15  -7   4 725.959 407.599   4
 -22   7   4 1034.47 492.030   2
  22 -15   4 432.454 490.948   3
 -15  -7   4 696.886 406.339   2
   7  15   4 1323.55 448.496   3
  15 -22   4 1241.66 576.473   1
  -7  22   4 988.153 473.966   3
 -15  -7   4 2087.23 695.173   1
 -22   7   4 1437.40 533.344   4
  22 -15   4 443.845 454.677   1
 -22   7   7 3676.11 781.140   2
  22 -15   7 5275.07 939.866   3
 -15  -7   7 3078.18 598.563   2
  15 -22   7 4369.90 888.575   1
   7  15   7 3657.03 749.467   3
  -7  22   7 3415.59 664.398   3
  22 -15   7 4979.69 779.098   1
 -22   7   7 4561.74 706.490   4
 -15  -7   7 4191.19 898.290   1
 -15  -7   7 4654.48 578.749   4
 -22   8  -6 102.971 540.710   2
  -8  22  -6 559.772 300.517   4
 -14  -8  -6 139.800 257.036   1
 -22   8  -6 371.468 435.291   4
 -22   8  -3 5665.55 720.515   2
 -14  -8  -3 6944.87 808.427   2
  14 -22  -3 6328.41 701.845   1
  -8  22  -3 7769.87 703.519   4
 -22   8  -3 6217.21 753.901   4
 -14  -8  -3 6188.64 788.578   4
 -14  -8   0 541.723 454.635   4
  22 -14   0-259.483 309.721   3
 -22   8   0 948.367 482.160   2
  22 -14   0 37.0112 469.816   1
 -14  -8   0-100.858 420.662   2
   8  14   0 126.872 363.477   3
  22 -14   0 600.355 236.297   3
  -8  22   0 282.944 412.989   3
  -8  22   0 21.7033 305.888   2
  -8  22   0 1137.63 381.434   2
  14 -22   0-110.673 466.771   1
 -22   8   0 870.206 425.307   4
  22 -14   3 6861.73 746.204   3
 -14  -8   3 5911.10 670.009   2
  22 -14   3 6593.61 766.839   1
   8  14   3 6340.59 688.452   3
  -8  22   3 6270.03 709.617   3
 -14  -8   3 7900.96 943.417   1
  14 -22   3 7003.49 889.159   1
 -22   8   3 6474.93 777.014   4
 -22   8   3 5177.61 720.347   2
 -14  -8   3 7065.01 738.185   4
 -22   8   6 1820.25 588.533   2
 -14  -8   6 2136.25 476.241   4
  22 -14   6 1461.86 683.985   3
 -14  -8   6 2052.27 520.435   2
  14 -22   6 766.636 668.904   1
   8  14   6 1281.16 521.330   3
  -8  22   6 2229.62 571.879   3
  22 -14   6 1547.09 559.794   1
 -22   8   6 912.555 498.208   4
 -14  -8   6 2384.90 782.638   1
 -22   9  -7 2129.52 665.601   2
 -22   9  -7 2669.66 585.551   4
 -13  -9  -4 5371.21 790.466   4
 -22   9  -4 2606.00 604.640   2
 -13  -9  -4 4398.23 760.167   2
  -9  22  -4 5095.07 557.001   4
 -13  -9  -4 4301.46 530.036   1
  13 -22  -4 4097.87 590.736   1
 -22   9  -4 4466.39 692.001   4
 -13  -9  -1 1956.12 518.986   4
  22 -13  -1 1388.62 212.306   3
 -22   9  -1 2042.36 512.684   2
  22 -13  -1 1917.99 201.759   3
 -13  -9  -1 1985.25 536.189   2
   9  13  -1 2698.35 488.659   3
  -9  22  -1 2171.06 497.085   3
 -13  -9  -1 2783.91 589.444   1
  -9  22  -1 2586.27 391.335   2
 -22   9  -1 2901.09 600.245   4
  13 -22  -1 1680.47 527.284   1
 -13  -9   2 1266.39 443.993   4
 -22   9   2 432.084 495.077   2
  22 -13   2 248.808 436.529   1
  22 -13   2-193.984 364.409   3
 -13  -9   2 216.260 418.470   2
  13 -22   2 199.024 560.090   1
   9  13   2-305.663 419.927   3
  -9  22   2 101.517 375.247   3
 -13  -9   2 88.5919 526.135   1
 -22   9   2 744.082 452.740   4
  22 -13   5 5505.10 819.062   3
 -13  -9   5 4606.70 597.168   2
  22 -13   5 5988.10 785.609   1
   9  13   5 4761.97 705.247   3
  -9  22   5 4109.96 647.635   3
  13 -22   5 6609.79 930.819   1
 -13  -9   5 6656.14 956.113   1
 -22   9   5 4219.42 698.464   4
 -22   9   5 4766.80 790.137   2
 -13  -9   5 6723.83 673.700   4
  22 -13   8 1791.68 787.808   3
 -13  -9   8 2296.87 548.782   2
  13 -22   8 2571.42 833.817   1
   9  13   8 2981.01 737.366   3
  -9  22   8 3033.48 676.818   3
  22 -13   8 2421.42 632.873   1
 -22   9   8 2767.81 659.713   4
 -22   9   8 1478.87 641.642   2
 -13  -9   8 3235.38 846.324   1
 -22  10  -8 2332.62 583.300   4
 -22  10  -8 2268.70 724.462   2
  12 -22  -5 3686.23 582.813   1
 -22  10  -5 3588.04 608.238   2
 -10  22  -5 4232.09 492.039   4
 -12 -10  -5 4095.98 450.622   1
 -22  10  -5 3950.11 651.412   4
 -12 -10  -2 9051.98 883.180   4
 -22  10  -2 7309.39 757.846   2
  12 -22  -2 8412.88 776.612   1
 -12 -10  -2 8779.40 860.737   2
 -10  22  -2 7022.98 394.145   2
  10  12  -2 7183.65 664.683   3
 -10  22  -2 8278.82 731.554   4
 -12 -10  -2 7910.05 713.984   1
 -10  22  -2 7892.36 417.585   2
 -22  10  -2 8195.96 867.815   4
  22 -12   1 6696.19 566.542   3
  22 -12   1 6461.74 747.397   1
 -12 -10   1 6664.50 693.211   2
  10  12   1 5983.59 617.109   3
 -10  22   1 6142.09 673.897   3
 -10  22   1 8220.92 719.596   2
 -12 -10   1 7572.19 861.853   1
  12 -22   1 6518.34 801.535   1
 -22  10   1 6279.29 745.013   4
 -22  10   1 6455.36 728.477   2
 -12 -10   1 7688.14 777.351   4
 -22  10   4 3447.78 669.661   2
  22 -12   4 4378.03 694.519   3
  12 -22   4 3987.01 827.935   1
 -12 -10   4 3680.42 534.963   2
  10  12   4 3562.44 612.432   3
 -10  22   4 4767.03 632.442   3
  22 -12   4 3833.05 653.486   1
 -12 -10   4 6282.48 960.005   1
 -22  10   4 3559.30 629.548   4
 -12 -10   4 4921.23 600.274   4
 -12 -10   7 5371.73 607.984   2
  22 -12   7 8498.90 1114.24   3
  22 -12   7 6452.31 781.220   1
  10  12   7 8305.22 959.853   3
 -10  22   7 6014.29 757.578   3
  12 -22   7 7201.59 1004.97   1
 -12 -10   7 8104.96 1103.88   1
 -22  10   7 7958.85 888.299   4
 -22  10   7 5162.00 831.248   2
  11 -22  -6 137.299 380.024   1
 -22  11  -6 87.7731 506.506   2
 -11  22  -6 269.882 262.680   4
 -22  11  -6-341.780 453.201   4
 -22  11  -3 12435.1 953.915   2
  11 -22  -3 10209.2 789.932   1
 -11 -11  -3 13297.9 1045.46   2
 -11  22  -3 12792.8 847.545   4
 -11 -11  -3 13440.1 836.390   1
 -22  11  -3 11537.3 938.933   4
 -11 -11   0 6329.53 727.619   4
  22 -11   0 4690.84 370.192   3
 -11 -11   0 5703.46 671.878   2
  11  11   0 4992.62 564.560   3
  22 -11   0 4802.60 312.445   3
 -11  22   0 5362.80 658.903   3
 -11  22   0 5682.66 698.171   4
 -11  22   0 7191.26 623.077   2
 -11 -11   0 7146.39 795.723   1
 -22  11   0 7026.41 775.979   4
  11 -22   0 6648.11 784.275   1
 -22  11   0 4555.73 638.800   2
  22 -11   3 12512.0 898.383   3
 -11 -11   3 10726.8 793.066   2
  11  11   3 10152.9 800.283   3
 -11  22   3 11803.3 852.128   3
  11 -22   3 10718.2 1020.31   1
 -11  22   3 12851.1 984.067   2
 -11 -11   3 12168.4 1106.48   1
 -22  11   3 11350.5 945.299   4
 -22  11   3 11372.7 945.077   2
  22 -11   3 11402.1 959.763   1
 -11 -11   3 13717.6 923.789   4
  11 -22   6 577.725 641.782   1
  22 -11   6-84.5118 525.700   3
 -11 -11   6 422.788 387.131   2
  11  11   6 580.231 501.203   3
 -11  22   6-498.946 441.752   3
  22 -11   6 683.346 472.493   1
 -22  11   6 393.125 459.385   4
 -22  11   6 124.383 541.223   2
 -11 -11   6 739.612 679.129   1
 -22  12  -7 7183.11 892.244   2
 -22  12  -7 6329.39 774.458   4
 -22  12  -4 4071.12 690.709   2
  10 -22  -4 4333.60 553.405   1
 -12  22  -4 4614.89 537.422   4
 -10 -12  -4 4988.84 535.663   1
 -22  12  -4 4283.17 653.591   4
 -10 -12  -1 8422.99 819.599   4
 -22  12  -1 7150.08 751.591   2
 -10 -12  -1 6842.59 750.715   2
  12  10  -1 7501.61 643.072   3
 -12  22  -1 8715.40 764.759   4
 -10 -12  -1 7920.14 745.170   1
 -12  22  -1 7854.28 565.791   2
 -22  12  -1 7219.66 777.663   4
  10 -22  -1 7743.68 810.333   1
 -10 -12   2 8051.41 765.792   4
  22 -10   2 7963.16 658.231   3
 -10 -12   2 7084.13 669.430   2
  12  10   2 7167.32 695.398   3
 -12  22   2 6821.15 708.245   3
  10 -22   2 7029.46 849.493   1
 -12  22   2 6740.57 767.957   4
 -12  22   2 7822.94 753.652   2
 -10 -12   2 7821.96 871.334   1
 -22  12   2 7567.41 801.029   4
 -22  12   2 6492.72 770.190   2
 -10 -12   5 4367.10 536.514   2
  22 -10   5 3987.90 722.476   3
  12  10   5 4785.80 720.362   3
 -12  22   5 4377.73 633.459   3
  22 -10   5 4689.74 632.343   1
 -12  22   5 5972.79 864.107   2
 -12  22   5 2041.31 688.241   4
 -22  12   5 5074.82 728.391   4
 -10 -12   5 6106.96 954.198   1
 -22  12   5 4428.37 725.482   2
  10 -22   5 4841.62 843.515   1
 -10 -12   8 4311.01 1022.72   1
  22 -10   8 2486.13 769.877   3
  12  10   8 3047.35 758.724   3
 -12  22   8 1503.21 558.503   3
 -12  22   8 2735.19 688.093   4
 -12  22   8 3625.44 886.171   2
 -22  12   8 1214.13 527.715   4
 -22  12   8 2110.58 717.607   2
  22 -10   8 1612.36 542.582   1
  10 -22   8 1982.55 756.845   1
 -22  13  -8 2696.56 678.860   2
 -22  13  -8 2896.76 585.730   4
  -9 -13  -5 5079.58 411.163   1
 -22  13  -5 4436.16 680.427   2
 -13  22  -5 5355.01 547.990   4
   9 -22  -5 4809.02 568.574   1
 -22  13  -5 6411.72 746.050   4
 -13  22  -2 193.203 241.330   2
  -9 -13  -2 270.385 398.498   1
 -22  13  -2-338.034 432.655   2
  13   9  -2-139.485 330.124   3
  -9 -13  -2 712.146 492.871   2
   9 -22  -2 259.914 424.578   1
 -13  22  -2 1062.43 426.567   4
 -22  13  -2 326.585 424.484   4
  -9 -13   1 1495.06 529.778   1
 -22  13   1 2453.28 567.013   2
   9 -22   1 987.052 556.762   1
  22  -9   1 2723.16 371.952   3
  13   9   1 1642.01 388.913   3
  -9 -13   1 2247.61 502.484   2
 -13  22   1 2029.22 468.933   3
 -13  22   1 2468.72 554.659   4
 -13  22   1 3262.28 532.722   2
 -22  13   1 3072.65 583.529   4
  22  -9   4 4379.07 689.984   3
  -9 -13   4 3683.63 500.534   2
  13   9   4 5101.98 659.023   3
   9 -22   4 6248.30 895.860   1
 -13  22   4 4531.71 620.553   3
 -13  22   4 5108.11 761.014   4
 -13  22   4 4460.20 714.371   2
 -22  13   4 4666.79 666.667   4
  -9 -13   4 5518.98 912.139   1
 -22  13   4 4830.03 747.259   2
  -9 -13   7 5088.91 919.365   1
  22  -9   7 4071.06 835.780   3
  -9 -13   7 2703.14 453.067   2
  13   9   7 2340.79 656.454   3
 -13  22   7 2529.99 560.485   3
 -13  22   7 3760.73 740.870   4
 -13  22   7 3610.63 809.591   2
 -22  13   7 3100.48 649.271   4
  22  -9   7 2934.49 612.511   1
   9 -22   7 3494.53 847.898   1
 -22  13   7 3227.87 709.950   2
   8 -22  -6 975.777 375.793   1
 -22  14  -6 1329.69 568.354   2
 -14  22  -6 1175.68 351.598   4
 -22  14  -6 478.864 414.795   4
   8 -22  -3 7742.13 742.285   1
 -14  22  -3 6984.00 435.664   2
 -22  14  -3 8229.26 805.823   2
 -14  22  -3 9395.74 756.581   4
 -22  14  -3 7775.77 791.905   4
  -8 -14  -3 9499.18 721.125   1
  -8 -14   0 924.311 509.966   1
 -22  14   0 1109.09 485.933   2
   8 -22   0 720.268 497.330   1
  22  -8   0 563.790 183.899   3
  14   8   0 526.109 341.508   3
  -8 -14   0 189.626 413.570   2
 -14  22   0 198.366 373.441   4
 -22  14   0 1021.91 456.026   4
 -14  22   0 317.398 354.059   2
  22  -8   3 7898.19 726.487   3
  -8 -14   3 7102.49 625.552   2
  14   8   3 7396.48 695.703   3
   8 -22   3 7610.47 908.264   1
 -14  22   3 7176.53 707.146   3
 -14  22   3 8220.28 841.624   4
 -14  22   3 9063.33 830.808   2
 -22  14   3 7113.51 781.337   4
  -8 -14   3 9337.38 999.782   1
 -22  14   3 6370.96 772.767   2
  -8 -14   6 331.596 623.543   1
  22  -8   6-568.021 575.262   3
  14   8   6 79.2128 480.244   3
  -8 -14   6-45.5512 330.438   2
 -14  22   6 216.531 386.411   3
 -14  22   6 23.3555 484.168   4
 -14  22   6 1171.64 636.538   2
 -22  14   6 495.235 473.735   4
   8 -22   6 710.017 634.941   1
 -22  14   6-1126.10 631.715   2
 -22  15  -7 3748.96 724.961   2
 -15  22  -7 3085.45 435.526   4
 -22  15  -7 2878.24 555.673   4
   7 -22  -4 1017.75 424.513   1
 -22  15  -4 447.762 458.249   2
  -7 -15  -4 940.627 346.118   1
 -15  22  -4 769.525 219.146   2
 -15  22  -4 1306.83 433.482   4
 -22  15  -4 1349.91 493.439   4
 -22  15  -1 5669.52 679.691   2
  15   7  -1 5511.75 530.886   3
   7 -22  -1 5505.04 694.610   1
 -15  22  -1 6723.73 682.873   4
 -22  15  -1 5767.03 733.105   4
 -15  22  -1 6167.61 546.668   2
  -7 -15  -1 6365.50 712.140   1
  22  -7   2 7440.56 586.088   3
  15   7   2 6882.01 666.094   3
  -7 -15   2 6360.13 616.099   2
   7 -22   2 6362.76 835.939   1
 -15  22   2 6061.14 667.855   3
 -15  22   2 7631.51 789.477   4
 -15  22   2 6321.26 686.795   2
 -22  15   2 6962.20 772.134   4
  -7 -15   2 8660.56 940.102   1
 -22  15   2 5835.25 731.925   2
 -22  15   5 1586.46 531.357   4
  -7 -15   5 2539.36 772.036   1
  22  -7   5 2607.02 626.460   3
  15   7   5 1747.48 505.356   3
  -7 -15   5 1895.29 403.435   2
 -15  22   5 1898.47 487.338   3
 -15  22   5 2069.02 611.120   4
 -15  22   5 2473.65 650.223   2
   7 -22   5 1864.92 726.217   1
 -22  15   5 2318.28 659.846   2
  -7 -15   8 1589.10 793.995   1
  22  -7   8 316.603 599.808   3
  15   7   8 1523.85 645.132   3
 -15  22   8 503.041 414.569   3
 -15  22   8 1230.45 628.101   4
 -15  22   8 939.502 666.634   2
 -22  15   8 1006.37 555.667   4
   7 -22   8 1525.56 768.777   1
 -22  15   8 1824.30 696.765   2
 -22  16  -8 71.3467 507.092   2
 -22  16  -8 476.845 423.669   4
  -6 -16  -5 3120.38 350.380   1
   6 -22  -5 2777.60 486.844   1
 -22  16  -5 2612.40 592.985   2
 -16  22  -5 1157.13 206.860   2
 -16  22  -5 3275.39 519.724   4
 -22  16  -5 2273.23 522.696   4
 -22  16  -2 3776.62 598.063   2
  16   6  -2 3929.88 464.479   3
 -16  22  -2 4041.01 581.614   4
   6 -22  -2 4328.09 644.881   1
 -22  16  -2 3564.31 605.468   4
 -16  22  -2 3490.02 422.491   2
  -6 -16  -2 4932.61 643.763   1
  22  -6   1 13038.7 630.907   3
  16   6   1 12333.5 775.766   3
   6 -22   1 12896.1 1033.34   1
  -6 -16   1 11350.7 773.877   2
 -16  22   1 12479.0 931.719   4
 -22  16   1 12667.3 1006.82   4
 -16  22   1 12491.4 869.684   2
  -6 -16   1 14138.7 1098.24   1
 -22  16   1 10891.8 879.966   2
  -6 -16   4 3069.17 765.214   1
  22  -6   4 3548.53 607.839   3
  16   6   4 3416.20 606.546   3
  -6 -16   4 2247.65 381.441   2
 -16  22   4 2524.22 479.228   3
 -16  22   4 2788.45 596.897   4
   6 -22   4 3672.66 761.246   1
 -22  16   4 1768.94 503.750   4
 -16  22   4 3573.61 688.858   2
 -22  16   4 2473.62 646.430   2
  -6 -16   7 1507.54 751.235   1
  22  -6   7 1714.96 616.325   3
  16   6   7 1609.74 633.999   3
 -22  16   7 1453.92 530.680   4
 -16  22   7 898.526 452.438   3
 -16  22   7 1890.26 622.326   4
   6 -22   7 964.736 682.633   1
 -16  22   7 1699.50 664.921   2
 -22  16   7 1982.97 683.493   2
 -22  17  -6 991.247 466.151   2
   5 -22  -6 2526.14 418.449   1
 -17  22  -6 1168.08 391.251   4
 -22  17  -6 2049.69 525.970   4
 -17  22  -3 4839.19 495.018   2
 -22  17  -3 4440.01 634.559   2
  -5 -17  -3 6932.62 665.867   1
 -17  22  -3 6157.69 658.785   4
   5 -22  -3 6570.74 683.673   1
 -22  17  -3 5823.32 723.166   4
 -22  17   0 755.019 431.399   2
  -5 -17   0 872.202 520.257   1
  22  -5   0 856.881 225.029   3
 -17  22   0 896.009 488.485   4
  17   5   0 460.994 296.059   3
 -22  17   0 807.797 427.940   4
   5 -22   0 134.963 481.599   1
 -17  22   0 217.408 373.052   2
  22  -5   3 10487.8 770.950   3
   5 -22   3 11483.0 1093.40   1
  17   5   3 9502.67 759.497   3
  -5 -17   3 7395.07 569.337   2
 -17  22   3 9483.77 747.924   3
 -17  22   3 8022.11 844.359   4
 -17  22   3 9977.29 886.462   2
 -22  17   3 8537.39 853.689   4
 -22  17   3 8296.07 878.038   2
  -5 -17   3 10236.3 1068.16   1
  -5 -17   6 2447.65 795.447   1
  22  -5   6 2442.18 633.928   3
  17   5   6 2224.88 618.713   3
 -17  22   6 1952.29 490.877   3
   5 -22   6 1987.09 739.578   1
 -17  22   6 2173.48 608.717   4
 -22  17   6 2165.41 604.555   4
 -17  22   6 1499.28 640.079   2
 -22  17   6 2491.82 740.467   2
 -22  18  -7 1847.86 513.844   2
 -18  22  -7 1150.76 388.958   4
 -22  18  -7 847.853 432.942   4
 -18  22  -4 327.678 349.459   2
 -22  18  -4-484.855 427.947   2
   4 -22  -4-387.921 406.089   1
  -4 -18  -4-275.934 329.672   1
 -18  22  -4 617.585 380.896   4
 -22  18  -4 220.542 416.725   4
 -18  22  -1 3046.86 463.187   2
  -4 -18  -1 4566.62 663.510   1
 -22  18  -1 2441.72 503.618   2
  18   4  -1 3252.08 426.615   3
 -18  22  -1 3083.60 562.465   4
 -22  18  -1 3378.71 623.129   4
   4 -22  -1 3440.34 622.469   1
  -4 -18   2 2674.14 670.974   1
  22  -4   2 2115.22 391.364   3
  18   4   2 1535.76 389.743   3
   4 -22   2 3056.75 710.530   1
 -18  22   2 1599.31 531.269   4
 -22  18   2 2658.23 601.635   4
 -18  22   2 1705.79 540.600   2
 -22  18   2 1243.13 540.476   2
  18   4   5 4605.36 723.013   3
  22  -4   5 4036.32 670.288   3
  -4 -18   5 5618.54 925.654   1
 -18  22   5 3251.17 516.930   3
   4 -22   5 4565.89 870.920   1
 -18  22   5 5062.82 822.336   2
 -18  22   5 3383.31 656.311   4
 -22  18   5 3896.40 680.038   4
 -22  18   5 3756.25 748.908   2
  22  -4   8 1203.10 673.853   3
  18   4   8 1010.59 616.189   3
  -4 -18   8 1472.29 818.770   1
 -18  22   8 640.573 374.731   3
   4 -22   8 1133.79 751.502   1
 -18  22   8 548.436 519.952   4
 -22  18   8 758.630 507.722   4
 -22  18   8 896.124 636.335   2
 -18  22   8 528.015 641.356   2
   3 -22  -5 563.412 341.002   1
  -3 -19  -5 673.170 334.938   1
 -22  19  -5 998.227 517.908   2
 -19  22  -5 1499.72 399.506   2
 -19  22  -5 1101.00 425.198   4
 -22  19  -5 398.270 444.465   4
   3 -22  -2 2969.23 559.158   1
 -19  22  -2 2255.96 446.210   2
 -22  19  -2 1834.01 485.507   2
  -3 -19  -2 2381.42 544.209   1
  19   3  -2 2255.66 342.050   3
 -19  22  -2 2439.07 537.856   4
 -22  19  -2 2559.24 571.206   4
 -22  19   1 1901.71 537.661   2
  -3 -19   1 2565.41 663.032   1
  22  -3   1 1905.68 356.155   3
  19   3   1 1445.01 364.385   3
   3 -22   1 2264.69 651.855   1
 -19  22   1 2067.10 539.886   4
 -22  19   1 2597.96 623.232   4
 -19  22   1 2224.71 548.323   2
  22  -3   4 1172.93 462.434   3
  -3 -19   4 850.512 621.992   1
  19   3   4 1487.18 469.364   3
   3 -22   4 1195.87 622.060   1
 -19  22   4 1462.78 394.636   3
 -19  22   4 2249.77 615.353   4
 -22  19   4 1694.59 605.229   4
 -19  22   4 814.180 509.331   2
 -22  19   4 1771.38 619.492   2
  22  -3   7 1844.62 640.255   3
  19   3   7 930.653 597.024   3
  -3 -19   7 1305.39 776.973   1
 -19  22   7 1353.66 421.786   3
   3 -22   7 67.3337 653.675   1
 -19  22   7 469.695 524.548   4
 -19  22   7-734.219 666.033   2
 -22  19   7 582.491 567.961   2
 -22  19   7 1780.78 559.986   4
 -22  20  -6 6634.77 737.281   2
 -20  22  -6 4579.35 510.613   2
 -20  22  -6 5376.37 644.274   4
 -22  20  -6 5181.48 663.852   4
 -20  22  -3 10686.5 737.440   2
 -22  20  -3 11000.8 823.990   2
  -2 -20  -3 12188.5 824.404   1
   2 -22  -3 12567.1 859.644   1
 -20  22  -3 11048.4 904.018   4
 -22  20  -3 10862.3 905.695   4
 -22  20   0 2283.32 526.514   2
  22  -2   0 2519.88 342.279   3
  -2 -20   0 4234.99 696.517   1
  20   2   0 2588.17 395.716   3
   2 -22   0 3233.12 681.667   1
 -20  22   0 3590.22 620.638   4
 -22  20   0 2755.78 592.232   4
 -20  22   0 3555.05 585.544   2
  -2 -20   3 11139.4 1122.22   1
   2 -22   3 12029.4 1156.19   1
  22  -2   3 11269.2 793.910   3
  20   2   3 10615.8 789.733   3
 -20  22   3 9252.22 906.322   4
 -22  20   3 10469.5 970.382   4
 -20  22   3 11135.5 977.074   2
 -22  20   3 9636.08 943.279   2
  22  -2   6 2889.64 663.335   3
  20   2   6 2307.00 673.124   3
  -2 -20   6 2709.56 809.304   1
   2 -22   6 2385.01 841.467   1
 -20  22   6 1823.15 432.287   3
 -20  22   6 3113.16 685.643   4
 -22  20   6 2440.07 673.144   4
 -20  22   6 2544.76 725.742   2
 -22  20   6 2434.69 715.344   2
 -21  22  -7 1805.46 456.828   4
 -22  21  -7 1808.56 498.293   4
  -1 -21  -4 2654.48 470.914   1
   1 -22  -4 1263.08 421.789   1
 -21  22  -4 1383.13 439.390   2
 -22  21  -4 1773.05 491.447   2
 -21  22  -4 1673.08 498.569   4
 -22  21  -4 607.073 438.291   4
 -21  22  -1 3201.78 512.579   2
 -22  21  -1 3545.78 567.896   2
  -1 -21  -1 4981.46 705.624   1
  21   1  -1 3038.18 366.299   3
  22  -1  -1 2355.53 287.629   3
   1 -22  -1 3217.68 598.644   1
 -21  22  -1 3873.31 618.313   4
 -22  21  -1 3650.07 636.939   4
  22  -1   2 1282.21 372.190   3
  21   1   2 1759.32 395.756   3
  -1 -21   2 2302.00 716.268   1
   1 -22   2 2058.15 660.091   1
 -21  22   2 1068.26 498.032   4
 -22  21   2 1033.51 505.387   4
 -21  22   2 1022.87 540.047   2
 -22  21   2 2135.90 560.802   2
  22  -1   5 3091.00 613.576   3
  21   1   5 2906.62 600.556   3
  -1 -21   5 3627.80 845.034   1
   1 -22   5 2239.00 760.749   1
 -21  22   5 2334.07 427.663   3
 -22  21   5 2008.45 364.723   3
 -21  22   5 2637.81 646.962   4
 -22  21   5 2700.98 639.785   4
 -21  22   5 2773.15 656.268   2
 -22  21   5 3347.46 717.093   2
 -22  22  -5-54.2636 389.109   2
   0 -22  -5 239.083 343.468   1
 -22  22  -5 792.024 434.099   4
 -22  22  -2 1822.61 485.038   2
 -22  22  -2 1855.94 538.052   4
   0 -22  -2 2694.98 580.236   1
  22   0   1 279.948 296.471   3
   0 -22   1 1027.45 588.239   1
 -22  22   1 119.939 440.690   4
 -22  22   1-489.637 482.163   2
  22   0   4 236.916 428.177   3
   0 -22   4-17.6282 600.437   1
 -22  22   4-87.5743 447.365   4
 -22  22   4-699.561 631.770   2
  22   0   7-823.493 543.065   3
   0 -22   7-616.769 777.666   1
 -22  22   7 915.626 579.296   4
 -22  22   7-808.239 630.087   2
 -23   0  -5-429.637 549.741   4
 -23   0  -5 1700.64 719.611   2
 -23   0  -2 5180.45 791.153   2
   0  23  -2 3869.51 621.728   3
  23 -23  -2 3222.31 676.955   1
 -23   0  -2 4690.47 811.763   4
 -23   0   1-482.221 499.140   2
  23 -23   1 173.758 539.703   1
   0  23   1 110.492 429.758   3
 -23   0   1 955.877 551.455   4
 -23   0   4 2791.14 701.959   2
   0  23   4 1895.56 608.285   3
  23 -23   4 2525.01 700.584   1
 -23   0   4 2760.30 679.365   4
 -22  -1  -6 4512.34 835.658   4
 -23   1  -6 4097.98 835.946   2
 -22  -1  -6 3404.59 819.075   2
 -23   1  -6 5448.43 890.629   4
  23 -22  -3 7222.69 871.454   1
 -23   1  -3 7755.39 916.518   2
 -22  -1  -3 8837.57 993.370   2
  22 -23  -3 7868.86 866.586   1
 -23   1  -3 9432.81 1027.91   4
 -22  -1  -3 9281.57 993.541   4
 -23   1   0 4445.28 727.126   2
 -22  -1   0 3288.37 668.750   2
  22 -23   0 3942.41 709.940   1
   1  22   0 3229.04 637.777   3
  -1  23   0 3995.56 604.209   3
  23 -22   0 3496.16 720.020   1
 -23   1   0 4433.09 719.747   4
 -22  -1   0 3740.19 714.702   4
 -23   1   3 10521.6 1016.26   2
 -22  -1   3 10746.2 976.871   2
  22 -23   3 10571.1 1068.96   1
   1  22   3 10054.4 938.357   3
  -1  23   3 9522.90 903.764   3
  23 -22   3 10095.4 1010.59   1
 -23   1   3 13012.1 1112.61   4
 -22  -1   3 11842.8 1029.70   4
 -23   1   6 2376.45 674.010   2
 -22  -1   6 1849.20 639.141   2
  22 -23   6 2150.35 719.568   1
   1  22   6 1578.34 619.360   3
  -1  23   6 1722.18 593.241   3
  23 -22   6 2581.85 752.520   1
 -23   1   6 2126.98 641.149   4
 -22  -1   6 1821.87 605.153   4
 -23   2  -7 1364.58 623.739   4
 -21  -2  -7 1285.96 578.081   4
 -23   2  -7-188.730 618.811   2
 -21  -2  -7 560.737 636.612   2
 -21  -2  -4-323.650 502.355   4
 -23   2  -4 975.992 595.497   2
 -21  -2  -4-147.446 589.317   2
  21 -23  -4 797.087 540.189   1
 -23   2  -4-436.297 493.225   4
 -23   2  -1 1018.86 533.591   2
  23 -21  -1 925.268 544.835   1
 -21  -2  -1 1640.93 613.740   2
   2  21  -1 956.372 487.286   3
  21 -23  -1 867.089 557.308   1
  -2  23  -1 645.204 434.103   3
 -23   2  -1 1629.45 601.662   4
 -21  -2  -1 1545.13 599.944   4
 -23   2   2 2626.39 645.669   2
 -21  -2   2 2622.73 612.597   2
  23 -21   2 2439.39 628.748   1
   2  21   2 3554.84 655.019   3
  -2  23   2 2184.96 557.509   3
  21 -23   2 1720.00 589.656   1
 -23   2   2 2619.20 626.379   4
 -21  -2   2 3344.39 700.011   4
 -23   2   5 3133.72 730.402   2
 -21  -2   5 2883.37 654.174   2
  21 -23   5 2096.93 691.929   1
  -2  23   5 3735.21 737.046   3
   2  21   5 3062.63 658.676   3
  23 -21   5 3011.41 742.589   1
 -23   2   5 3306.21 694.384   4
 -21  -2   5 3003.52 652.083   4
 -20  -3  -5 2170.72 653.782   4
 -23   3  -5 1491.95 637.226   2
 -20  -3  -5 2059.82 694.960   2
 -23   3  -5 462.743 585.774   4
  20 -23  -2 4965.77 734.837   1
 -23   3  -2 5260.57 756.595   2
 -20  -3  -2 4844.09 761.188   2
   3  20  -2 3694.28 637.404   3
  23 -20  -2 4243.74 679.276   1
 -23   3  -2 5650.70 792.119   4
 -20  -3  -2 4119.02 744.130   4
 -23   3   1 2322.71 610.792   2
 -20  -3   1 3100.44 666.935   2
   3  20   1 2454.00 561.385   3
  -3  23   1 3192.00 608.391   3
  20 -23   1 1916.93 606.705   1
  23 -20   1 2195.30 632.545   1
 -23   3   1 2579.76 606.787   4
 -20  -3   1 3450.86 675.593   4
  20 -23   4 3239.07 749.145   1
 -23   3   4 2887.21 706.968   2
  23 -20   4 2431.32 651.290   1
 -20  -3   4 2408.49 649.944   2
   3  20   4 2294.93 600.788   3
  -3  23   4 1856.43 575.579   3
 -20  -3   4 3783.49 732.471   4
 -23   3   4 3101.42 638.722   4
 -23   3   7 3263.25 792.304   2
  23 -20   7 2555.76 902.635   3
 -20  -3   7 625.856 533.331   2
   3  20   7 1574.96 656.770   3
  -3  23   7 1447.55 578.043   3
  23 -20   7 1205.13 710.700   1
 -20  -3   7 564.489 733.143   1
 -23   3   7 1047.91 531.373   4
  20 -23   7 2065.52 721.610   1
 -20  -3   7 897.364 507.418   4
 -23   4  -6 5716.35 888.120   2
 -19  -4  -6 6550.86 954.869   2
 -23   4  -6 7802.10 924.132   4
 -19  -4  -6 7881.48 983.146   4
  19 -23  -3 11237.9 973.628   1
 -23   4  -3 9532.68 975.605   2
 -19  -4  -3 9739.53 959.588   2
 -23   4  -3 11568.4 1041.42   4
 -19  -4  -3 9477.97 993.997   4
 -23   4   0 7231.15 809.221   2
 -19  -4   0 7769.08 876.367   2
  23 -19   0 6803.71 825.820   1
  19 -23   0 7574.44 858.736   1
   4  19   0 7006.23 700.509   3
  -4  23   0 6233.62 728.893   3
 -23   4   0 7423.30 853.516   4
 -19  -4   0 9615.90 915.851   4
 -23   4   3 12154.7 1041.66   2
 -19  -4   3 12368.1 981.009   2
  19 -23   3 10992.7 1024.43   1
   4  19   3 10942.8 905.767   3
  -4  23   3 10637.1 938.436   3
  23 -19   3 10981.1 1000.65   1
 -23   4   3 11847.2 1033.68   4
 -19  -4   3 12043.2 998.502   4
  23 -19   6 928.116 579.933   1
 -23   4   6 2477.47 681.610   2
  19 -23   6 1154.40 665.656   1
  23 -19   6 1369.45 773.070   3
 -19  -4   6 1042.19 536.959   2
   4  19   6 913.183 523.935   3
  -4  23   6 563.171 467.347   3
 -23   4   6 1410.71 564.547   4
 -19  -4   6 1354.32 503.337   4
 -23   5  -7 2149.63 561.559   4
 -18  -5  -7 2705.17 769.942   4
 -23   5  -7 3431.14 849.883   2
 -18  -5  -4 3302.16 720.058   4
 -23   5  -4 2974.40 659.457   2
 -18  -5  -4 2092.63 653.692   2
  18 -23  -4 2091.14 566.691   1
 -23   5  -4 1547.64 561.649   4
 -23   5  -1 5598.38 752.410   2
  -5  23  -1 5249.47 467.395   2
 -18  -5  -1 5001.90 732.610   2
  23 -18  -1 3041.41 381.898   3
   5  18  -1 4598.06 666.966   3
  18 -23  -1 4944.69 741.006   1
  -5  23  -1 4972.04 654.835   3
 -23   5  -1 5022.73 734.584   4
  23 -18  -1 4520.03 734.816   1
 -18  -5  -1 4558.23 725.959   4
  18 -23   2 766.361 535.964   1
 -23   5   2 648.402 471.115   2
 -18  -5   2 1814.27 524.368   2
   5  18   2 1044.87 453.967   3
  -5  23   2 1140.94 479.777   3
  23 -18   2 1263.61 495.538   1
 -23   5   2 1189.20 546.017   4
 -18  -5   2 99.4200 449.148   4
  23 -18   5 7548.54 989.001   3
 -23   5   5 4489.42 760.817   2
 -18  -5   5 3956.35 643.302   2
  23 -18   5 3890.84 735.244   1
   5  18   5 5068.84 712.529   3
  -5  23   5 4040.66 666.123   3
  18 -23   5 4977.97 860.303   1
 -23   5   5 5880.74 782.470   4
 -18  -5   5 5927.13 766.317   4
 -23   6  -5 4544.71 823.427   2
 -17  -6  -5 3501.06 747.116   2
  17 -23  -5 4964.30 672.041   1
  -6  23  -5 4014.40 534.072   4
 -23   6  -5 5045.39 782.845   4
 -17  -6  -5 4973.29 801.575   4
  -6  23  -2 5878.96 364.621   2
 -23   6  -2 7332.49 825.271   2
 -17  -6  -2 6395.44 796.229   2
   6  17  -2 6793.14 732.674   3
  17 -23  -2 7253.86 796.036   1
  -6  23  -2 7362.29 418.961   2
 -23   6  -2 7207.91 817.404   4
 -17  -6  -2 8015.86 864.236   4
 -17  -6   1 3769.47 649.917   4
 -23   6   1 4521.52 713.392   2
  17 -23   1 3859.24 719.581   1
 -17  -6   1 4168.11 684.190   2
  23 -17   1 3441.71 640.582   1
   6  17   1 3848.99 611.866   3
  -6  23   1 2486.53 533.920   3
 -23   6   1 3734.98 686.203   4
 -17  -6   4 2557.51 585.796   4
  23 -17   4 3724.01 743.891   3
 -23   6   4 2424.92 606.340   2
 -17  -6   4 2109.46 537.364   2
   6  17   4 2166.97 570.361   3
  -6  23   4 1270.55 495.659   3
  23 -17   4 2675.78 647.328   1
  17 -23   4 2348.82 693.809   1
 -23   6   4 2457.34 599.420   4
 -17  -6   7 4212.82 682.787   2
 -23   6   7 3536.60 758.232   2
  23 -17   7 5761.75 1056.80   3
  23 -17   7 3774.79 740.533   1
   6  17   7 3425.85 769.346   3
  -6  23   7 4049.04 707.624   3
  17 -23   7 4282.97 895.876   1
 -17  -6   7 5148.46 1064.37   1
 -23   6   7 4927.83 808.231   4
 -17  -6   7 5182.25 643.500   4
 -16  -7  -6 8494.22 959.342   4
 -23   7  -6 5485.00 882.944   2
 -16  -7  -6 5960.73 872.735   2
  -7  23  -6 5627.50 495.409   4
 -23   7  -6 7407.26 870.971   4
 -23   7  -3 10664.9 954.031   2
 -16  -7  -3 11881.1 1047.69   2
  16 -23  -3 10702.5 897.493   1
 -23   7  -3 12225.2 1023.51   4
 -16  -7  -3 11916.5 1049.53   4
  16 -23   0 3853.82 691.125   1
 -23   7   0 3840.58 685.135   2
 -16  -7   0 3650.77 669.038   2
  -7  23   0 3927.01 482.908   2
  23 -16   0 3034.22 340.599   3
   7  16   0 3904.40 590.540   3
  -7  23   0 3927.15 617.774   3
 -23   7   0 4880.20 735.031   4
  23 -16   0 4502.38 684.226   1
 -16  -7   0 3952.45 682.110   4
  23 -16   3 2880.52 662.726   1
 -16  -7   3 1186.30 524.151   4
  23 -16   3 1165.99 523.009   3
 -23   7   3 415.831 495.999   2
 -16  -7   3 562.657 437.244   2
   7  16   3 1166.83 512.374   3
  -7  23   3 839.824 415.948   3
  16 -23   3 318.230 536.375   1
 -23   7   3 1398.06 521.042   4
 -23   7   6 4209.63 797.428   2
  23 -16   6 5666.98 917.480   3
 -16  -7   6 3999.46 655.628   2
   7  16   6 5094.81 799.232   3
  -7  23   6 4244.12 722.054   3
  16 -23   6 4585.54 829.019   1
  23 -16   6 4012.09 675.838   1
 -16  -7   6 6249.81 1030.69   1
 -23   7   6 4626.56 741.072   4
 -16  -7   6 5039.26 642.312   4
 -23   8  -7 6306.28 913.564   2
 -23   8  -7 7048.77 866.243   4
 -15  -8  -4 2896.74 650.308   4
 -23   8  -4 2499.74 620.186   2
 -15  -8  -4 1454.27 592.968   2
  -8  23  -4 2174.17 440.036   4
 -15  -8  -4 1936.55 441.914   1
  15 -23  -4 1494.42 494.540   1
 -23   8  -4 2931.38 649.650   4
  23 -15  -1 3821.48 358.437   3
  15 -23  -1 5260.72 727.322   1
 -23   8  -1 4320.73 662.617   2
 -15  -8  -1 4126.01 691.928   2
  23 -15  -1 3423.73 295.467   3
  -8  23  -1 5945.15 484.780   2
   8  15  -1 4970.38 617.016   3
  -8  23  -1 4442.85 636.168   3
  -8  23  -1 7143.43 550.879   2
 -23   8  -1 4296.28 669.129   4
 -15  -8  -1 5459.32 736.278   4
 -15  -8   2 406.327 440.592   4
  23 -15   2 703.218 436.279   3
 -23   8   2 1339.14 521.051   2
 -15  -8   2 654.864 447.077   2
   8  15   2 638.568 402.994   3
  -8  23   2 491.953 407.123   3
  15 -23   2 580.604 564.912   1
  23 -15   2 1337.21 530.210   1
 -15  -8   2 1387.68 615.354   1
 -23   8   2 1071.82 471.853   4
  23 -15   5 7897.25 873.088   1
  23 -15   5 10500.4 1061.74   3
 -15  -8   5 7187.28 757.374   2
   8  15   5 7279.06 840.938   3
  -8  23   5 6091.53 726.097   3
 -15  -8   5 8714.47 1122.04   1
  15 -23   5 7912.33 1006.47   1
 -23   8   5 8103.89 877.389   4
 -23   8   5 6450.06 867.817   2
 -15  -8   5 7296.47 759.078   4
  23 -15   8 625.473 729.246   3
 -15  -8   8 1758.26 516.444   2
  15 -23   8 659.096 720.393   1
   8  15   8 2294.94 702.267   3
  -8  23   8 745.112 510.265   3
  23 -15   8 3387.29 737.937   1
 -23   8   8 2055.87 651.926   4
 -15  -8   8 2378.02 855.440   1
 -23   8   8 1320.52 694.765   2
 -23   9  -8 1719.43 525.259   4
 -23   9  -8 1675.92 653.984   2
 -14  -9  -5 10364.6 1043.84   4
 -23   9  -5 11719.8 1075.10   2
  14 -23  -5 10838.5 904.820   1
 -14  -9  -5 9131.70 966.222   2
  -9  23  -5 11510.9 740.185   4
 -14  -9  -5 9643.53 658.993   1
 -23   9  -5 9810.96 939.157   4
 -14  -9  -2 1467.61 563.467   4
 -23   9  -2 512.441 441.337   2
  14 -23  -2 733.541 487.781   1
  -9  23  -2 200.013 185.342   2
 -14  -9  -2 324.652 481.290   2
   9  14  -2 81.6013 401.750   3
  -9  23  -2 548.022 431.614   4
 -14  -9  -2-140.438 422.309   1
 -23   9  -2-362.624 464.442   4
  -9  23  -2-163.782 175.267   2
  23 -14   1 9145.81 685.059   3
 -14  -9   1 10138.4 861.499   2
   9  14   1 9705.34 807.210   3
  -9  23   1 8548.08 785.228   3
  23 -14   1 7507.28 504.509   3
  -9  23   1 12075.9 845.830   2
 -14  -9   1 10470.0 997.878   1
 -23   9   1 9484.11 894.573   4
  14 -23   1 9833.96 955.493   1
 -14  -9   1 10608.4 914.990   4
  23 -14   1 9266.28 894.127   1
 -23   9   1 8604.09 840.470   2
 -14  -9   4 998.208 450.896   4
 -23   9   4 166.160 492.571   2
  23 -14   4 109.487 493.970   3
  23 -14   4 1510.80 583.001   1
 -14  -9   4 556.038 443.425   2
  14 -23   4 1891.27 697.891   1
   9  14   4 894.677 440.488   3
  -9  23   4 1271.94 525.796   3
 -23   9   4 279.292 459.158   4
 -14  -9   4 1144.77 675.274   1
 -14  -9   7 3897.17 636.887   2
  23 -14   7 5406.78 941.143   3
  14 -23   7 5222.39 943.648   1
   9  14   7 4744.00 822.497   3
  -9  23   7 4322.80 701.468   3
  23 -14   7 3768.21 719.840   1
 -23   9   7 4915.68 740.747   4
 -14  -9   7 4955.31 968.502   1
 -14  -9   7 4619.45 579.660   4
 -23   9   7 3898.94 750.596   2
 -23  10  -6 9457.17 1021.85   2
 -10  23  -6 8830.27 602.859   4
 -23  10  -6 9457.77 919.028   4
  13 -23  -6 7974.06 746.978   1
 -13 -10  -3-9.14451 484.791   4
 -23  10  -3 239.899 453.458   2
 -13 -10  -3 557.815 589.361   2
 -10  23  -3-444.644 375.715   4
  13 -23  -3 750.327 444.528   1
 -13 -10  -3-75.7792 387.266   1
 -23  10  -3-57.0869 439.339   4
 -23  10   0 12590.9 979.122   2
  23 -13   0 12128.6 607.032   3
 -13 -10   0 14498.0 990.897   2
  10  13   0 12963.7 877.854   3
  23 -13   0 11531.7 474.794   3
 -10  23   0 13790.6 952.552   3
 -10  23   0 15408.5 846.430   2
 -13 -10   0 16068.2 1117.84   1
 -23  10   0 12110.4 970.384   4
  13 -23   0 14201.7 1072.75   1
 -13 -10   0 14981.0 1040.20   4
 -13 -10   3 3127.22 600.672   4
 -23  10   3 1647.03 566.631   2
  23 -13   3 1050.04 523.979   1
  23 -13   3 2770.53 553.628   3
  13 -23   3 1470.23 630.276   1
 -13 -10   3 1851.38 517.940   2
  10  13   3 2163.38 526.070   3
 -10  23   3 1136.68 476.485   3
 -23  10   3 2386.62 590.092   4
 -13 -10   3 2783.02 734.812   1
 -23  10   6 4456.35 754.657   2
  23 -13   6 6148.87 923.267   3
 -13 -10   6 4181.09 613.339   2
  13 -23   6 4738.49 908.513   1
  23 -13   6 4510.73 725.241   1
  10  13   6 4457.13 719.797   3
 -10  23   6 3585.38 618.500   3
 -23  10   6 3741.25 662.841   4
 -13 -10   6 5674.50 997.074   1
 -13 -10   6 4782.58 614.916   4
 -23  11  -7 2797.30 772.643   2
 -23  11  -7 3937.08 669.874   4
  12 -23  -4 761.878 439.461   1
 -23  11  -4-1102.43 555.924   2
 -12 -11  -4-191.291 503.423   2
 -11  23  -4 545.214 328.787   4
 -23  11  -4 74.9100 428.881   4
 -12 -11  -4 44.3067 360.944   1
 -12 -11  -1 15915.3 1103.66   4
 -23  11  -1 15120.6 1036.83   2
 -12 -11  -1 16243.3 1096.16   2
  11  12  -1 15805.6 924.614   3
 -11  23  -1 16999.9 1042.61   4
 -12 -11  -1 18166.3 1114.06   1
 -11  23  -1 18239.5 806.709   2
 -23  11  -1 15336.6 1083.96   4
  12 -23  -1 16094.5 1067.93   1
 -12 -11   2 2572.80 546.014   4
  23 -12   2 3746.54 526.830   3
 -23  11   2 3269.35 663.417   2
  12 -23   2 3836.34 747.199   1
 -12 -11   2 3151.73 566.648   2
  11  12   2 2738.74 534.045   3
 -11  23   2 2447.64 549.412   3
 -11  23   2 2886.96 562.245   2
 -23  11   2 2702.32 625.399   4
 -12 -11   2 3108.12 759.559   1
  23 -12   2 2228.72 595.671   1
  23 -12   5 13733.1 1134.43   3
 -12 -11   5 11021.4 796.330   2
  11  12   5 10477.8 958.007   3
 -11  23   5 11127.0 901.668   3
  12 -23   5 14225.8 1242.62   1
  23 -12   5 10192.0 915.819   1
 -12 -11   5 14700.5 1329.77   1
 -23  11   5 13408.6 1076.62   4
 -23  11   5 11522.5 1065.26   2
 -12 -11   5 13305.9 902.548   4
 -12 -11   8 3410.55 894.864   1
  12 -23   8 1559.23 740.104   1
  23 -12   8 3209.48 892.418   3
  11  12   8 3231.37 765.489   3
  23 -12   8 2374.16 660.841   1
 -11  23   8 2228.19 613.984   3
 -11  23   8 1969.63 784.679   4
 -23  11   8 1235.97 611.936   4
 -23  11   8 1775.20 700.278   2
 -23  12  -8 897.551 579.518   2
 -23  12  -8 1486.49 519.021   4
 -23  12  -5 10863.3 1007.11   2
 -12  23  -5 10580.3 739.298   4
 -23  12  -5 10949.7 963.434   4
 -11 -12  -5 10717.6 605.970   1
  11 -23  -5 10662.4 816.220   1
 -23  12  -2 2662.82 559.822   2
  12  11  -2 3633.57 553.006   3
 -11 -12  -2 3224.91 672.298   2
 -12  23  -2 2267.13 489.650   4
 -23  12  -2 2873.45 615.405   4
  11 -23  -2 2272.34 564.880   1
 -11 -12  -2 3153.36 563.979   1
 -12  23  -2 2018.00 294.011   2
 -11 -12   1 15384.3 1049.89   4
  23 -11   1 16499.5 772.138   3
 -11 -12   1 15401.2 965.146   2
  12  11   1 15312.5 914.612   3
 -12  23   1 13919.9 937.285   3
 -12  23   1 17131.4 1110.77   4
 -12  23   1 17519.1 987.324   2
  11 -23   1 15452.3 1138.50   1
 -11 -12   1 17013.9 1204.70   1
 -23  12   1 16893.0 1136.89   4
 -23  12   1 13705.2 986.056   2
 -23  12   4-1039.58 587.406   2
  23 -11   4 196.878 461.008   1
 -11 -12   4 277.991 428.904   4
  11 -23   4 423.686 610.048   1
  23 -11   4 614.333 520.800   3
 -11 -12   4 177.355 370.208   2
  12  11   4-157.353 410.474   3
 -12  23   4 169.317 423.684   3
 -12  23   4-284.774 486.473   2
 -23  12   4-534.865 425.155   4
 -11 -12   4 166.886 584.090   1
  23 -11   7 4408.91 876.121   3
 -11 -12   7 2833.19 486.508   2
  12  11   7 4375.13 756.347   3
 -12  23   7 4847.46 703.130   3
  11 -23   7 5374.67 973.925   1
 -12  23   7 6100.73 1015.49   2
 -12  23   7 3902.79 757.895   4
  23 -11   7 4442.60 728.154   1
 -23  12   7 4065.30 755.155   4
 -11 -12   7 6958.12 1103.21   1
 -23  12   7 3891.97 780.385   2
 -23  13  -6 5618.93 786.849   2
  10 -23  -6 3968.28 536.387   1
 -13  23  -6 3413.77 459.411   4
 -23  13  -6 4015.36 658.350   4
 -10 -13  -3 2296.68 482.732   1
  10 -23  -3 1737.46 505.657   1
 -13  23  -3 1409.90 210.082   2
 -23  13  -3 931.541 463.056   2
 -13  23  -3 2017.69 493.216   4
 -23  13  -3 2186.54 582.825   4
  23 -10   0 10353.2 447.723   3
 -10 -13   0 12838.0 930.173   2
  13  10   0 13733.8 843.551   3
  23 -10   0 10463.3 415.561   3
 -13  23   0 15898.1 1038.65   4
 -13  23   0 17330.4 916.494   2
  10 -23   0 13737.1 1043.30   1
 -10 -13   0 13558.9 1019.30   1
 -23  13   0 13606.4 1033.51   4
 -23  13   0 12222.2 933.541   2
 -23  13   3-463.737 534.162   2
  10 -23   3 303.899 576.654   1
  23 -10   3 917.500 449.577   3
  13  10   3-491.347 421.515   3
 -10 -13   3-273.919 362.387   2
 -13  23   3 126.684 389.130   3
 -13  23   3-160.852 464.913   4
 -13  23   3 522.456 492.675   2
 -23  13   3-664.630 485.914   4
 -10 -13   3 833.062 603.386   1
  23 -10   6 10579.2 1056.28   3
 -10 -13   6 7208.62 630.458   2
  13  10   6 9237.26 928.442   3
 -13  23   6 8716.13 834.718   3
  10 -23   6 9597.42 1067.53   1
 -13  23   6 12228.5 1165.31   4
 -13  23   6 10806.3 1101.40   2
 -23  13   6 8460.27 895.944   4
 -10 -13   6 11120.4 1258.74   1
 -23  13   6 9445.61 1037.44   2
  23 -10   6 8108.99 876.964   1
 -23  14  -7 3813.34 764.838   2
 -23  14  -7 4297.27 649.300   4
  -9 -14  -4 1011.46 386.475   1
 -23  14  -4 1158.27 519.578   2
   9 -23  -4-22.0516 397.223   1
 -14  23  -4 503.690 359.838   4
 -23  14  -4 620.277 436.890   4
 -23  14  -1 8621.88 812.254   2
  14   9  -1 10417.1 728.726   3
  -9 -14  -1 11171.6 911.844   2
 -14  23  -1 11614.5 891.609   4
   9 -23  -1 9254.11 879.403   1
 -23  14  -1 10888.6 960.067   4
 -14  23  -1 10075.6 655.789   2
  -9 -14  -1 13496.8 976.869   1
   9 -23   2 607.071 591.307   1
  -9 -14   2 820.617 570.147   1
 -23  14   2 367.797 457.907   2
  23  -9   2 838.805 365.422   3
  14   9   2 923.875 391.416   3
  -9 -14   2 816.578 422.782   2
 -14  23   2 985.769 499.391   3
 -14  23   2 536.100 468.223   4
 -14  23   2 626.673 463.715   2
 -23  14   2 302.667 458.625   4
  23  -9   5 14438.2 1116.62   3
  -9 -14   5 9989.18 685.498   2
  14   9   5 12783.6 1000.20   3
   9 -23   5 12013.2 1170.68   1
 -14  23   5 10633.5 843.600   3
 -14  23   5 11856.1 1082.09   4
 -14  23   5 13288.7 1170.05   2
 -23  14   5 11135.6 990.008   4
  -9 -14   5 14670.8 1322.27   1
 -23  14   5 12141.3 1121.23   2
  -9 -14   8 2172.60 839.247   1
  23  -9   8 1708.48 732.156   3
  14   9   8 1724.67 645.110   3
 -14  23   8 1847.43 529.406   3
 -14  23   8 2936.64 768.721   4
 -14  23   8 2904.87 849.542   2
 -23  14   8 1641.65 607.594   4
   9 -23   8 998.286 655.585   1
 -23  14   8 658.870 561.281   2
 -23  15  -8 2098.23 657.274   2
 -23  15  -8 1107.18 487.300   4
  -8 -15  -5 7601.57 494.858   1
 -23  15  -5 8265.58 875.542   2
   8 -23  -5 8565.52 713.128   1
 -15  23  -5 8329.09 700.449   4
 -23  15  -5 7910.59 820.900   4
 -15  23  -2 1022.17 300.245   2
  -8 -15  -2 1269.37 461.315   1
 -23  15  -2 1035.31 455.942   2
   8 -23  -2 761.153 470.110   1
  15   8  -2 1074.60 408.880   3
 -15  23  -2 796.634 458.982   4
 -23  15  -2 885.726 473.198   4
  23  -8   1 6996.41 485.511   3
  15   8   1 5619.88 598.109   3
  -8 -15   1 5409.28 630.892   2
   8 -23   1 6158.91 812.304   1
 -15  23   1 5055.05 645.046   3
 -15  23   1 6484.42 727.846   4
 -15  23   1 5735.79 673.891   2
 -23  15   1 5468.94 750.720   4
  -8 -15   1 6111.87 801.264   1
 -23  15   1 5503.47 724.657   2
  -8 -15   4 2308.86 728.013   1
  23  -8   4 2466.80 580.580   3
  15   8   4 1959.94 545.021   3
  -8 -15   4 942.650 373.404   2
 -15  23   4 1451.94 502.455   3
 -15  23   4 1951.77 572.494   4
 -15  23   4 1928.45 576.489   2
 -23  15   4 1717.23 515.790   4
   8 -23   4 2497.69 743.841   1
 -23  15   4 3007.78 679.082   2
  23  -8   7 8792.32 1042.91   3
  15   8   7 5990.12 858.426   3
   8 -23   7 6765.53 992.748   1
 -15  23   7 5672.97 684.810   3
 -15  23   7 7218.79 931.565   4
 -15  23   7 7543.85 1020.29   2
 -23  15   7 7335.43 843.830   4
 -23  15   7 6507.61 897.709   2
  -8 -15   7 8633.57 1203.60   1
   7 -23  -6 4023.52 507.517   1
 -23  16  -6 5844.97 822.645   2
 -16  23  -6 3826.82 524.853   4
 -23  16  -6 4305.67 657.960   4
 -16  23  -3 639.330 288.565   2
 -23  16  -3 744.539 473.583   2
  -7 -16  -3 2185.47 498.730   1
   7 -23  -3 1509.52 492.146   1
 -16  23  -3 890.263 430.660   4
 -23  16  -3 972.080 434.370   4
   7 -23   0 3520.07 658.408   1
  23  -7   0 3989.27 295.891   3
  16   7   0 4713.71 537.368   3
  -7 -16   0 3910.13 584.377   2
 -16  23   0 4113.28 621.794   4
 -23  16   0 4920.45 715.300   4
 -16  23   0 3899.93 555.646   2
  -7 -16   0 5727.71 759.412   1
 -23  16   0 4809.25 651.163   2
  23  -7   3 12346.7 841.134   3
  16   7   3 11884.2 878.307   3
   7 -23   3 12178.2 1097.95   1
  -7 -16   3 10874.8 732.529   2
 -16  23   3 11455.1 840.719   3
 -16  23   3 11874.8 997.498   4
 -16  23   3 12005.0 972.913   2
 -23  16   3 10366.8 935.138   4
  -7 -16   3 13336.1 1193.91   1
 -23  16   3 12027.2 1047.45   2
  23  -7   6 7261.08 938.088   3
  16   7   6 8070.64 917.030   3
   7 -23   6 6605.71 1039.00   1
 -16  23   6 5255.30 645.377   3
 -16  23   6 6126.22 860.856   4
 -16  23   6 8699.33 1013.10   2
 -23  16   6 5828.01 800.936   4
  -7 -16   6 8597.63 1151.44   1
 -23  16   6 5386.27 821.735   2
 -23  17  -7 4055.60 755.156   2
 -17  23  -7 3269.32 496.720   4
 -23  17  -7 3643.35 626.477   4
 -23  17  -4 2133.56 530.463   2
 -17  23  -4 2258.98 356.478   2
  -6 -17  -4 2629.09 455.018   1
 -17  23  -4 2621.39 492.624   4
 -23  17  -4 3022.48 584.192   4
   6 -23  -4 2528.62 506.205   1
   6 -23  -1 3161.76 628.201   1
 -23  17  -1 2873.18 578.583   2
  17   6  -1 3279.74 471.549   3
 -17  23  -1 3618.12 620.955   4
 -23  17  -1 4053.12 663.526   4
 -17  23  -1 3968.29 501.487   2
  -6 -17  -1 4619.34 677.987   1
  23  -6   2 6645.40 568.435   3
  17   6   2 6079.32 635.482   3
   6 -23   2 7063.46 899.708   1
  -6 -17   2 5342.93 569.493   2
 -17  23   2 5884.99 647.896   3
 -17  23   2 6211.66 763.465   4
 -17  23   2 6143.77 745.368   2
 -23  17   2 5778.20 748.719   4
 -23  17   2 5226.26 733.132   2
  -6 -17   2 7532.86 935.592   1
  23  -6   5 5243.15 742.752   3
  -6 -17   5 4480.43 906.448   1
  17   6   5 5037.75 725.731   3
   6 -23   5 4992.34 945.339   1
  -6 -17   5 3250.79 394.508   2
 -17  23   5 2945.98 541.656   3
 -17  23   5 4621.52 742.714   4
 -17  23   5 5541.03 816.879   2
 -23  17   5 3835.72 710.605   4
 -23  17   5 5670.15 827.840   2
 -23  18  -5 4693.66 728.018   2
   5 -23  -5 4991.39 564.315   1
 -18  23  -5 3577.09 377.789   2
  -5 -18  -5 5186.56 471.019   1
 -18  23  -5 4882.18 602.158   4
 -23  18  -5 5481.56 732.755   4
 -18  23  -2 388.728 349.396   2
   5 -23  -2 1347.52 524.139   1
 -23  18  -2 1281.88 460.318   2
  -5 -18  -2 1590.12 495.167   1
  18   5  -2 652.991 315.846   3
 -18  23  -2 973.382 466.653   4
 -23  18  -2 2194.00 541.635   4
  23  -5   1 5932.93 466.198   3
   5 -23   1 6771.02 831.071   1
  18   5   1 5116.50 554.068   3
 -18  23   1 6118.54 766.161   4
 -23  18   1 5728.19 759.009   4
 -18  23   1 6175.62 705.672   2
 -23  18   1 5864.70 741.988   2
  -5 -18   1 6962.11 842.067   1
  -5 -18   4 2864.88 791.158   1
  23  -5   4 1392.81 486.779   3
  18   5   4 2372.15 539.761   3
 -18  23   4 1424.67 441.540   3
   5 -23   4 2133.78 690.837   1
 -18  23   4 2174.39 593.147   4
 -23  18   4 2151.78 624.211   4
 -18  23   4 1493.75 607.715   2
 -23  18   4 1800.47 566.280   2
  23  -5   7 1787.33 700.919   3
  -5 -18   7 3477.28 933.391   1
  18   5   7 4304.07 807.183   3
 -18  23   7 2027.04 501.078   3
   5 -23   7 3402.97 882.948   1
 -18  23   7 3895.51 749.310   4
 -23  18   7 2460.74 651.119   4
 -18  23   7 1807.90 730.111   2
 -23  18   7 2943.76 713.081   2
 -23  19  -6 1573.61 542.618   2
 -19  23  -6 1782.10 443.787   4
 -23  19  -6 1686.18 503.883   4
 -19  23  -3 9273.98 671.900   2
 -23  19  -3 10758.0 862.837   2
  -4 -19  -3 12101.8 838.648   1
   4 -23  -3 12751.0 895.323   1
 -19  23  -3 11492.5 892.152   4
 -23  19  -3 10151.3 941.455   4
  -4 -19   0 8067.05 866.844   1
  23  -4   0 6818.21 422.048   3
   4 -23   0 6504.93 827.429   1
  19   4   0 6637.99 571.931   3
 -19  23   0 6550.43 775.129   4
 -23  19   0 8963.33 901.604   4
 -19  23   0 6369.75 680.212   2
 -23  19   0 6570.63 732.572   2
  23  -4   3 10808.7 796.494   3
   4 -23   3 11902.2 1138.78   1
  19   4   3 11020.3 832.918   3
 -19  23   3 10373.1 753.174   3
 -19  23   3 9493.80 906.167   4
 -23  19   3 11540.9 1001.14   4
 -19  23   3 11958.0 1016.80   2
 -23  19   3 11893.2 1034.34   2
  23  -4   6 7508.07 938.822   3
   4 -23   6 9311.71 1177.63   1
  19   4   6 7037.95 877.844   3
 -19  23   6 6476.97 671.443   3
 -19  23   6 6782.21 877.859   4
 -19  23   6 9145.12 1064.67   2
 -23  19   6 7982.00 899.556   4
 -23  19   6 8772.53 1018.72   2
  -4 -19   6 9924.96 1235.16   1
 -23  20  -7 702.919 532.144   2
 -20  23  -7 1067.53 438.607   4
 -23  20  -7 1787.99 507.154   4
 -20  23  -4 2049.81 460.029   2
 -23  20  -4 2215.03 548.121   2
 -20  23  -4 2692.10 556.110   4
   3 -23  -4 3191.69 540.611   1
 -23  20  -4 3154.05 608.414   4
  -3 -20  -4 2532.97 456.748   1
 -20  23  -1 2727.71 496.879   2
 -23  20  -1 2827.77 536.347   2
  -3 -20  -1 3250.57 656.787   1
  23  -3  -1 1391.92 171.408   3
  20   3  -1 1596.85 349.226   3
 -20  23  -1 3549.77 619.408   4
 -23  20  -1 2719.75 597.252   4
   3 -23  -1 2823.83 629.540   1
  -3 -20   2 6543.06 901.962   1
   3 -23   2 6404.38 906.179   1
  23  -3   2 5683.25 544.767   3
  20   3   2 6274.72 631.125   3
 -20  23   2 6277.59 802.344   4
 -23  20   2 5172.30 764.361   4
 -20  23   2 5831.21 759.598   2
 -23  20   2 5121.62 750.538   2
  23  -3   5 1012.77 518.327   3
  20   3   5 910.104 481.641   3
  -3 -20   5 1566.42 686.314   1
 -20  23   5 358.909 346.737   3
   3 -23   5 228.959 694.640   1
 -20  23   5 1088.30 540.088   4
 -23  20   5 965.607 524.510   4
 -20  23   5 1779.41 628.321   2
 -23  20   5 1587.46 639.270   2
   2 -23  -5 3710.95 526.963   1
 -23  21  -5 2387.08 582.431   2
 -21  23  -5 2090.80 474.165   2
  -2 -21  -5 3340.18 480.348   1
 -21  23  -5 3175.92 594.768   4
 -23  21  -5 3032.83 624.943   4
 -21  23  -2 2409.79 477.135   2
 -23  21  -2 3179.56 531.222   2
  -2 -21  -2 3252.17 604.057   1
 -21  23  -2 3833.70 654.193   4
 -23  21  -2 3581.96 631.785   4
   2 -23  -2 3182.45 626.237   1
 -23  21   1 568.478 483.119   2
  23  -2   1 1140.56 318.502   3
  -2 -21   1 388.587 559.103   1
  21   2   1 403.091 314.276   3
   2 -23   1 1086.87 600.228   1
 -21  23   1 1670.32 536.016   4
 -23  21   1 216.269 468.115   4
 -21  23   1 888.698 515.413   2
  23  -2   4 430.861 412.617   3
  21   2   4 6.62424 400.395   3
  -2 -21   4-340.872 656.738   1
   2 -23   4 1019.13 650.095   1
 -21  23   4-754.737 352.284   3
 -21  23   4 136.433 484.657   4
 -23  21   4 411.472 486.471   4
 -21  23   4 333.780 531.915   2
 -23  21   4-188.829 517.074   2
  23  -2   7 341.857 560.452   3
  21   2   7-59.4566 585.065   3
  -2 -21   7 1330.29 854.321   1
   2 -23   7 302.884 680.224   1
 -21  23   7-387.110 512.557   4
 -23  21   7-14.1737 521.506   4
 -21  23   7 852.873 620.006   2
 -23  21   7 851.486 713.596   2
 -23  22  -6 1878.13 515.547   2
 -22  23  -6 1580.15 483.167   4
 -23  22  -6 2098.63 554.804   4
 -22  23  -3 9419.28 744.668   2
 -23  22  -3 9220.36 758.302   2
  -1 -22  -3 10821.5 837.753   1
   1 -23  -3 11128.7 842.773   1
 -22  23  -3 8406.47 868.970   4
 -23  22  -3 10133.1 924.155   4
 -22  23   0 2698.81 557.593   2
 -23  22   0 3129.09 587.240   2
  23  -1   0 3313.02 388.357   3
  22   1   0 3027.39 421.034   3
   1 -23   0 3222.68 683.964   1
 -22  23   0 4087.46 682.222   4
 -23  22   0 4409.62 698.707   4
  -1 -22   3 10166.4 1101.64   1
   1 -23   3 10743.3 1150.96   1
  23  -1   3 9297.84 750.481   3
  22   1   3 8713.62 746.346   3
 -22  23   3 8016.57 906.386   4
 -23  22   3 7667.50 883.805   4
 -22  23   3 9632.89 966.080   2
 -23  22   3 9242.58 984.177   2
  -1 -22   6 6033.47 1083.69   1
  23  -1   6 5701.20 841.741   3
  22   1   6 4514.45 781.142   3
   1 -23   6 4758.45 927.056   1
 -22  23   6 3695.14 745.718   4
 -23  22   6 3835.09 766.119   4
 -22  23   6 4518.70 865.395   2
 -23  22   6 3925.84 804.129   2
   0 -23  -4 1634.76 497.908   1
 -23  23  -4 1970.47 528.422   2
 -23  23  -1 637.619 476.931   2
  23   0  -1 399.665 237.721   3
   0 -23  -1 615.692 538.904   1
 -23  23  -1-236.115 479.419   4
   0 -23   2 6344.28 938.531   1
  23   0   2 5096.13 567.724   3
 -23  23   2 4710.23 726.206   4
 -23  23   2 5147.34 764.688   2
  23   0   5 363.742 494.626   3
   0 -23   5-397.534 661.586   1
 -23  23   5-810.867 512.108   4
 -23  23   5-350.656 577.349   2
 -24   0  -3 24.1097 535.519   4
 -24   0  -3 234.609 587.127   2
  24 -24  -3-704.256 556.604   1
  24 -24   0 9666.08 1044.93   1
 -24   0   0 10576.5 1053.27   2
   0  24   0 8413.21 888.353   3
 -24   0   0 9892.65 1037.03   4
  24 -24   3-361.540 589.489   1
 -24   0   3-184.889 530.935   2
   0  24   3 14.8896 442.822   3
 -24   0   3 347.630 528.709   4
 -24   1  -4 1152.25 617.353   4
 -23  -1  -4 1026.73 632.545   4
  23 -24  -4 895.525 563.816   1
 -24   1  -4 563.184 540.692   2
 -23  -1  -4 244.183 550.653   2
  24 -23  -1 1481.22 571.721   1
 -24   1  -1 1042.42 549.706   2
 -23  -1  -1 1441.88 600.698   2
   1  23  -1 1619.98 539.842   3
  -1  24  -1 2103.57 576.195   3
  23 -24  -1 1358.15 627.601   1
 -24   1  -1 2873.91 699.226   4
 -23  -1  -1 1159.65 618.437   4
  23 -24   2 1255.36 643.364   1
 -24   1   2 157.810 530.039   2
 -23  -1   2 951.390 581.662   2
  24 -23   2-75.8446 514.273   1
   1  23   2 349.997 465.985   3
  -1  24   2 615.134 473.940   3
 -24   1   2 448.363 493.524   4
 -23  -1   2 404.322 533.343   4
 -24   1   5 1193.30 610.624   2
 -23  -1   5 1289.67 624.769   2
   1  23   5 646.656 515.543   3
  -1  24   5 345.554 489.251   3
  23 -24   5 972.827 644.627   1
  24 -23   5 551.786 580.349   1
 -24   1   5 665.944 535.739   4
 -23  -1   5 480.676 543.767   4
 -24   2  -5 493.346 525.787   4
 -22  -2  -5 1288.21 622.390   4
 -24   2  -5 195.044 568.016   2
 -22  -2  -5-398.030 604.908   2
 -22  -2  -2 1142.08 602.885   4
  22 -24  -2 1264.34 561.999   1
  24 -22  -2 1068.87 539.894   1
 -24   2  -2 1795.30 604.881   2
 -22  -2  -2 491.020 593.396   2
   2  22  -2 1676.93 532.621   3
 -24   2  -2 2576.34 688.806   4
  22 -24   1 1717.68 631.603   1
 -24   2   1 1673.31 614.671   2
 -22  -2   1 1998.52 602.223   2
   2  22   1 1778.22 527.374   3
  -2  24   1 1977.20 564.801   3
  24 -22   1 2465.70 626.787   1
 -24   2   1 3940.78 741.419   4
 -22  -2   1 2854.14 683.571   4
  24 -22   4 853.892 586.783   1
 -24   2   4 1157.84 593.079   2
 -22  -2   4 536.956 526.352   2
  22 -24   4 384.945 542.135   1
   2  22   4 958.074 529.135   3
  -2  24   4 1024.34 503.209   3
 -24   2   4 1468.01 561.948   4
 -22  -2   4 985.305 574.736   4
 -24   3  -6 12634.4 1256.54   2
 -21  -3  -6 11274.3 1201.07   2
 -24   3  -6 12245.5 1171.05   4
 -21  -3  -6 13703.0 1256.60   4
 -21  -3  -3 1701.51 596.132   4
 -24   3  -3 1104.76 622.602   2
  21 -24  -3 956.767 510.569   1
 -21  -3  -3 1012.64 597.018   2
 -24   3  -3 1417.76 578.142   4
 -24   3   0 11898.0 1020.95   2
 -21  -3   0 12814.5 1069.80   2
  24 -21   0 12994.8 1094.72   1
   3  21   0 12489.1 974.820   3
  -3  24   0 11985.4 961.930   3
  21 -24   0 13712.6 1109.77   1
 -24   3   0 13319.0 1123.61   4
 -21  -3   0 12972.5 1096.05   4
 -24   3   3 1007.40 592.180   2
 -21  -3   3 182.765 513.150   2
  21 -24   3 642.826 566.307   1
  24 -21   3 919.010 586.844   1
   3  21   3 1006.52 509.972   3
  -3  24   3 1202.62 559.537   3
 -24   3   3 135.266 505.325   4
 -21  -3   3 1467.71 625.808   4
 -24   3   6 4580.44 804.281   2
  21 -24   6 6434.83 999.749   1
 -21  -3   6 4359.00 736.189   2
   3  21   6 5727.55 864.238   3
  -3  24   6 5269.25 775.596   3
  24 -21   6 6504.80 953.690   1
 -24   3   6 5636.48 837.536   4
 -21  -3   6 7133.74 851.816   4
 -20  -4  -4 1183.48 617.606   4
  20 -24  -4 1183.85 557.867   1
 -24   4  -4 2053.79 660.748   2
 -20  -4  -4 962.339 617.148   2
 -24   4  -4 956.829 596.469   4
 -20  -4  -1 2353.90 656.994   4
  24 -20  -1 2016.73 640.233   1
  20 -24  -1 2912.63 681.412   1
 -24   4  -1 1435.71 559.419   2
 -20  -4  -1 3151.35 670.512   2
   4  20  -1 2143.16 554.709   3
  -4  24  -1 1706.70 501.506   3
 -24   4  -1 1880.16 620.229   4
 -24   4   2 1956.54 619.936   2
 -20  -4   2 1991.76 590.338   2
  20 -24   2 1507.30 577.909   1
   4  20   2 1519.26 530.215   3
  -4  24   2 1544.69 521.625   3
  24 -20   2 961.117 546.979   1
 -24   4   2 2155.82 621.211   4
 -20  -4   2 1921.10 578.976   4
 -24   4   5 416.976 527.072   2
 -20  -4   5 829.722 484.789   2
  24 -20   5 8.69026 550.846   1
   4  20   5 1594.64 575.797   3
  -4  24   5 201.342 442.790   3
 -24   4   5 1864.95 601.801   4
  20 -24   5 863.526 605.831   1
 -20  -4   5 1794.01 586.689   4
 -19  -5  -5 1800.42 646.882   4
  19 -24  -5 1206.87 534.732   1
 -24   5  -5 628.246 615.298   2
 -19  -5  -5 1272.20 584.313   2
  -5  24  -5 1415.14 420.183   4
 -24   5  -5 1129.08 563.631   4
 -19  -5  -2 819.554 472.650   4
 -24   5  -2 1069.25 539.187   2
  19 -24  -2 1169.93 535.156   1
 -19  -5  -2 1615.86 564.574   2
   5  19  -2 1700.59 543.498   3
  -5  24  -2 1839.21 293.212   2
  24 -19  -2 1400.30 562.319   1
 -24   5  -2 1533.11 575.132   4
 -24   5   1 3758.68 685.837   2
  24 -19   1 3848.87 703.935   1
  19 -24   1 2665.77 654.582   1
 -19  -5   1 3795.66 681.971   2
   5  19   1 2747.53 548.146   3
  -5  24   1 2913.23 583.304   3
 -24   5   1 4301.75 716.525   4
 -19  -5   1 4331.85 738.360   4
 -24   5   4 2962.20 666.828   2
 -19  -5   4 3266.01 610.308   2
   5  19   4 3042.55 604.102   3
  -5  24   4 3077.54 605.767   3
  24 -19   4 4354.46 782.116   1
 -24   5   4 3305.24 666.665   4
  19 -24   4 2294.28 750.318   1
 -19  -5   4 4911.19 758.718   4
 -24   5   7 1163.28 633.808   2
  24 -19   7 3195.66 981.220   3
 -19  -5   7 3131.54 716.873   2
  24 -19   7 1714.41 670.694   1
   5  19   7 2219.56 657.216   3
  -5  24   7 2300.65 642.768   3
  19 -24   7 2455.78 823.553   1
 -19  -5   7 2122.67 837.040   1
 -24   5   7 3370.60 733.104   4
 -19  -5   7 2907.17 652.649   4
 -18  -6  -6 5280.45 846.235   4
 -24   6  -6 5605.98 897.835   2
 -18  -6  -6 3821.05 815.863   2
 -24   6  -6 5785.04 821.246   4
 -18  -6  -3 1570.11 575.704   4
 -24   6  -3 1480.42 586.885   2
 -18  -6  -3 1685.71 637.608   2
  18 -24  -3 1643.10 568.819   1
 -24   6  -3 1797.35 585.443   4
 -24   6   0 10267.9 949.465   2
 -18  -6   0 11662.8 980.268   2
  18 -24   0 11052.6 1012.53   1
   6  18   0 11306.9 874.735   3
  -6  24   0 10636.0 927.388   3
  24 -18   0 11677.6 1026.80   1
 -24   6   0 11559.6 1027.96   4
 -18  -6   0 11862.2 1032.59   4
 -18  -6   3 1226.15 475.846   4
 -24   6   3 1184.06 547.858   2
 -18  -6   3 1310.11 532.387   2
   6  18   3 1056.62 438.006   3
  -6  24   3 1169.49 504.039   3
  18 -24   3 730.986 597.807   1
  24 -18   3 993.628 562.689   1
 -24   6   3 2541.01 636.986   4
 -18  -6   6 6346.70 823.567   2
  24 -18   6 7294.73 1067.28   3
   6  18   6 6621.71 887.804   3
  -6  24   6 6728.24 815.542   3
 -18  -6   6 8874.83 1163.92   1
  24 -18   6 6619.63 859.935   1
 -24   6   6 8100.53 926.796   4
  18 -24   6 8228.06 1033.55   1
 -24   6   6 6792.78 911.417   2
 -18  -6   6 7616.70 806.438   4
 -24   7  -7 406.113 522.388   4
 -24   7  -7-60.6849 632.526   2
  17 -24  -4 2852.62 614.643   1
 -24   7  -4 3519.19 700.376   2
 -17  -7  -4 4125.40 799.689   2
  -7  24  -4 5158.73 625.167   4
 -24   7  -4 3984.51 748.870   4
 -17  -7  -4 5019.66 828.186   4
 -17  -7  -1 998.190 547.572   4
 -24   7  -1 909.350 543.480   2
  24 -17  -1 136.005 476.684   1
 -17  -7  -1 969.552 556.421   2
  17 -24  -1 361.515 504.232   1
   7  17  -1 808.644 421.991   3
  -7  24  -1 183.379 404.622   3
  -7  24  -1 1026.06 371.495   2
 -24   7  -1 793.326 535.467   4
 -17  -7   2-204.252 445.318   4
 -24   7   2-379.995 512.204   2
 -17  -7   2 903.744 520.112   2
  24 -17   2-124.785 493.137   1
   7  17   2 10.0586 426.117   3
  -7  24   2 416.825 438.978   3
  17 -24   2 836.807 569.054   1
 -24   7   2-216.094 478.279   4
 -17  -7   5 1545.80 517.472   4
 -24   7   5 1655.44 645.363   2
  24 -17   5 1562.32 670.425   3
 -17  -7   5 1911.14 553.756   2
   7  17   5 2021.73 605.014   3
  -7  24   5 1228.92 495.282   3
  17 -24   5 131.407 641.401   1
  24 -17   5 1394.02 595.724   1
 -17  -7   5 1166.61 708.831   1
 -24   7   5 1954.70 610.145   4
 -16  -8  -5 2089.44 637.242   4
 -24   8  -5 131.303 541.077   2
 -16  -8  -5 1645.46 623.093   2
  -8  24  -5 2538.83 473.715   4
 -16  -8  -5 1771.88 429.601   1
  16 -24  -5 1930.04 574.518   1
 -24   8  -5 1807.88 604.443   4
 -24   8  -2 8689.74 879.912   2
 -16  -8  -2 9247.25 951.717   2
  16 -24  -2 8872.93 871.021   1
   8  16  -2 7206.36 752.355   3
  -8  24  -2 7888.05 411.419   2
 -24   8  -2 8542.91 902.056   4
 -16  -8  -2 9014.55 956.259   4
  16 -24   1 5690.74 796.581   1
 -24   8   1 5456.78 787.057   2
  24 -16   1 5587.54 608.887   3
 -16  -8   1 5223.05 748.665   2
   8  16   1 5785.08 690.836   3
  -8  24   1 5008.87 674.359   3
 -24   8   1 6856.46 822.601   4
  24 -16   1 6072.49 793.196   1
 -16  -8   1 5888.11 769.088   4
  24 -16   4 7290.89 886.765   3
 -16  -8   4 5648.58 714.701   2
  24 -16   4 4933.29 762.497   1
   8  16   4 5059.78 719.100   3
  -8  24   4 5586.41 731.230   3
 -16  -8   4 6848.59 1003.80   1
 -24   8   4 5901.20 776.013   4
  16 -24   4 6066.28 895.494   1
 -24   8   4 5049.12 818.868   2
 -16  -8   4 6748.96 783.319   4
 -16  -8   7 1864.15 506.995   4
 -24   8   7 1689.00 668.025   2
  24 -16   7 3857.68 931.110   3
 -16  -8   7 1339.34 502.068   2
   8  16   7 1536.30 529.617   3
  16 -24   7 2034.81 774.600   1
  -8  24   7 1818.66 586.412   3
  24 -16   7 1302.03 611.688   1
 -24   8   7 1385.14 633.579   4
 -16  -8   7 1751.43 776.659   1
 -24   9  -6 7861.39 932.923   2
  -9  24  -6 7468.92 598.304   4
 -24   9  -6 8493.33 939.154   4
 -15  -9  -3 3291.67 702.737   4
 -24   9  -3 4664.69 703.374   2
 -15  -9  -3 5080.76 827.411   2
  15 -24  -3 4119.10 671.365   1
  -9  24  -3 5125.79 651.181   4
 -15  -9  -3 5039.46 657.190   1
 -24   9  -3 4860.93 751.276   4
 -24   9   0 4994.92 725.003   2
  15 -24   0 5315.11 780.059   1
  24 -15   0 5542.15 509.219   3
 -15  -9   0 5784.16 745.757   2
  24 -15   0 3399.15 333.050   3
   9  15   0 5464.51 639.643   3
  -9  24   0 5119.34 680.840   3
 -15  -9   0 6066.80 795.122   1
  -9  24   0 6684.21 633.497   2
  24 -15   0 4471.20 752.773   1
 -24   9   0 4919.52 740.080   4
 -15  -9   0 6466.88 818.155   4
 -15  -9   3-75.3385 435.237   4
 -24   9   3 84.2270 532.253   2
  24 -15   3 408.745 433.413   3
 -15  -9   3 668.284 475.156   2
   9  15   3 501.501 407.488   3
  15 -24   3 157.350 598.609   1
  -9  24   3 452.850 399.355   3
  24 -15   3 759.537 503.219   1
 -15  -9   3 833.766 638.021   1
 -24   9   3 169.558 451.556   4
 -15  -9   6 2982.70 571.604   4
 -24   9   6 2248.85 682.239   2
  24 -15   6 4852.78 905.933   3
 -15  -9   6 3196.80 582.654   2
  15 -24   6 2903.38 784.353   1
   9  15   6 3477.14 680.477   3
  -9  24   6 3516.49 650.242   3
 -24   9   6 2534.72 644.737   4
 -15  -9   6 4370.96 903.619   1
  24 -15   6 4236.20 741.086   1
 -24  10  -7 358.939 613.253   2
 -24  10  -7-72.3606 456.094   4
 -14 -10  -4 3519.77 727.448   4
 -24  10  -4 3058.62 686.356   2
  14 -24  -4 3514.88 607.426   1
 -14 -10  -4 3749.75 749.582   2
 -10  24  -4 3336.83 527.441   4
 -14 -10  -4 3520.21 527.250   1
 -24  10  -4 2730.67 647.196   4
  14 -24  -1 1044.03 536.747   1
 -14 -10  -1 128.142 439.924   4
  24 -14  -1 274.550 135.650   3
 -24  10  -1 590.786 514.194   2
  24 -14  -1 194.724 118.402   3
 -14 -10  -1 1004.34 538.948   2
  10  14  -1 831.909 432.870   3
 -10  24  -1 1024.40 329.187   2
 -10  24  -1 661.694 488.509   4
 -10  24  -1 250.396 298.791   2
 -14 -10  -1 435.298 489.084   1
 -24  10  -1 1006.37 516.598   4
  24 -14   2 4153.24 596.358   3
 -24  10   2 2897.59 682.440   2
 -14 -10   2 3130.55 595.262   2
  14 -24   2 2940.68 668.660   1
  10  14   2 3356.44 573.192   3
 -10  24   2 2588.22 554.410   3
 -10  24   2 4571.53 668.471   2
 -14 -10   2 3409.19 796.616   1
 -24  10   2 3082.33 627.944   4
  24 -14   2 4064.41 696.237   1
 -14 -10   2 4537.42 682.398   4
 -14 -10   5 1438.39 484.982   4
 -24  10   5-116.318 507.458   2
  24 -14   5 802.506 571.523   3
  14 -24   5 93.2408 656.876   1
 -14 -10   5 604.350 448.024   2
  24 -14   5 215.182 483.616   1
  10  14   5 628.004 498.052   3
 -10  24   5 474.128 447.030   3
 -24  10   5 713.472 542.457   4
 -14 -10   5 669.686 658.201   1
  13 -24  -5 2904.97 577.320   1
 -24  11  -5 2134.52 662.009   2
 -11  24  -5 3192.90 482.008   4
 -13 -11  -5 2941.20 458.578   1
 -24  11  -5 2107.17 577.745   4
 -13 -11  -2 6436.96 814.137   4
 -24  11  -2 7267.79 800.682   2
  13 -24  -2 6859.19 775.939   1
 -13 -11  -2 7447.30 877.549   2
 -11  24  -2 5748.70 391.788   2
  11  13  -2 7854.39 754.228   3
 -11  24  -2 7480.19 754.688   4
 -13 -11  -2 8057.23 775.916   1
 -11  24  -2 6259.35 397.949   2
 -24  11  -2 6519.13 812.751   4
 -13 -11   1 1944.10 552.488   4
 -24  11   1 1839.19 591.990   2
  24 -13   1 2286.06 442.928   3
 -13 -11   1 2349.82 556.876   2
  13 -24   1 2465.54 692.064   1
  11  13   1 1573.79 440.167   3
 -11  24   1 2087.18 561.480   3
  24 -13   1 1024.92 273.193   3
 -11  24   1 2010.87 523.696   2
 -24  11   1 1285.85 489.710   4
 -13 -11   1 2678.42 706.448   1
  24 -13   4 5545.81 733.035   3
 -13 -11   4 5106.49 624.839   2
  13 -24   4 5395.00 892.571   1
  11  13   4 4577.56 674.364   3
 -11  24   4 4941.13 696.074   3
 -11  24   4 6988.14 856.469   2
 -13 -11   4 5838.81 972.011   1
 -24  11   4 5999.75 791.506   4
  24 -13   4 5996.26 804.510   1
 -24  11   4 4992.15 776.234   2
 -13 -11   4 5221.31 672.207   4
 -13 -11   7 398.773 701.066   1
  24 -13   7 287.033 694.781   3
  13 -24   7-977.938 791.893   1
 -13 -11   7 256.288 398.405   2
  11  13   7-967.706 600.308   3
 -11  24   7 173.199 477.132   3
  24 -13   7 681.026 607.591   1
 -24  11   7 578.894 594.822   4
 -24  11   7 631.909 583.956   2
  12 -24  -6 1721.27 493.250   1
 -24  12  -6 1509.86 595.079   2
 -12  24  -6 1458.00 356.605   4
 -24  12  -6 1659.25 602.359   4
 -24  12  -3 2215.08 588.546   2
  12 -24  -3 2433.52 525.962   1
 -12 -12  -3 3746.58 716.750   2
 -12  24  -3 3545.59 560.849   4
 -24  12  -3 3014.19 619.009   4
 -12 -12  -3 2887.80 540.266   1
 -12 -12   0 2903.50 586.848   4
  24 -12   0 2026.47 279.577   3
 -24  12   0 2527.01 594.136   2
  24 -12   0 1763.50 219.291   3
  12 -24   0 3043.63 649.029   1
  12  12   0 2745.82 501.220   3
 -12 -12   0 2474.87 587.252   2
 -12  24   0 2521.34 553.536   3
 -12  24   0 3148.84 599.378   4
 -12  24   0 2647.82 515.039   2
 -24  12   0 3374.55 625.426   4
 -12 -12   0 3738.11 695.025   1
 -12 -12   3 2823.09 573.731   4
  24 -12   3 2451.88 635.906   1
 -24  12   3 1698.86 565.694   2
  24 -12   3 3639.74 632.584   3
  12 -24   3 2739.50 711.622   1
 -12 -12   3 3344.81 561.982   2
  12  12   3 3394.31 577.411   3
 -12  24   3 2573.57 566.639   3
 -12  24   3 2310.92 618.339   2
 -24  12   3 2432.30 646.446   4
 -12 -12   3 3672.12 823.742   1
 -12 -12   6 2081.52 744.018   1
  12 -24   6 2113.91 784.586   1
  24 -12   6 3331.79 773.361   3
  24 -12   6 2173.99 606.786   1
 -12 -12   6 1156.02 432.885   2
  12  12   6 3441.75 685.859   3
 -12  24   6 2508.94 576.827   3
 -12  24   6 442.494 632.530   4
 -12  24   6 3790.72 838.910   2
 -24  12   6 1024.91 570.677   4
 -24  12   6 2623.22 689.751   2
 -24  13  -7 1459.22 672.280   2
 -24  13  -7 251.442 463.237   4
 -24  13  -4 5277.11 766.766   2
  11 -24  -4 4319.57 604.080   1
 -13  24  -4 5206.85 607.161   4
 -11 -13  -4 5376.95 574.470   1
 -24  13  -4 5197.58 746.004   4
 -24  13  -1 1617.90 519.959   2
  13  11  -1 1396.27 399.922   3
 -11 -13  -1 1587.40 523.002   2
  11 -24  -1 1213.75 576.170   1
 -13  24  -1 1888.17 520.341   4
 -24  13  -1 1873.59 589.974   4
 -13  24  -1 2014.90 398.454   2
 -11 -13  -1 2820.82 630.346   1
 -11 -13   2 6398.56 754.589   4
  24 -11   2 7744.12 657.042   3
 -11 -13   2 6113.57 669.175   2
  13  11   2 5727.19 658.469   3
 -13  24   2 5755.29 661.073   3
 -13  24   2 6608.42 722.019   2
 -13  24   2 7607.25 849.441   4
  11 -24   2 6742.41 910.042   1
 -11 -13   2 7445.91 916.912   1
 -24  13   2 6171.33 776.064   4
 -24  13   2 5363.08 757.026   2
 -11 -13   5 984.371 731.381   1
  11 -24   5 2171.42 736.260   1
  24 -11   5 3078.76 639.464   3
 -11 -13   5 2057.79 503.186   2
  13  11   5 2540.77 574.233   3
  24 -11   5 2480.68 637.174   1
 -13  24   5 1193.09 516.984   3
 -13  24   5 2908.08 730.365   4
 -13  24   5 2184.16 667.607   2
 -24  13   5 2916.97 647.745   4
 -24  13   5 3088.42 683.860   2
 -10 -14  -5 285.126 276.601   1
  10 -24  -5 416.193 416.449   1
 -24  14  -5 277.551 496.989   2
 -14  24  -5 1150.72 378.260   4
 -24  14  -5 248.284 474.092   4
 -24  14  -2 2501.69 595.622   2
  14  10  -2 3881.17 558.679   3
 -10 -14  -2 3636.40 659.353   2
 -14  24  -2 3839.68 590.375   4
  10 -24  -2 3559.41 649.061   1
 -10 -14  -2 4754.73 656.432   1
 -24  14  -2 2817.19 612.592   4
 -14  24  -2 2859.70 357.972   2
 -10 -14   1-699.526 559.347   1
 -24  14   1 138.837 488.590   2
  10 -24   1-38.7102 577.991   1
  24 -10   1 210.752 268.579   3
  14  10   1 485.905 385.291   3
 -10 -14   1 544.115 463.730   2
 -14  24   1 225.949 412.092   3
 -14  24   1-207.441 461.681   4
 -14  24   1-552.846 443.358   2
 -24  14   1 59.2920 455.775   4
  10 -24   4 2633.05 747.095   1
 -24  14   4 3602.06 733.469   2
 -10 -14   4 3124.87 836.824   1
  24 -10   4 3271.92 628.924   3
  14  10   4 3946.75 662.615   3
 -10 -14   4 2455.02 459.080   2
 -14  24   4 2870.55 560.235   3
 -14  24   4 3332.20 659.069   4
 -14  24   4 3552.81 673.060   2
 -24  14   4 3507.73 700.089   4
 -10 -14   7 229.912 734.011   1
  24 -10   7-308.266 679.118   3
  14  10   7-461.963 528.609   3
 -14  24   7 206.804 421.413   3
 -14  24   7-230.429 587.701   4
 -14  24   7-794.749 672.021   2
 -24  14   7 39.4368 504.286   4
 -24  14   7 263.809 600.488   2
  10 -24   7 576.020 644.310   1
   9 -24  -6 2458.65 464.734   1
 -24  15  -6 2081.15 661.623   2
 -15  24  -6 2217.59 423.426   4
 -24  15  -6 3237.17 638.747   4
 -15  24  -3 205.332 228.428   2
  -9 -15  -3 977.200 461.471   1
 -24  15  -3 80.9453 458.527   2
 -15  24  -3-607.303 422.782   4
 -24  15  -3-369.974 492.871   4
   9 -24  -3 768.651 432.903   1
   9 -24   0 4462.77 730.862   1
  24  -9   0 4012.82 285.372   3
  15   9   0 5654.76 602.040   3
  -9 -15   0 5398.52 712.280   2
 -15  24   0 5695.01 707.556   4
 -15  24   0 7969.19 701.757   2
 -24  15   0 5175.10 757.529   4
  -9 -15   0 6813.69 839.463   1
 -24  15   0 4412.90 693.089   2
  24  -9   3 4572.79 593.593   3
  15   9   3 4918.07 633.330   3
  -9 -15   3 3797.22 534.360   2
 -15  24   3 4235.07 645.520   3
 -15  24   3 4296.52 707.582   4
 -15  24   3 4880.21 707.253   2
 -24  15   3 4558.09 736.896   4
  -9 -15   3 5736.52 890.532   1
 -24  15   3 4576.74 765.194   2
   9 -24   3 4972.29 843.668   1
  24  -9   6 9344.63 1012.72   3
  -9 -15   6 6770.88 583.475   2
  15   9   6 10078.1 1022.46   3
   9 -24   6 10679.0 1204.96   1
 -15  24   6 8213.57 829.201   3
 -15  24   6 10330.0 1093.37   4
 -15  24   6 11041.4 1169.71   2
 -24  15   6 7726.94 908.222   4
 -24  15   6 10050.5 1040.46   2
  -9 -15   6 12999.7 1382.85   1
 -24  16  -7 1616.19 634.390   2
 -24  16  -7 723.236 469.470   4
  -8 -16  -4 5842.27 592.679   1
 -24  16  -4 5123.41 754.261   2
   8 -24  -4 5132.95 635.963   1
 -16  24  -4 4764.33 589.036   4
 -24  16  -4 5565.20 737.219   4
 -24  16  -1 5175.73 701.045   2
  16   8  -1 5889.69 587.401   3
 -16  24  -1 6458.06 727.226   4
   8 -24  -1 5787.40 768.894   1
 -24  16  -1 6539.21 785.510   4
 -16  24  -1 6188.57 590.578   2
  -8 -16  -1 6135.88 751.812   1
  24  -8   2 8581.29 645.813   3
  16   8   2 8450.45 737.193   3
  -8 -16   2 7410.37 685.773   2
   8 -24   2 8826.65 991.916   1
 -16  24   2 7803.57 760.682   3
 -16  24   2 8313.19 861.901   4
 -16  24   2 9601.13 857.354   2
 -24  16   2 9013.59 927.286   4
  -8 -16   2 10365.2 1047.43   1
 -24  16   2 7999.99 879.750   2
  -8 -16   5 3293.84 907.061   1
  24  -8   5 2604.59 599.987   3
  16   8   5 1924.65 522.863   3
  -8 -16   5 1509.32 399.019   2
 -16  24   5 2495.72 524.647   3
 -16  24   5 1521.88 561.769   4
 -16  24   5 1550.74 573.688   2
 -24  16   5 1698.33 592.390   4
   8 -24   5 2491.41 778.370   1
 -24  16   5 2572.12 687.964   2
 -24  17  -5 1449.63 537.111   2
   7 -24  -5 1243.97 457.001   1
  -7 -17  -5 2187.73 365.901   1
 -17  24  -5 1394.05 399.514   4
 -24  17  -5 2069.18 572.198   4
 -17  24  -2 651.584 305.718   2
 -24  17  -2-209.485 415.218   2
  -7 -17  -2 717.366 459.066   1
   7 -24  -2 500.253 490.571   1
  17   7  -2-109.639 329.271   3
 -17  24  -2 343.449 414.131   4
 -24  17  -2 315.661 465.074   4
 -24  17   1 331.924 479.005   2
  -7 -17   1 580.545 566.387   1
  24  -7   1 597.963 268.225   3
  17   7   1 705.972 374.248   3
  -7 -17   1 392.611 398.903   2
 -17  24   1 630.408 471.895   4
 -24  17   1 1329.00 596.581   4
 -17  24   1-11.0750 437.834   2
   7 -24   1 253.149 568.045   1
  24  -7   4 4583.13 667.049   3
  -7 -17   4 4314.76 875.381   1
  17   7   4 4065.65 648.446   3
  -7 -17   4 2331.41 420.683   2
 -17  24   4 2296.21 544.763   3
 -17  24   4 3562.32 733.341   4
 -24  17   4 3872.98 715.807   4
 -17  24   4 3340.89 722.183   2
   7 -24   4 3990.16 812.093   1
 -24  17   4 4186.67 813.114   2
  -7 -17   7 657.583 708.488   1
  24  -7   7 1018.61 620.566   3
  17   7   7 1978.62 653.771   3
 -17  24   7 433.381 426.832   3
 -17  24   7 448.819 559.417   4
 -17  24   7 217.511 602.706   2
 -24  17   7 637.068 538.171   4
   7 -24   7 195.897 671.726   1
 -24  17   7-77.5739 585.967   2
 -24  18  -6 7322.26 886.980   2
 -18  24  -6 7068.41 680.943   4
 -24  18  -6 7149.38 791.557   4
 -18  24  -3 982.064 365.573   2
 -24  18  -3 1154.76 479.191   2
  -6 -18  -3 1757.13 481.345   1
   6 -24  -3 1650.42 520.317   1
 -18  24  -3 1775.07 473.916   4
 -24  18  -3 1534.61 565.347   4
  24  -6   0 11717.7 475.883   3
  18   6   0 11774.1 755.857   3
   6 -24   0 15122.4 1136.31   1
 -18  24   0 14096.3 1033.77   4
 -24  18   0 12324.4 1013.50   4
 -18  24   0 13898.1 904.870   2
 -24  18   0 11745.7 940.939   2
  -6 -18   0 14141.5 1080.73   1
  -6 -18   3 1690.01 686.271   1
  24  -6   3 1911.89 457.413   3
  18   6   3 1444.70 471.914   3
 -18  24   3 1983.49 476.606   3
  -6 -18   3 1600.64 451.054   2
 -18  24   3 2483.30 613.876   4
 -24  18   3 589.318 523.274   4
   6 -24   3 2013.64 726.015   1
 -18  24   3 1633.22 552.905   2
 -24  18   3 2087.55 605.985   2
  24  -6   6 5506.91 841.803   3
  -6 -18   6 5892.70 1062.12   1
  18   6   6 6015.41 817.846   3
 -18  24   6 5303.35 650.217   3
 -18  24   6 6055.62 875.710   4
 -18  24   6 6672.94 917.229   2
   6 -24   6 6003.61 975.345   1
 -24  18   6 4353.79 748.344   4
 -24  18   6 5980.94 869.650   2
 -24  19  -7 1747.20 599.555   2
 -24  19  -7 2972.94 648.580   4
 -19  24  -7 1190.14 453.991   4
 -19  24  -4 2321.59 452.495   2
 -24  19  -4 2557.56 589.699   2
  -5 -19  -4 2634.77 450.607   1
   5 -24  -4 2935.33 516.241   1
 -19  24  -4 2262.87 526.456   4
 -24  19  -4 3766.53 645.279   4
  -5 -19  -1 4355.37 702.701   1
   5 -24  -1 3473.80 669.556   1
 -24  19  -1 2997.58 582.455   2
  19   5  -1 3455.73 468.315   3
 -19  24  -1 3004.74 579.830   4
 -24  19  -1 4120.47 700.196   4
 -19  24  -1 3142.58 519.509   2
 -24  19   2 1487.00 563.866   2
  -5 -19   2 1241.89 629.836   1
  24  -5   2 664.605 330.692   3
  19   5   2 1300.02 434.078   3
 -19  24   2 1391.00 514.324   4
 -24  19   2 484.371 457.246   4
   5 -24   2 2331.87 693.417   1
 -19  24   2 1151.44 520.836   2
  24  -5   5 1612.74 572.703   3
  -5 -19   5 891.524 676.727   1
  19   5   5 1959.47 547.342   3
 -19  24   5 1030.75 463.408   3
 -19  24   5 509.147 510.747   4
   5 -24   5 2584.30 786.229   1
 -24  19   5 1134.07 544.880   4
 -19  24   5 2749.46 717.526   2
 -24  19   5 879.582 586.900   2
   4 -24  -5 328.204 373.965   1
 -24  20  -5 975.098 504.144   2
 -20  24  -5-182.557 434.453   4
 -24  20  -5 617.258 455.424   4
   4 -24  -2 1733.39 539.032   1
 -20  24  -2 887.652 331.879   2
 -24  20  -2 748.285 411.182   2
  -4 -20  -2 1260.84 484.989   1
  20   4  -2 401.537 285.914   3
 -20  24  -2 1745.17 537.882   4
 -24  20  -2 1400.55 526.694   4
 -24  20   1 2441.89 588.188   2
  24  -4   1 2374.29 361.640   3
  -4 -20   1 2057.14 665.315   1
  20   4   1 1899.27 433.007   3
 -20  24   1 1956.73 557.797   4
 -24  20   1 1762.98 530.140   4
   4 -24   1 1493.76 638.195   1
 -20  24   1 2835.24 602.235   2
  24  -4   4 635.687 410.407   3
  -4 -20   4 486.955 627.083   1
  20   4   4 1135.56 487.001   3
 -20  24   4 1036.65 410.138   3
   4 -24   4 584.623 687.479   1
 -20  24   4 1013.69 545.412   4
 -24  20   4 1060.43 559.757   4
 -20  24   4 2273.62 633.108   2
 -24  20   4 1120.53 589.216   2
 -24  21  -6 3961.60 710.001   2
 -24  21  -6 5435.04 732.666   4
 -21  24  -6 3894.84 587.110   4
 -21  24  -3 345.355 387.324   2
   3 -24  -3 969.823 474.622   1
 -24  21  -3 680.402 467.385   2
  -3 -21  -3 310.915 436.560   1
 -21  24  -3 739.445 451.762   4
 -24  21  -3 896.995 477.163   4
  -3 -21   0 14304.2 1110.43   1
   3 -24   0 13972.9 1104.64   1
  24  -3   0 12566.3 559.566   3
  21   3   0 11825.6 718.048   3
 -21  24   0 12955.3 1054.64   4
 -24  21   0 12615.3 1073.41   4
 -21  24   0 12063.2 905.645   2
 -24  21   0 11562.6 921.757   2
  24  -3   3 1486.40 442.579   3
  -3 -21   3 1834.60 719.949   1
  21   3   3 1232.35 453.963   3
   3 -24   3 949.894 700.152   1
 -21  24   3 1418.17 528.438   4
 -24  21   3 2374.45 642.341   4
 -21  24   3 795.759 532.639   2
 -24  21   3 302.971 538.493   2
  -3 -21   6 13871.8 1443.40   1
  24  -3   6 15760.6 1239.74   3
   3 -24   6 14745.7 1439.06   1
  21   3   6 13997.9 1151.83   3
 -21  24   6 8859.10 697.609   3
 -21  24   6 12083.6 1126.78   4
 -24  21   6 12538.2 1121.00   4
 -21  24   6 12904.7 1201.11   2
 -24  21   6 11569.5 1155.51   2
  -2 -22  -4 852.893 422.245   1
 -22  24  -4 1223.14 450.780   2
 -24  22  -4 870.414 475.934   2
   2 -24  -4 1094.50 458.524   1
 -22  24  -4 1175.48 493.942   4
 -24  22  -4 1079.83 522.125   4
 -22  24  -1 1817.67 491.289   2
 -24  22  -1 2563.56 527.869   2
  22   2  -1 2436.33 374.645   3
  24  -2  -1 1352.24 194.786   3
  -2 -22  -1 3357.82 672.424   1
 -22  24  -1 2300.52 589.677   4
 -24  22  -1 2994.15 643.846   4
   2 -24  -1 1840.18 581.064   1
  24  -2   2 1468.81 387.625   3
  22   2   2 1189.84 408.228   3
  -2 -22   2 2257.41 706.181   1
   2 -24   2 2003.72 723.682   1
 -22  24   2 2198.89 645.583   4
 -24  22   2-290.842 473.240   4
 -22  24   2 1817.32 594.707   2
 -24  22   2 1484.92 588.576   2
  24  -2   5 1630.53 579.284   3
  22   2   5 366.353 476.815   3
  -2 -22   5 280.896 647.181   1
   2 -24   5 1399.91 815.336   1
 -22  24   5-40.6971 346.631   3
 -22  24   5 1173.06 549.128   4
 -24  22   5 1322.01 601.481   4
 -22  24   5 18.2879 557.437   2
 -24  22   5 662.140 577.109   2
 -24  23  -5 1610.22 546.466   2
 -23  24  -5 847.526 483.934   2
 -23  24  -5 1334.37 527.319   4
 -24  23  -5 1293.53 505.905   4
 -23  24  -2-279.848 417.747   2
 -24  23  -2-12.9711 411.471   2
  -1 -23  -2 1140.92 510.954   1
 -23  24  -2 93.9362 444.407   4
 -24  23  -2 6.48191 471.961   4
   1 -24  -2 786.181 529.216   1
 -23  24   1 2064.98 587.825   2
 -24  23   1 2235.82 649.251   2
  24  -1   1 1638.00 373.548   3
  23   1   1 2466.59 429.483   3
  -1 -23   1 2280.94 676.303   1
   1 -24   1 1493.39 629.623   1
 -23  24   1 3534.61 687.403   4
 -24  23   1 803.174 503.750   4
  24  -1   4-343.050 423.424   3
  23   1   4 574.434 463.184   3
  -1 -23   4 544.721 699.353   1
   1 -24   4 694.360 678.412   1
 -23  24   4 1002.06 559.620   4
 -24  23   4 221.552 525.074   4
 -23  24   4-988.572 653.452   2
 -24  23   4 23.2802 545.845   2
   0 -24  -3 472.967 482.178   1
 -24  24  -3 900.582 445.576   2
 -24  24  -3 674.323 528.273   4
   0 -24   0 13993.8 1169.03   1
 -24  24   0 13172.7 1110.25   4
 -24  24   0 11487.1 939.346   2
  24   0   3 38.1647 384.295   3
   0 -24   3 571.198 718.097   1
 -24  24   3 889.488 545.168   4
 -24  24   3-2.47351 514.682   2
 -25   0  -4 4544.26 865.377   4
 -25   0  -4 1314.04 686.823   2
  25 -25  -1-407.665 567.042   1
 -25   0  -1-309.081 638.823   2
   0  25  -1-177.261 467.573   3
 -25   0  -1-391.719 529.191   4
 -25   0   2 2751.79 717.584   2
  25 -25   2 4122.76 800.197   1
   0  25   2 2504.86 649.877   3
 -25   0   2 4284.81 771.731   4
 -25   1  -5 3083.67 762.480   4
 -24  -1  -5 3818.05 821.931   4
 -25   1  -5 2833.18 748.316   2
 -24  -1  -5 2310.45 768.631   2
 -24  -1  -2 3805.81 794.189   4
  25 -24  -2 2959.38 739.417   1
 -25   1  -2 2129.41 675.469   2
 -24  -1  -2 2954.99 730.070   2
  24 -25  -2 1872.97 668.637   1
   1  24  -2 2090.58 623.867   3
 -25   1  -2 2191.09 639.085   4
 -25   1   1 974.987 641.551   2
 -24  -1   1 1490.21 582.386   2
  24 -25   1 1591.70 637.912   1
   1  24   1 1649.75 561.043   3
  -1  25   1 2063.00 605.516   3
  25 -24   1 1820.08 673.524   1
 -25   1   1 2894.94 736.003   4
 -24  -1   1 1567.52 627.303   4
  25 -24   4 435.589 598.081   1
 -25   1   4-272.736 549.743   2
 -24  -1   4-462.521 531.937   2
   1  24   4 115.687 480.901   3
  -1  25   4-73.1423 483.128   3
  24 -25   4-58.7760 590.635   1
 -25   1   4 39.8605 525.932   4
 -24  -1   4-950.403 594.894   4
  25 -23  -3 8222.15 976.401   1
 -25   2  -3 8858.86 1028.68   2
 -23  -2  -3 8183.01 998.850   2
  23 -25  -3 9546.56 1011.82   1
 -25   2  -3 11048.0 1155.17   4
 -23  -2  -3 10370.2 1082.38   4
  25 -23   0 4750.23 801.805   1
 -25   2   0 2312.66 626.245   2
 -23  -2   0 3775.38 784.264   2
  23 -25   0 4427.59 771.330   1
  -2  25   0 4938.38 757.858   3
   2  23   0 2241.30 608.709   3
 -25   2   0 3967.99 787.111   4
 -23  -2   0 3664.16 743.124   4
 -25   2   3 7788.17 936.703   2
 -23  -2   3 8409.54 933.266   2
  23 -25   3 7649.09 961.040   1
   2  23   3 9325.03 921.801   3
  -2  25   3 7588.21 901.712   3
  25 -23   3 10339.5 1066.98   1
 -25   2   3 9137.13 1003.10   4
 -23  -2   3 9006.80 966.234   4
 -22  -3  -4 1128.16 630.955   4
 -25   3  -4 4.37770 559.848   2
 -22  -3  -4 852.766 673.780   2
  22 -25  -4 1780.78 637.192   1
 -25   3  -4 1629.67 651.691   4
 -22  -3  -1 196.261 484.498   4
 -25   3  -1-312.974 542.053   2
 -22  -3  -1 583.045 534.479   2
  22 -25  -1 668.806 563.233   1
   3  22  -1 262.475 443.016   3
  -3  25  -1 214.005 473.806   3
 -25   3  -1 1065.68 636.307   4
  25 -22  -1 1179.75 628.373   1
 -25   3   2 687.061 538.473   2
 -22  -3   2 2160.14 658.481   2
   3  22   2 1964.10 569.652   3
  -3  25   2 1601.87 578.355   3
  22 -25   2 2157.16 699.318   1
  25 -22   2 1632.08 663.409   1
 -25   3   2 1296.72 600.931   4
 -22  -3   2 916.307 565.553   4
 -25   3   5 707.539 617.337   2
 -22  -3   5 979.833 606.510   2
  22 -25   5 1683.16 667.883   1
  25 -22   5 1434.93 649.545   1
   3  22   5 1114.49 552.279   3
  -3  25   5 567.297 471.810   3
 -25   3   5-21.3381 556.467   4
 -22  -3   5 1683.34 677.000   4
 -21  -4  -5 2039.60 737.623   4
 -25   4  -5 1665.35 605.163   2
 -21  -4  -5 1999.51 700.115   2
  -4  25  -5 1201.20 429.101   4
 -25   4  -5 1060.21 626.705   4
 -21  -4  -2 3124.76 677.014   4
 -25   4  -2 3087.06 685.172   2
 -21  -4  -2 3333.14 766.439   2
  25 -21  -2 4221.59 770.950   1
   4  21  -2 2188.11 571.526   3
  -4  25  -2 3049.44 380.565   2
  21 -25  -2 2754.00 652.122   1
 -25   4  -2 3495.49 762.617   4
  25 -21   1 2918.69 720.832   1
 -25   4   1 1262.41 560.887   2
 -21  -4   1 2134.72 632.892   2
   4  21   1 1722.90 574.782   3
  -4  25   1 2311.35 566.327   3
  21 -25   1 2406.70 680.012   1
 -25   4   1 1914.35 644.058   4
 -21  -4   1 3298.98 691.484   4
 -25   4   4 2079.29 634.999   2
  21 -25   4 2097.32 678.238   1
 -21  -4   4 1709.79 594.031   2
  25 -21   4 2373.06 650.657   1
   4  21   4 2643.82 635.675   3
  -4  25   4 2591.47 604.709   3
 -25   4   4 2554.60 675.165   4
 -21  -4   4 2919.33 666.766   4
 -25   5  -6 1951.69 667.788   4
 -20  -5  -6 702.808 599.002   4
 -25   5  -6 1378.43 649.182   2
 -20  -5  -6 898.473 662.963   2
  20 -25  -3 11742.7 1012.27   1
 -25   5  -3 10302.6 1047.12   2
 -20  -5  -3 10917.2 1048.97   2
 -25   5  -3 11658.2 1099.46   4
 -20  -5  -3 12126.0 1126.54   4
 -20  -5   0 4254.78 741.057   4
 -20  -5   0 4390.57 756.484   2
 -25   5   0 4496.71 725.081   2
   5  20   0 3816.98 631.292   3
  -5  25   0 3265.84 613.259   3
  25 -20   0 4213.91 789.302   1
  20 -25   0 4220.66 740.101   1
 -25   5   0 4116.21 725.296   4
 -25   5   3 7773.27 931.854   2
  25 -20   3 7643.89 947.761   1
 -20  -5   3 9365.40 919.281   2
  20 -25   3 8404.34 981.156   1
   5  20   3 9292.22 903.709   3
  -5  25   3 7632.30 839.561   3
 -25   5   3 8426.68 958.067   4
 -20  -5   3 10009.4 986.364   4
 -25   5   6 1377.61 652.722   2
  25 -20   6 3425.92 906.117   3
 -20  -5   6 3284.70 691.804   2
  25 -20   6 3530.94 795.448   1
   5  20   6 1917.44 605.960   3
  -5  25   6 2141.26 605.174   3
 -20  -5   6 4045.21 914.481   1
  20 -25   6 3023.35 819.805   1
 -25   5   6 2888.57 706.344   4
 -20  -5   6 3803.78 725.232   4
 -19  -6  -4 1067.80 589.374   4
 -25   6  -4 1246.04 596.455   2
  19 -25  -4 1245.45 528.135   1
 -19  -6  -4 1344.34 648.755   2
  -6  25  -4 2048.51 540.513   4
 -25   6  -4 1912.16 659.785   4
  19 -25  -1 2275.43 632.798   1
 -19  -6  -1 2621.03 658.611   4
 -25   6  -1 1939.97 617.314   2
  25 -19  -1 1251.42 592.273   1
 -19  -6  -1 2383.38 618.613   2
   6  19  -1 1881.72 511.966   3
  -6  25  -1 1016.94 473.862   3
  -6  25  -1 2174.33 434.426   2
 -25   6  -1 1235.14 560.369   4
 -19  -6   2 742.398 479.409   4
  19 -25   2 669.843 580.063   1
 -25   6   2 738.639 543.895   2
  25 -19   2-722.903 548.497   1
 -19  -6   2 1242.86 572.122   2
   6  19   2 125.421 471.115   3
  -6  25   2-120.371 433.443   3
 -25   6   2 258.247 492.141   4
 -19  -6   5 2705.00 625.731   4
  25 -19   5 2606.08 759.469   3
 -25   6   5 2755.95 718.261   2
 -19  -6   5 908.143 520.541   2
   6  19   5 1422.65 611.076   3
  -6  25   5 1295.72 553.240   3
  25 -19   5 2371.16 660.513   1
 -19  -6   5 2357.81 817.487   1
  19 -25   5 2366.36 738.976   1
 -25   6   5 2403.90 666.130   4
 -18  -7  -5 3403.84 763.541   4
  18 -25  -5 2812.50 646.179   1
 -25   7  -5 3561.59 755.124   2
 -18  -7  -5 2278.87 690.222   2
  -7  25  -5 2586.57 487.079   4
 -25   7  -5 2512.64 631.038   4
 -18  -7  -2 3729.15 747.623   4
  18 -25  -2 3869.00 704.696   1
 -25   7  -2 2539.84 636.686   2
 -18  -7  -2 3178.36 683.879   2
   7  18  -2 3313.25 622.078   3
  -7  25  -2 2934.98 295.502   2
 -25   7  -2 4519.79 734.644   4
 -25   7   1 7317.30 876.462   2
  18 -25   1 8976.11 972.439   1
 -18  -7   1 8856.37 882.454   2
   7  18   1 8107.25 786.029   3
  -7  25   1 6357.60 762.758   3
  25 -18   1 7751.98 896.273   1
 -25   7   1 9046.59 950.450   4
 -18  -7   1 7132.13 828.018   4
  25 -18   4 5808.18 894.901   3
  25 -18   4 4889.17 784.229   1
 -18  -7   4 4168.14 673.281   2
   7  18   4 4049.42 704.416   3
  -7  25   4 4762.25 725.849   3
 -18  -7   4 7074.82 1085.85   1
  18 -25   4 4879.40 859.105   1
 -25   7   4 4741.79 797.854   4
 -18  -7   4 4930.75 709.958   4
 -25   7   4 5079.67 860.700   2
 -17  -8  -6 1872.84 592.918   4
 -25   8  -6 1335.74 690.691   2
 -25   8  -6 2067.73 619.206   4
 -25   8  -3 16101.4 1196.79   2
 -17  -8  -3 17186.7 1260.96   2
  -8  25  -3 18380.5 1120.10   4
  17 -25  -3 15212.6 1106.16   1
 -25   8  -3 15445.7 1188.09   4
 -17  -8  -3 17058.2 1284.51   4
 -17  -8   0 2151.75 590.652   4
  25 -17   0 856.289 357.612   3
  17 -25   0 1515.95 630.988   1
 -25   8   0 1891.38 618.329   2
 -17  -8   0 288.897 484.391   2
  25 -17   0 1050.57 563.621   1
   8  17   0 1188.87 489.092   3
  -8  25   0 1602.45 530.381   3
  -8  25   0 2476.04 511.366   2
 -25   8   0 2120.53 593.412   4
  25 -17   3 6451.55 790.988   3
 -17  -8   3 5878.77 737.250   2
   8  17   3 6077.75 706.725   3
  25 -17   3 8117.21 936.643   1
  -8  25   3 5841.18 746.921   3
 -17  -8   3 9186.47 1118.95   1
 -25   8   3 6877.51 867.945   4
  17 -25   3 6843.88 962.191   1
 -17  -8   3 8465.74 894.825   4
 -25   8   3 6441.42 842.224   2
 -17  -8   6 3207.34 639.145   4
 -25   8   6 2214.30 680.425   2
  25 -17   6 2601.73 770.299   3
 -17  -8   6 2052.10 568.206   2
   8  17   6 3473.42 710.918   3
  -8  25   6 2153.14 590.634   3
  17 -25   6 3194.43 885.809   1
  25 -17   6 2466.36 684.917   1
 -25   8   6 3724.65 733.323   4
 -17  -8   6 3964.11 1006.61   1
 -25   9  -7 776.067 663.533   2
 -25   9  -7 1085.83 566.221   4
 -16  -9  -4-249.138 576.024   4
 -25   9  -4 1624.17 618.322   2
 -16  -9  -4 1108.39 580.295   2
  -9  25  -4 1128.58 440.614   4
  16 -25  -4 628.636 448.313   1
 -16  -9  -4 57.3385 393.163   1
 -25   9  -4 242.288 508.896   4
 -16  -9  -1 4058.54 717.593   4
  25 -16  -1 1774.45 253.567   3
 -25   9  -1 3575.25 660.221   2
  16 -25  -1 3400.53 659.631   1
 -16  -9  -1 3359.61 703.429   2
   9  16  -1 2773.61 561.879   3
  -9  25  -1 4934.55 507.919   2
 -16  -9  -1 3670.42 664.216   1
 -25   9  -1 3095.12 691.739   4
 -16  -9   2 1142.28 561.752   4
  25 -16   2 588.169 457.120   3
 -25   9   2 1302.10 543.920   2
  25 -16   2 145.568 481.988   1
 -16  -9   2 1053.43 510.172   2
   9  16   2 152.084 466.752   3
  -9  25   2 1070.21 473.182   3
  16 -25   2 917.260 619.592   1
 -16  -9   2 2389.73 726.231   1
 -25   9   2 1796.44 629.337   4
  25 -16   5 4282.89 813.491   3
  25 -16   5 3896.71 762.325   1
 -16  -9   5 3000.44 597.070   2
   9  16   5 3333.49 650.119   3
  16 -25   5 2741.21 772.424   1
  -9  25   5 3035.69 624.201   3
 -25   9   5 4281.85 789.297   4
 -16  -9   5 3636.94 912.459   1
 -25   9   5 4945.82 831.761   2
 -16  -9   5 4988.35 733.359   4
 -25  10  -5 8730.29 1017.95   2
  15 -25  -5 6770.79 759.547   1
 -15 -10  -5 8317.01 977.755   2
 -10  25  -5 6234.70 627.773   4
 -15 -10  -5 6219.42 581.660   1
 -25  10  -5 6803.36 862.597   4
 -25  10  -2 5198.73 773.736   2
  15 -25  -2 5369.92 725.971   1
 -15 -10  -2 6260.85 857.587   2
  10  15  -2 5596.25 682.043   3
 -10  25  -2 6483.89 730.011   4
 -15 -10  -2 7510.83 803.334   1
 -10  25  -2 4935.73 352.724   2
 -25  10  -2 5984.38 818.616   4
 -15 -10  -2 7017.45 887.245   4
  25 -15   1 4037.50 520.464   3
 -25  10   1 2948.22 625.165   2
 -15 -10   1 4175.58 720.669   2
  25 -15   1 2854.44 657.372   1
  10  15   1 3836.92 594.214   3
 -10  25   1 3248.70 627.052   3
 -10  25   1 4293.87 623.052   2
  15 -25   1 3863.98 772.152   1
 -25  10   1 4252.57 728.240   4
 -15 -10   1 3921.72 754.934   1
 -15 -10   1 4737.15 726.089   4
 -15 -10   4 4649.79 656.548   4
  25 -15   4 5291.66 808.839   3
 -25  10   4 4444.94 760.838   2
 -15 -10   4 4866.77 675.931   2
  10  15   4 4325.92 679.180   3
  15 -25   4 2923.74 736.221   1
 -10  25   4 3280.71 632.804   3
  25 -15   4 5074.57 799.932   1
 -15 -10   4 6678.58 1054.33   1
 -25  10   4 4528.06 772.523   4
 -25  10   7 5935.08 861.275   2
 -15 -10   7 4849.95 683.707   2
  25 -15   7 8142.42 1136.83   3
  25 -15   7 5253.18 818.295   1
  15 -25   7 5626.40 1023.16   1
 -10  25   7 5288.69 771.925   3
  10  15   7 4517.16 781.480   3
 -25  10   7 4979.77 791.171   4
 -15 -10   7 6397.49 1077.65   1
 -25  11  -6 1454.14 639.916   2
  14 -25  -6 745.101 478.100   1
 -11  25  -6 744.031 353.605   4
 -25  11  -6 158.630 496.706   4
 -14 -11  -3 4889.05 805.883   4
 -25  11  -3 4458.39 764.869   2
  14 -25  -3 5151.97 717.041   1
 -14 -11  -3 5560.18 830.947   2
 -11  25  -3 5487.88 671.217   4
 -14 -11  -3 5174.76 664.650   1
 -25  11  -3 5207.22 741.720   4
 -14 -11   0 1462.89 582.049   4
  25 -14   0 1555.13 300.213   3
 -25  11   0 850.970 526.606   2
 -14 -11   0 965.958 491.343   2
  11  14   0 488.324 392.452   3
 -11  25   0 1962.20 579.066   3
 -11  25   0 630.071 486.035   4
  14 -25   0 2235.88 667.735   1
 -11  25   0 1570.20 435.617   2
 -14 -11   0 944.009 545.872   1
 -25  11   0 1900.85 597.475   4
 -14 -11   3 510.642 442.478   4
 -25  11   3 882.106 542.354   2
  25 -14   3 866.706 482.724   3
  14 -25   3 1332.93 654.005   1
 -14 -11   3 536.214 412.751   2
  11  14   3 1335.08 482.012   3
 -11  25   3 894.940 448.326   3
 -11  25   3 739.840 521.494   2
 -25  11   3 59.0312 484.904   4
 -14 -11   3 772.354 598.856   1
  25 -14   3 869.385 549.424   1
 -25  11   6 2242.08 683.970   2
 -14 -11   6 2476.95 524.160   4
  25 -14   6 503.824 624.790   3
  14 -25   6 623.039 662.518   1
 -14 -11   6 1671.75 506.852   2
  11  14   6 1910.51 632.081   3
 -11  25   6 984.171 475.613   3
  25 -14   6 1528.76 611.260   1
 -25  11   6 2065.23 620.158   4
 -14 -11   6 3009.34 895.022   1
 -25  12  -7 2608.49 782.931   2
 -25  12  -7 1227.94 556.241   4
 -13 -12  -4 2946.66 508.166   1
  13 -25  -4 3146.62 624.879   1
 -25  12  -4 3532.64 693.387   2
 -13 -12  -4 3661.49 738.230   2
 -12  25  -4 3085.40 541.542   4
 -25  12  -4 2775.82 655.796   4
 -13 -12  -1 2637.00 658.866   4
 -25  12  -1 2501.07 620.448   2
 -13 -12  -1 1694.20 533.088   2
  12  13  -1 1737.58 482.806   3
 -12  25  -1 2938.99 592.121   4
 -12  25  -1 3210.82 439.618   2
  13 -25  -1 1480.36 554.589   1
 -25  12  -1 3197.26 682.250   4
 -13 -12  -1 3640.75 667.933   1
  25 -13   2 9444.10 760.206   3
 -13 -12   2 7704.92 791.769   2
  12  13   2 7958.71 772.603   3
 -12  25   2 7548.79 786.455   3
 -12  25   2 8689.04 861.727   2
 -13 -12   2 9381.42 1069.51   1
  13 -25   2 8046.83 981.228   1
 -25  12   2 7684.50 877.290   4
 -25  12   2 7430.29 883.227   2
 -13 -12   2 8261.76 871.175   4
 -25  12   5 1248.82 557.041   2
 -13 -12   5 1625.82 507.503   4
  25 -13   5 2555.44 677.576   3
  13 -25   5 2827.51 827.106   1
 -13 -12   5 2026.51 518.301   2
  12  13   5 2000.43 599.140   3
 -12  25   5 1952.01 560.496   3
  25 -13   5 1487.20 555.265   1
 -12  25   5 1150.60 591.158   2
 -25  12   5 2299.08 636.761   4
 -13 -12   5 2239.00 801.203   1
 -12 -13  -5 1418.13 380.068   1
 -25  13  -5 1946.62 608.700   2
  12 -25  -5 2424.38 553.193   1
 -13  25  -5 2050.48 437.430   4
 -25  13  -5 2575.23 633.472   4
  12 -25  -2 8114.96 826.614   1
 -25  13  -2 7234.90 827.167   2
 -12 -13  -2 8749.27 935.495   2
  13  12  -2 9194.55 818.811   3
 -13  25  -2 8977.88 834.594   4
 -12 -13  -2 8550.06 814.129   1
 -25  13  -2 7243.92 855.821   4
 -13  25  -2 8297.99 486.048   2
 -12 -13   1 2317.41 613.439   4
 -25  13   1 1773.84 560.387   2
  25 -12   1 1954.18 364.821   3
  12 -25   1 1850.50 674.095   1
  13  12   1 1646.75 476.977   3
 -12 -13   1 2339.15 575.229   2
 -13  25   1 1656.47 517.187   3
 -13  25   1 2599.79 624.733   4
 -13  25   1 2344.93 517.815   2
 -25  13   1 2399.28 599.501   4
 -12 -13   1 1848.79 650.460   1
 -25  13   4 2948.59 683.036   2
  12 -25   4 2249.66 717.695   1
  25 -12   4 3129.87 649.407   3
  13  12   4 2010.48 512.432   3
 -12 -13   4 3078.14 578.929   2
 -13  25   4 2891.82 588.931   3
  25 -12   4 2502.68 647.796   1
 -13  25   4 3392.80 726.638   4
 -13  25   4 2337.17 654.706   2
 -25  13   4 2163.40 619.981   4
 -12 -13   4 4104.11 893.665   1
 -12 -13   7 1508.27 858.615   1
  12 -25   7 1361.99 749.042   1
  25 -12   7 2246.94 743.718   3
  13  12   7 1535.43 651.130   3
 -13  25   7 2067.17 594.420   3
 -13  25   7 2073.26 689.422   4
 -13  25   7 3350.92 869.363   2
 -25  13   7 3656.53 769.646   4
  25 -12   7 2424.57 653.184   1
 -25  13   7 899.406 589.320   2
  11 -25  -6 1438.19 437.387   1
 -25  14  -6 1229.99 631.297   2
 -14  25  -6 1369.11 379.518   4
 -25  14  -6 2037.95 578.265   4
 -11 -14  -3 17.3502 419.863   1
  11 -25  -3 273.768 432.606   1
 -14  25  -3-134.672 168.861   2
 -25  14  -3 282.282 465.927   2
 -14  25  -3-305.463 406.628   4
 -25  14  -3-243.845 457.664   4
 -11 -14   0 1082.71 564.793   1
 -25  14   0 895.763 499.042   2
  25 -11   0 868.305 183.956   3
  11 -25   0 1136.81 585.419   1
  14  11   0 861.503 428.046   3
 -11 -14   0 1051.41 546.449   2
 -14  25   0 1424.41 503.782   4
 -25  14   0 1421.59 574.272   4
 -14  25   0 1550.81 473.388   2
  25 -11   3 5270.80 649.033   3
  11 -25   3 4612.77 803.110   1
 -11 -14   3 4132.92 611.655   2
  14  11   3 4031.31 612.884   3
 -14  25   3 4352.07 706.071   3
 -14  25   3 4791.03 732.098   4
 -14  25   3 4538.84 718.288   2
 -11 -14   3 5754.64 909.105   1
 -25  14   3 5619.49 795.142   4
 -25  14   3 4859.94 762.120   2
  11 -25   6 606.112 719.442   1
 -11 -14   6 403.514 671.917   1
  25 -11   6-213.302 554.848   3
  14  11   6 1372.05 578.410   3
 -11 -14   6 409.828 362.920   2
 -14  25   6 777.702 496.355   3
 -14  25   6 1403.22 647.224   4
 -14  25   6 142.075 572.519   2
 -25  14   6 700.319 495.347   4
 -25  14   6 46.3453 596.120   2
 -25  15  -7 6042.99 914.217   2
 -25  15  -7 4177.52 692.269   4
 -10 -15  -4 3532.62 494.806   1
  10 -25  -4 3326.35 606.866   1
 -25  15  -4 3881.85 695.192   2
 -15  25  -4 4279.15 574.181   4
 -25  15  -4 4142.53 627.085   4
 -25  15  -1 3228.85 652.768   2
  10 -25  -1 4365.54 715.530   1
  15  10  -1 3091.62 501.558   3
 -10 -15  -1 3102.21 610.692   2
 -15  25  -1 3911.60 624.935   4
 -10 -15  -1 4578.92 701.392   1
 -15  25  -1 4223.51 488.611   2
 -25  15  -1 3509.85 704.955   4
  25 -10   2 7232.42 620.878   3
  15  10   2 6564.16 677.777   3
 -10 -15   2 4846.46 629.577   2
 -15  25   2 5324.64 707.912   3
  10 -25   2 6372.23 886.234   1
 -15  25   2 6826.34 821.668   4
 -15  25   2 7052.55 770.398   2
 -10 -15   2 5991.45 928.063   1
 -25  15   2 4698.08 707.268   4
 -25  15   2 6638.01 805.576   2
  10 -25   5 4922.67 874.763   1
  25 -10   5 9329.11 972.833   3
 -10 -15   5 5686.14 581.369   2
  15  10   5 7495.87 864.597   3
 -15  25   5 6676.38 759.669   3
 -15  25   5 7951.35 946.882   4
 -15  25   5 8061.63 975.618   2
 -25  15   5 7950.18 926.007   4
 -10 -15   5 9430.25 1172.30   1
 -25  15   5 5595.60 848.209   2
 -25  16  -5 4305.82 759.185   2
   9 -25  -5 3426.21 576.507   1
 -16  25  -5 2928.34 524.367   4
 -25  16  -5 3709.90 686.880   4
 -16  25  -2 1789.93 356.505   2
  -9 -16  -2 1274.40 503.860   1
 -25  16  -2 1460.24 537.502   2
   9 -25  -2 413.902 472.961   1
  16   9  -2 871.564 409.642   3
 -16  25  -2 1029.34 445.252   4
 -25  16  -2 906.721 550.296   4
 -25  16   1 3467.22 661.702   2
  -9 -16   1 4314.34 775.894   1
  25  -9   1 3538.48 376.957   3
  16   9   1 3784.28 557.008   3
  -9 -16   1 4178.66 625.474   2
   9 -25   1 4977.70 827.192   1
 -16  25   1 4025.59 669.294   4
 -25  16   1 4366.40 762.172   4
 -16  25   1 3443.74 579.106   2
 -25  16   4 763.862 535.654   2
  -9 -16   4 1093.07 688.091   1
  25  -9   4 193.028 432.971   3
  16   9   4 155.426 429.970   3
  -9 -16   4-78.7646 372.033   2
 -16  25   4-323.067 442.924   3
 -16  25   4 1568.60 554.091   4
 -16  25   4 1158.60 562.631   2
 -25  16   4 305.116 453.848   4
   9 -25   4 436.059 655.818   1
  -9 -16   7 1835.28 783.329   1
  25  -9   7 2161.24 715.773   3
  16   9   7 711.857 574.132   3
 -16  25   7 1937.34 545.220   3
 -16  25   7 1775.83 671.229   4
 -16  25   7 2000.83 756.067   2
 -25  16   7 2034.87 646.602   4
   9 -25   7 1702.80 800.885   1
 -25  16   7 1145.66 637.006   2
 -25  17  -6 3343.77 755.861   2
 -17  25  -6 1799.20 440.609   4
   8 -25  -6 1601.73 469.264   1
 -25  17  -6 2912.21 636.906   4
  -8 -17  -3 7097.15 718.219   1
 -17  25  -3 6197.56 483.255   2
 -25  17  -3 6708.70 803.901   2
 -17  25  -3 7231.23 765.265   4
 -25  17  -3 5664.50 760.753   4
   8 -25  -3 7621.37 800.435   1
 -25  17   0 1090.43 489.102   2
   8 -25   0 1857.21 631.718   1
  -8 -17   0 1364.87 554.962   1
  25  -8   0 733.166 171.276   3
  17   8   0 1283.34 415.039   3
 -17  25   0 1656.80 505.070   4
 -25  17   0 1287.97 575.736   4
 -17  25   0 686.030 407.592   2
  25  -8   3 18002.6 1007.59   3
  17   8   3 15520.7 996.992   3
  -8 -17   3 15061.1 867.109   2
   8 -25   3 16255.1 1282.35   1
 -17  25   3 14116.4 979.059   3
 -17  25   3 16579.8 1199.51   4
 -17  25   3 16542.1 1151.30   2
 -25  17   3 17454.0 1240.53   4
  -8 -17   3 18820.5 1428.42   1
 -25  17   3 14602.1 1150.54   2
  -8 -17   6 2246.30 800.978   1
  25  -8   6 1411.38 622.637   3
  17   8   6 1547.56 579.857   3
 -17  25   6 1353.12 458.354   3
 -17  25   6 2279.92 681.758   4
 -17  25   6 1628.67 682.585   2
 -25  17   6 2535.31 722.112   4
   8 -25   6 1389.95 761.341   1
 -25  17   6 1382.49 628.503   2
   7 -25  -4 4760.41 603.441   1
  -7 -18  -4 3978.34 526.597   1
 -25  18  -4 3616.03 662.504   2
 -18  25  -4 4824.42 635.556   4
 -25  18  -4 5667.13 766.549   4
 -25  18  -1 8570.40 857.933   2
  18   7  -1 7259.24 649.152   3
   7 -25  -1 8091.41 872.775   1
 -18  25  -1 7811.78 803.804   4
 -25  18  -1 6733.43 807.849   4
 -18  25  -1 8309.68 679.040   2
  -7 -18  -1 9125.10 915.660   1
 -25  18   2 4331.71 710.768   2
  -7 -18   2 4666.36 874.813   1
  25  -7   2 4917.89 514.025   3
  18   7   2 2998.16 538.285   3
  -7 -18   2 3426.44 548.110   2
 -18  25   2 3712.28 599.608   3
 -18  25   2 3977.87 667.396   4
 -25  18   2 4632.12 741.653   4
 -18  25   2 4262.79 685.038   2
   7 -25   2 4763.31 812.561   1
  -7 -18   5 4244.27 980.793   1
  25  -7   5 3669.77 673.068   3
  18   7   5 2470.44 553.131   3
 -18  25   5 2332.04 502.997   3
 -18  25   5 3035.45 655.783   4
 -25  18   5 3774.76 699.345   4
 -18  25   5 3481.33 729.894   2
   7 -25   5 3676.48 879.174   1
 -25  18   5 3810.86 781.084   2
 -25  19  -5 2194.89 627.333   2
   6 -25  -5 1682.42 480.252   1
 -19  25  -5 2576.87 538.536   4
 -25  19  -5 2707.31 582.311   4
 -19  25  -2 690.261 329.508   2
 -25  19  -2 378.221 470.204   2
   6 -25  -2-515.568 517.045   1
  -6 -19  -2 822.176 461.897   1
  19   6  -2 804.283 370.383   3
 -19  25  -2 954.171 500.180   4
 -25  19  -2 984.736 571.125   4
 -25  19   1 1211.73 537.807   2
  -6 -19   1 2971.85 724.049   1
  25  -6   1 1983.53 322.479   3
  19   6   1 1227.53 399.535   3
 -19  25   1 1099.52 485.387   4
 -25  19   1 1414.24 565.908   4
 -19  25   1 2135.61 545.331   2
   6 -25   1 1110.46 578.826   1
  -6 -19   4 2136.55 767.629   1
  25  -6   4 2233.63 551.383   3
  19   6   4 1133.12 500.410   3
 -19  25   4 1574.47 492.139   3
 -19  25   4 1296.42 547.451   4
 -25  19   4 1384.38 582.192   4
   6 -25   4 2726.73 854.371   1
 -19  25   4 1151.52 560.761   2
 -25  19   4 2220.63 687.273   2
 -25  20  -6 1758.78 623.009   2
 -20  25  -6 2419.25 509.545   4
 -25  20  -6 2941.63 643.395   4
 -20  25  -3 9161.92 676.920   2
 -25  20  -3 9521.51 874.204   2
  -5 -20  -3 11265.8 867.434   1
 -20  25  -3 9073.94 856.272   4
   5 -25  -3 9367.67 852.193   1
 -25  20  -3 9194.21 933.975   4
  -5 -20   0 6628.76 887.960   1
 -25  20   0 4397.53 667.132   2
  25  -5   0 3734.63 313.207   3
  20   5   0 3998.56 521.268   3
   5 -25   0 4617.30 780.010   1
 -20  25   0 4992.43 709.357   4
 -25  20   0 4477.37 766.902   4
 -20  25   0 5105.90 684.424   2
  25  -5   3 11546.4 820.696   3
  20   5   3 10599.2 839.738   3
   5 -25   3 12208.6 1205.74   1
 -20  25   3 8774.75 774.137   3
 -20  25   3 10883.2 1022.27   4
 -25  20   3 11588.7 1103.18   4
 -20  25   3 13204.6 1071.25   2
 -25  20   3 11064.0 1090.41   2
  -5 -20   3 11882.2 1237.76   1
  25  -5   6 1376.15 634.712   3
  -5 -20   6 1051.69 775.471   1
  20   5   6 1649.65 615.615   3
 -20  25   6 1434.62 494.223   3
 -20  25   6 1370.93 622.951   4
   5 -25   6 715.910 769.939   1
 -25  20   6 570.061 503.301   4
 -20  25   6 2206.88 731.101   2
 -25  20   6 1392.75 649.450   2
 -21  25  -4 3025.73 509.522   2
 -25  21  -4 2848.32 606.875   2
  -4 -21  -4 3689.21 520.890   1
   4 -25  -4 2818.88 531.566   1
 -21  25  -4 3234.24 613.814   4
 -25  21  -4 4059.31 684.752   4
   4 -25  -1 2362.00 622.444   1
 -21  25  -1 3004.25 543.680   2
 -25  21  -1 1988.00 550.015   2
  -4 -21  -1 3500.01 702.393   1
  21   4  -1 2090.56 408.049   3
 -21  25  -1 2569.61 587.449   4
 -25  21  -1 3110.80 677.062   4
 -25  21   2 3864.23 754.633   2
  25  -4   2 3928.86 461.827   3
  -4 -21   2 4228.21 818.009   1
  21   4   2 2708.29 518.430   3
 -25  21   2 5252.74 794.425   4
 -21  25   2 2759.10 614.789   4
   4 -25   2 3704.39 788.935   1
 -21  25   2 3824.38 675.538   2
  25  -4   5 863.244 556.632   3
  -4 -21   5 1921.79 827.628   1
  21   4   5 1353.41 569.144   3
 -21  25   5 818.753 399.799   3
   4 -25   5 2084.66 847.959   1
 -21  25   5 346.395 533.579   4
 -25  21   5 1040.17 547.933   4
 -21  25   5 1331.87 593.285   2
 -25  21   5 844.737 584.653   2
 -25  22  -5 1746.03 600.674   2
 -22  25  -5 375.208 416.105   4
 -25  22  -5 1687.53 577.635   4
   3 -25  -2 1157.86 555.793   1
 -22  25  -2 417.957 380.771   2
 -25  22  -2 1038.79 507.570   2
  -3 -22  -2 1503.38 568.458   1
 -22  25  -2 1729.68 584.732   4
 -25  22  -2 1377.08 562.346   4
 -25  22   1-188.616 477.047   2
  25  -3   1 29.0202 254.730   3
  -3 -22   1-796.790 560.897   1
  22   3   1-654.814 362.330   3
 -22  25   1-34.7488 495.893   4
   3 -25   1 686.708 587.786   1
 -25  22   1 2.49797 477.940   4
 -22  25   1 772.674 529.099   2
  25  -3   4 1633.03 521.367   3
  22   3   4 1060.63 475.101   3
  -3 -22   4 1833.43 804.333   1
   3 -25   4 1072.30 751.142   1
 -22  25   4 589.689 468.552   4
 -25  22   4 2120.14 647.860   4
 -22  25   4 1041.35 595.100   2
 -25  22   4-108.206 617.127   2
 -23  25  -3 6683.07 674.591   2
 -25  23  -3 7437.33 744.579   2
  -2 -23  -3 9197.32 821.552   1
   2 -25  -3 7661.56 783.528   1
 -23  25  -3 8635.61 873.851   4
 -25  23  -3 8628.43 936.116   4
 -23  25   0 4331.84 660.005   2
 -25  23   0 3401.17 641.704   2
   2 -25   0 5081.68 823.137   1
  25  -2   0 3462.13 377.311   3
  23   2   0 3457.03 454.770   3
  -2 -23   0 4813.51 786.576   1
 -23  25   0 5681.76 768.792   4
 -25  23   0 4909.27 778.741   4
  -2 -23   3 10751.2 1234.39   1
   2 -25   3 11329.6 1229.98   1
  25  -2   3 9536.70 776.713   3
  23   2   3 10098.9 807.637   3
 -23  25   3 10130.6 1037.81   4
 -25  23   3 9928.52 1030.03   4
 -23  25   3 10868.0 1047.06   2
 -25  23   3 9674.38 1018.35   2
  -1 -24  -4 198.655 407.816   1
 -24  25  -4 637.477 418.901   2
   1 -25  -4 137.519 429.274   1
 -25  24  -4 322.895 454.131   2
 -24  25  -4 312.592 436.780   4
 -25  24  -4 22.9224 465.201   4
 -24  25  -1 1053.98 479.045   2
 -25  24  -1 2060.50 549.311   2
  -1 -24  -1 2615.47 668.718   1
 -24  25  -1 2206.09 548.596   4
 -25  24  -1 2598.60 662.142   4
   1 -25  -1 2556.72 642.849   1
  25  -1   2 2934.38 480.915   3
  24   1   2 3252.80 519.726   3
  -1 -24   2 4491.80 890.344   1
   1 -25   2 4198.42 867.579   1
 -24  25   2 3591.80 700.594   4
 -25  24   2 4329.49 771.533   4
 -24  25   2 4369.72 714.007   2
 -25  24   2 3957.20 735.425   2
  25  -1   5 2270.87 639.673   3
  24   1   5 2756.42 621.856   3
  -1 -24   5 1934.00 849.500   1
   1 -25   5 2405.29 835.528   1
 -24  25   5 1746.12 622.891   4
 -25  24   5 2921.01 693.190   4
 -24  25   5 3408.63 792.082   2
 -25  24   5 2388.51 775.465   2
 -25  25  -2 2313.23 543.140   2
   0 -25  -2 4187.68 697.726   1
 -25  25  -2 3129.48 712.282   4
 -25  25   1 241.708 495.602   2
  25   0   1-282.949 331.751   3
   0 -25   1 146.516 586.179   1
 -25  25   1 74.3723 478.015   4
  25   0   4 3087.64 612.896   3
   0 -25   4 4744.18 960.309   1
 -25  25   4 3425.05 725.906   4
 -25  25   4 2094.62 718.706   2
  26 -26  -2 2193.38 666.347   1
 -26   0  -2 2587.85 758.920   2
 -26   0  -2 2609.65 784.228   4
 -26   0   1-295.073 599.291   2
   0  26   1 1103.52 573.091   3
  26 -26   1 813.652 598.738   1
 -26   0   1 862.865 620.386   4
  26 -25  -3 6647.23 952.455   1
 -25  -1  -3 6161.83 939.954   2
 -26   1  -3 6201.90 908.119   2
  25 -26  -3 7162.45 936.238   1
 -26   1  -3 8418.90 1088.12   4
 -25  -1  -3 9419.16 1122.90   4
  26 -25   0 1004.26 609.725   1
 -26   1   0 959.195 617.143   2
 -25  -1   0 740.587 609.515   2
   1  25   0-319.200 558.786   3
  -1  26   0 564.827 529.939   3
  25 -26   0 659.234 613.019   1
 -26   1   0 1139.01 647.120   4
 -25  -1   0 576.688 570.394   4
 -26   1   3 7063.15 965.105   2
 -25  -1   3 6376.80 943.127   2
   1  25   3 5436.45 798.410   3
  -1  26   3 6422.62 857.145   3
  25 -26   3 6578.06 986.884   1
  26 -25   3 7238.57 966.706   1
 -26   1   3 6867.61 906.026   4
 -25  -1   3 7468.20 972.910   4
 -26   2  -4 1746.38 624.778   4
 -24  -2  -4 1317.39 683.695   4
 -26   2  -4 1818.63 742.437   2
 -24  -2  -4 2070.74 762.575   2
  24 -26  -4 1203.05 631.066   1
 -24  -2  -1 1091.04 622.437   4
 -26   2  -1 1917.29 669.190   2
 -24  -2  -1 1274.61 659.423   2
   2  24  -1 2108.62 640.318   3
  -2  26  -1 1080.52 538.090   3
  26 -24  -1 2139.04 703.297   1
  24 -26  -1 1627.02 647.643   1
 -26   2  -1 1793.18 634.982   4
  24 -26   2 2385.47 687.549   1
 -26   2   2 1786.31 654.001   2
 -24  -2   2 1215.11 583.772   2
   2  24   2 653.880 530.575   3
  -2  26   2 1821.87 582.591   3
  26 -24   2 1767.86 680.054   1
 -26   2   2 1620.41 629.966   4
 -24  -2   2 3307.48 728.890   4
 -26   3  -5 1291.75 570.074   4
 -23  -3  -5 45.9372 619.211   4
 -26   3  -5 385.278 645.418   2
 -23  -3  -5 97.9679 615.733   2
  23 -26  -2 4309.37 797.221   1
  26 -23  -2 4870.59 810.121   1
 -26   3  -2 5433.82 873.529   2
 -23  -3  -2 3555.22 733.531   2
   3  23  -2 4996.07 748.964   3
 -26   3  -2 5218.65 847.801   4
 -23  -3  -2 5222.34 840.519   4
  26 -23   1 1618.17 674.908   1
  23 -26   1 1705.89 658.872   1
 -26   3   1 1449.94 616.442   2
 -23  -3   1 128.381 561.959   2
   3  23   1 953.142 493.435   3
  -3  26   1 193.602 485.869   3
 -26   3   1 1136.28 599.957   4
 -23  -3   1 1357.95 572.936   4
 -26   3   4 3055.82 732.256   2
 -23  -3   4 3167.96 755.951   2
  23 -26   4 3280.42 772.463   1
  26 -23   4 4179.94 817.496   1
   3  23   4 3520.60 707.664   3
  -3  26   4 2929.59 668.840   3
 -23  -3   4 5156.12 873.097   4
 -26   3   4 4125.60 795.776   4
 -26   4  -3 6871.83 973.696   2
 -22  -4  -3 5431.23 880.641   2
  22 -26  -3 6262.08 852.407   1
 -26   4  -3 5933.17 881.498   4
 -22  -4  -3 6347.18 928.274   4
 -22  -4   0 2210.60 676.045   4
  22 -26   0 1171.28 577.284   1
 -26   4   0 2195.16 659.812   2
 -22  -4   0 1206.89 611.177   2
   4  22   0 1788.19 569.655   3
  -4  26   0 812.702 469.645   3
  26 -22   0 1828.68 649.385   1
 -26   4   0 1578.10 599.931   4
  26 -22   3 7208.71 938.165   1
 -26   4   3 7584.50 937.723   2
 -22  -4   3 7554.46 939.722   2
  22 -26   3 6499.70 941.139   1
   4  22   3 7068.83 814.337   3
  -4  26   3 6262.15 822.829   3
 -26   4   3 7119.65 921.230   4
 -22  -4   3 7304.55 912.260   4
 -21  -5  -4 807.133 617.884   4
 -26   5  -4 1015.88 577.889   2
 -21  -5  -4 1135.76 677.897   2
  21 -26  -4 125.937 487.895   1
 -26   5  -4 746.800 517.035   4
 -21  -5  -1 1594.46 646.957   4
 -26   5  -1 923.404 595.647   2
  21 -26  -1 608.716 519.329   1
 -21  -5  -1 311.943 578.746   2
   5  21  -1 905.067 505.855   3
  -5  26  -1-265.486 492.861   3
 -26   5  -1-141.128 565.845   4
  26 -21  -1 1320.59 582.641   1
 -21  -5   2 2424.83 645.442   4
  26 -21   2 1503.48 661.583   1
 -26   5   2 999.757 591.765   2
 -21  -5   2 488.571 501.663   2
  21 -26   2 1966.38 635.525   1
   5  21   2 2232.97 618.118   3
  -5  26   2 867.242 504.229   3
 -26   5   2 2129.53 624.252   4
  21 -26   5 2458.98 727.849   1
  26 -21   5 2255.84 795.509   3
 -26   5   5 221.669 540.016   2
 -21  -5   5 1918.52 610.396   2
   5  21   5 1306.93 540.341   3
  -5  26   5 856.593 504.812   3
  26 -21   5 354.104 606.317   1
 -26   5   5 1040.68 607.142   4
 -21  -5   5 1461.44 582.994   4
  20 -26  -5 3378.31 723.299   1
 -20  -6  -5 4356.22 900.214   2
 -26   6  -5 2590.03 772.638   2
  -6  26  -5 3498.52 568.099   4
 -26   6  -5 4007.60 768.899   4
 -20  -6  -5 5169.61 933.885   4
 -20  -6  -2 3794.77 762.625   4
 -26   6  -2 3951.19 768.774   2
  20 -26  -2 4180.93 732.162   1
 -20  -6  -2 4084.81 818.470   2
   6  20  -2 3882.41 704.855   3
 -26   6  -2 4261.95 733.220   4
 -26   6   1 4271.73 779.900   2
  20 -26   1 5001.90 836.974   1
 -20  -6   1 3245.16 696.997   2
   6  20   1 2840.84 605.273   3
  -6  26   1 2765.60 644.686   3
  26 -20   1 4468.68 802.459   1
 -26   6   1 4606.67 800.469   4
 -20  -6   1 4924.27 790.842   4
  26 -20   4 4591.60 817.552   3
 -20  -6   4 4269.04 749.310   2
   6  20   4 3554.21 662.853   3
  -6  26   4 4035.02 715.234   3
  26 -20   4 3836.54 805.594   1
 -26   6   4 4343.68 820.390   4
 -20  -6   4 4795.16 778.081   4
  20 -26   4 3269.88 787.754   1
 -26   6   4 3936.90 833.173   2
 -19  -7  -6 1206.82 622.295   4
 -26   7  -6 1621.30 703.693   2
 -19  -7  -6 1803.12 757.540   2
 -26   7  -6 1394.34 624.664   4
 -19  -7  -3 4595.64 850.703   2
 -26   7  -3 3898.50 793.073   2
 -26   7  -3 5501.09 830.587   4
 -19  -7  -3 5868.38 870.635   4
  19 -26  -3 5335.60 784.600   1
 -19  -7   0 6132.03 847.380   2
 -26   7   0 4273.70 778.092   2
  19 -26   0 6100.49 865.944   1
   7  19   0 5842.68 747.529   3
  -7  26   0 4299.40 689.670   3
 -26   7   0 5066.41 783.516   4
 -19  -7   0 6822.03 862.221   4
  26 -19   0 5293.59 842.183   1
  26 -19   3 6485.91 844.149   3
  19 -26   3 6325.72 935.701   1
 -26   7   3 4656.72 796.853   2
 -19  -7   3 6009.82 756.947   2
  26 -19   3 5815.41 890.675   1
   7  19   3 5362.99 721.153   3
  -7  26   3 5538.98 767.674   3
 -26   7   3 7529.78 920.653   4
 -19  -7   3 7547.93 872.566   4
 -19  -7   6 1192.11 537.744   4
 -26   7   6 753.515 602.001   2
  26 -19   6 1899.99 814.821   3
 -19  -7   6 1869.41 593.430   2
   7  19   6 2826.92 732.212   3
  -7  26   6 553.283 515.760   3
  19 -26   6 947.519 713.879   1
  26 -19   6 2509.89 696.762   1
 -19  -7   6 984.072 775.508   1
 -26   7   6 825.597 619.433   4
 -18  -8  -4 1762.79 643.732   4
  18 -26  -4 1133.95 543.814   1
 -26   8  -4 1578.51 669.850   2
 -18  -8  -4 2567.83 753.496   2
  -8  26  -4 1165.69 479.447   4
 -18  -8  -4 1387.05 500.975   1
 -26   8  -4 1237.52 566.367   4
 -18  -8  -1 4433.06 757.969   4
  26 -18  -1 2169.50 336.187   3
 -26   8  -1 3367.89 709.839   2
  18 -26  -1 5022.73 790.564   1
 -18  -8  -1 4222.90 767.952   2
   8  18  -1 4063.86 643.491   3
  -8  26  -1 3481.72 673.558   3
  -8  26  -1 5404.36 531.422   2
 -26   8  -1 4701.92 821.011   4
 -18  -8   2 720.292 504.862   4
  26 -18   2 1195.23 473.441   3
 -26   8   2 98.5359 524.295   2
 -18  -8   2 949.135 562.637   2
   8  18   2 970.100 528.012   3
  -8  26   2-77.3346 446.984   3
 -18  -8   2 652.602 636.657   1
 -26   8   2 1203.40 617.393   4
  18 -26   2 563.842 558.204   1
  26 -18   2 950.812 586.213   1
 -18  -8   5 2109.85 574.946   4
  26 -18   5 1134.20 598.979   1
 -26   8   5 1809.84 672.298   2
  26 -18   5 1433.65 657.737   3
 -18  -8   5 1555.50 526.055   2
   8  18   5 2283.06 596.991   3
  -8  26   5 1282.43 552.118   3
  18 -26   5 994.389 648.784   1
 -18  -8   5 2709.43 901.183   1
 -26   8   5 1856.70 651.251   4
 -17  -9  -5 4219.91 811.232   4
 -26   9  -5 4489.56 823.186   2
 -17  -9  -5 5126.19 891.473   2
  -9  26  -5 5228.55 613.899   4
 -17  -9  -5 5524.53 626.866   1
  17 -26  -5 4688.84 694.757   1
 -26   9  -5 5303.89 849.642   4
 -17  -9  -2 4522.35 792.594   4
 -26   9  -2 3716.47 743.706   2
  17 -26  -2 4439.81 732.172   1
 -17  -9  -2 3884.98 765.940   2
   9  17  -2 3564.53 659.334   3
  -9  26  -2 3259.53 620.662   4
  -9  26  -2 2977.65 274.944   2
 -17  -9  -2 4616.84 700.342   1
 -26   9  -2 4442.56 768.349   4
 -26   9   1 7401.33 865.600   2
  17 -26   1 7635.14 916.796   1
  26 -17   1 8518.13 708.592   3
  26 -17   1 7629.02 926.647   1
 -17  -9   1 9647.90 950.594   2
   9  17   1 7544.21 806.046   3
  -9  26   1 7544.76 832.370   3
  -9  26   1 10491.6 863.537   2
 -17  -9   1 10719.5 1108.29   1
 -26   9   1 7957.64 913.529   4
 -17  -9   1 8211.57 910.158   4
 -17  -9   4 2468.81 616.174   4
 -26   9   4 1738.46 661.529   2
  26 -17   4 1816.09 619.307   3
 -17  -9   4 2458.46 612.018   2
   9  17   4 1477.89 561.345   3
  26 -17   4 2051.66 665.294   1
  -9  26   4 779.966 465.685   3
  17 -26   4 353.415 632.488   1
 -17  -9   4 240.905 682.598   1
 -26   9   4 1202.25 567.367   4
  16 -26  -6 3991.17 707.870   1
 -26  10  -6 2984.82 752.388   2
 -26  10  -6 2152.30 645.693   4
 -16 -10  -3 2121.03 641.491   4
  16 -26  -3 1907.16 578.156   1
 -26  10  -3 1665.94 606.854   2
 -16 -10  -3 1777.84 706.714   2
 -10  26  -3 1645.55 512.393   4
 -16 -10  -3 1189.84 493.425   1
 -26  10  -3 3432.29 727.567   4
 -26  10   0 4175.33 737.769   2
  26 -16   0 3788.74 426.880   3
  16 -26   0 5991.56 810.716   1
  10  16   0 4240.18 664.926   3
 -16 -10   0 4779.99 728.020   2
 -10  26   0 4499.58 712.368   3
 -16 -10   0 5415.52 858.172   1
 -10  26   0 6482.29 652.266   2
 -26  10   0 5645.65 803.724   4
 -16 -10   0 6256.02 803.540   4
 -16 -10   3 3706.86 683.147   4
 -26  10   3 2440.19 681.276   2
  26 -16   3 3159.74 653.024   3
  26 -16   3 1902.61 626.257   1
 -16 -10   3 1972.11 574.577   2
  10  16   3 1772.48 526.941   3
  16 -26   3 2428.80 778.003   1
 -10  26   3 2182.88 585.910   3
 -16 -10   3 2537.25 803.784   1
 -26  10   3 2508.85 620.386   4
 -26  10   6 5309.02 840.115   2
  26 -16   6 7649.42 1069.98   3
 -16 -10   6 5192.52 707.431   2
  10  16   6 5916.64 867.550   3
  26 -16   6 4693.60 775.700   1
 -10  26   6 5414.00 775.594   3
  16 -26   6 6803.23 1026.28   1
 -16 -10   6 8247.78 1266.57   1
 -26  10   6 4995.19 810.827   4
 -16 -10   6 6232.64 771.304   4
 -26  11  -4-472.027 619.406   2
  15 -26  -4 228.078 441.555   1
 -15 -11  -4 672.455 644.029   2
 -11  26  -4 921.225 459.225   4
 -26  11  -4 686.020 514.409   4
 -15 -11  -4 699.168 407.939   1
 -26  11  -1 6084.97 803.460   2
  15 -26  -1 6205.19 845.349   1
 -15 -11  -1 7631.36 898.117   2
  11  15  -1 7330.11 781.580   3
 -11  26  -1 9821.92 920.738   4
 -15 -11  -1 9374.25 934.215   1
 -11  26  -1 8896.97 641.719   2
 -26  11  -1 7748.49 900.680   4
 -15 -11  -1 6250.96 857.627   4
 -15 -11   2 382.696 464.716   4
  26 -15   2 1032.61 568.518   1
 -26  11   2-468.754 532.580   2
  26 -15   2 718.624 449.342   3
 -15 -11   2 19.2290 448.516   2
  11  15   2 184.056 402.209   3
  15 -26   2-105.455 592.735   1
 -11  26   2 481.838 457.345   3
 -11  26   2-317.790 458.501   2
 -26  11   2-451.246 475.379   4
 -15 -11   2 1091.06 672.682   1
 -26  11   5 3395.24 779.645   2
  26 -15   5 2989.25 696.154   1
  26 -15   5 4482.54 799.250   3
  15 -26   5 2783.74 811.311   1
 -15 -11   5 2468.76 538.148   2
  11  15   5 3621.47 666.189   3
 -11  26   5 1356.12 495.096   3
 -26  11   5 3406.13 699.722   4
 -15 -11   5 5175.55 1008.15   1
 -15 -11   5 3808.59 700.452   4
  14 -26  -5 7384.37 775.203   1
 -26  12  -5 7722.06 972.114   2
 -12  26  -5 7240.24 679.241   4
 -26  12  -5 6958.50 852.010   4
 -14 -12  -2 2798.82 696.558   4
  14 -26  -2 2471.54 610.844   1
 -26  12  -2 1426.55 538.203   2
 -14 -12  -2 1316.71 582.956   2
  12  14  -2 2025.61 542.413   3
 -12  26  -2 2085.68 525.321   4
 -26  12  -2 2752.66 637.177   4
 -14 -12  -2 3381.23 642.587   1
 -12  26  -2 1527.84 264.902   2
 -14 -12   1 7345.86 855.151   4
  26 -14   1 6541.88 562.522   3
 -14 -12   1 6475.29 803.301   2
  12  14   1 5700.66 708.658   3
 -12  26   1 6163.40 758.506   3
 -12  26   1 6198.82 829.860   4
 -12  26   1 7331.97 756.005   2
 -14 -12   1 6947.50 929.830   1
 -26  12   1 5891.60 828.737   4
  14 -26   1 6433.62 889.691   1
 -26  12   1 4864.77 766.601   2
 -14 -12   4 1859.64 532.541   4
 -26  12   4 271.457 537.899   2
  26 -14   4 661.556 546.833   1
  26 -14   4 681.575 528.546   3
  14 -26   4 1710.75 808.690   1
 -14 -12   4 1390.37 520.150   2
  12  14   4-102.479 459.128   3
 -12  26   4 231.420 439.022   3
 -12  26   4 1209.45 617.871   2
 -26  12   4-88.5071 477.637   4
 -14 -12   4 2036.79 790.965   1
 -26  13  -6 5176.32 906.952   2
  13 -26  -6 4561.77 677.952   1
 -13  26  -6 4728.30 551.655   4
 -26  13  -6 5803.72 791.187   4
 -13 -13  -3 2039.04 545.041   1
 -26  13  -3 453.066 526.087   2
  13 -26  -3 1538.31 535.989   1
 -13 -13  -3 1640.59 650.956   2
 -13  26  -3 1275.77 482.320   4
 -26  13  -3 988.820 531.502   4
 -13 -13   0 5442.70 778.396   4
  26 -13   0 3357.10 294.758   3
 -26  13   0 3613.30 652.177   2
 -13 -13   0 5845.07 776.217   2
  13  13   0 4819.45 623.108   3
  13 -26   0 4704.57 772.301   1
 -13  26   0 4253.34 677.960   4
 -13  26   0 7294.05 682.723   2
 -26  13   0 4436.53 746.964   4
 -13 -13   0 4960.53 769.911   1
 -13 -13   3 1954.64 539.255   4
 -26  13   3 1521.55 629.064   2
  26 -13   3 1973.79 515.068   3
  13 -26   3 1995.94 753.376   1
  13  13   3 797.611 425.700   3
 -13 -13   3 1095.37 496.438   2
 -13  26   3 1406.53 550.514   3
 -13  26   3 1560.72 602.028   4
 -13  26   3 815.885 502.653   2
 -26  13   3 346.497 501.766   4
 -13 -13   3 1062.65 730.921   1
  26 -13   6 6708.98 915.063   1
  26 -13   6 7911.48 1013.98   3
 -13 -13   6 4868.22 622.930   2
  13  13   6 6511.42 849.047   3
 -13  26   6 6228.28 786.360   3
 -13  26   6 6895.85 1016.80   4
  13 -26   6 7193.03 1098.98   1
 -13  26   6 7354.51 1054.95   2
 -13 -13   6 9524.95 1291.98   1
 -26  13   6 6344.72 884.459   4
 -26  13   6 7227.33 943.255   2
 -12 -14  -4-455.662 403.951   1
 -26  14  -4 1115.94 598.986   2
 -14  26  -4-99.7950 368.913   4
  12 -26  -4 637.671 489.486   1
 -26  14  -4 91.2004 470.785   4
 -26  14  -1 6407.62 786.998   2
 -12 -14  -1 6267.41 811.758   2
  14  12  -1 5928.07 659.905   3
 -14  26  -1 6754.31 768.799   4
 -12 -14  -1 8966.78 901.280   1
 -14  26  -1 7106.19 578.409   2
 -26  14  -1 7764.12 897.374   4
  12 -26  -1 5149.44 783.282   1
 -26  14   2 2179.47 618.334   2
  26 -12   2 1500.69 437.852   3
  12 -26   2 2022.69 751.052   1
  14  12   2 2003.77 509.003   3
 -12 -14   2 835.517 491.779   2
 -14  26   2 2134.11 603.516   3
 -14  26   2 2359.68 615.700   4
 -14  26   2 1627.56 525.724   2
 -26  14   2 1881.98 604.029   4
 -12 -14   2 2774.55 746.570   1
  26 -12   5 9624.77 1000.25   3
 -12 -14   5 6247.88 674.437   2
  14  12   5 8067.05 906.316   3
 -14  26   5 6485.21 787.489   3
  12 -26   5 7769.73 1082.76   1
 -14  26   5 9640.09 1032.86   4
 -14  26   5 9754.35 1052.64   2
 -26  14   5 6691.52 898.969   4
 -12 -14   5 10680.6 1252.12   1
 -26  14   5 7203.79 926.117   2
  11 -26  -5 2154.23 538.916   1
 -26  15  -5 3290.28 720.255   2
 -15  26  -5 2955.01 498.548   4
 -26  15  -5 3442.46 672.215   4
 -15  26  -2 188.982 270.845   2
 -11 -15  -2 35.3522 470.204   1
 -26  15  -2-230.760 477.604   2
  15  11  -2-392.609 432.957   3
 -11 -15  -2-524.987 515.396   2
 -15  26  -2 585.638 480.632   4
  11 -26  -2 327.722 495.009   1
 -26  15  -2 1249.14 540.885   4
  26 -11   1 6699.45 489.827   3
 -11 -15   1 6063.99 735.226   2
  15  11   1 5266.27 655.156   3
 -15  26   1 6442.60 783.134   3
 -15  26   1 6938.43 822.128   4
  11 -26   1 8493.92 968.446   1
 -15  26   1 6474.53 731.699   2
 -11 -15   1 7785.58 970.722   1
 -26  15   1 5674.67 791.365   4
 -26  15   1 6343.51 819.224   2
 -26  15   4-806.452 628.739   2
 -11 -15   4 184.831 672.976   1
  11 -26   4-516.197 670.126   1
  26 -11   4-480.070 450.990   3
  15  11   4 474.183 435.216   3
 -11 -15   4 585.390 434.966   2
 -15  26   4 730.355 434.922   3
 -15  26   4 626.004 547.617   4
 -15  26   4 945.848 561.037   2
 -26  15   4 511.395 520.855   4
  10 -26  -6 4912.23 634.240   1
 -26  16  -6 4947.49 874.626   2
 -16  26  -6 5148.88 591.841   4
 -26  16  -6 6563.81 846.929   4
 -16  26  -3 1557.62 289.132   2
 -10 -16  -3 3470.76 586.974   1
 -26  16  -3 2461.97 632.924   2
 -16  26  -3 3148.34 601.999   4
 -26  16  -3 2662.74 641.034   4
  10 -26  -3 1819.96 537.142   1
 -26  16   0 4367.71 683.821   2
  26 -10   0 2408.86 215.588   3
  10 -26   0 4205.24 786.881   1
  16  10   0 4495.59 597.483   3
 -10 -16   0 3523.85 631.114   2
 -16  26   0 4488.65 699.833   4
 -16  26   0 5079.27 625.502   2
 -26  16   0 4439.96 739.291   4
 -10 -16   0 4845.14 788.066   1
 -26  16   3 1701.95 657.711   2
  10 -26   3 2435.00 775.441   1
 -10 -16   3 2247.96 784.318   1
  26 -10   3 1208.60 445.295   3
  16  10   3 1195.15 449.639   3
 -10 -16   3 1747.43 474.098   2
 -16  26   3 2256.11 582.032   3
 -16  26   3 2151.44 628.523   4
 -16  26   3 2340.85 616.943   2
 -26  16   3 2788.63 679.586   4
 -10 -16   6 4583.71 1032.08   1
  26 -10   6 3808.25 797.915   3
  16  10   6 2784.41 687.399   3
 -16  26   6 2594.34 590.700   3
 -16  26   6 4692.34 857.977   4
 -26  16   6 3957.82 781.770   4
 -16  26   6 4486.60 894.663   2
  10 -26   6 5017.23 956.751   1
 -26  16   6 4050.04 774.782   2
   9 -26  -4 297.303 410.626   1
 -26  17  -4 1061.61 603.955   2
  -9 -17  -4 1200.86 405.310   1
 -17  26  -4 1119.71 457.286   4
 -26  17  -4 477.335 496.032   4
 -26  17  -1 7656.02 844.416   2
  17   9  -1 8011.95 687.265   3
 -17  26  -1 9180.99 871.407   4
   9 -26  -1 7451.32 864.681   1
 -26  17  -1 8572.28 935.736   4
 -17  26  -1 7926.80 654.370   2
  -9 -17  -1 9093.44 919.777   1
   9 -26   2 3588.46 808.143   1
 -26  17   2 3566.58 713.268   2
  -9 -17   2 5267.52 893.413   1
  26  -9   2 3774.54 486.616   3
  -9 -17   2 3739.97 594.449   2
  17   9   2 3382.82 570.881   3
 -17  26   2 3334.94 625.064   3
 -17  26   2 3992.47 699.750   4
 -26  17   2 2519.70 641.046   4
 -17  26   2 4166.34 667.694   2
  -9 -17   5 6251.85 1066.87   1
  26  -9   5 4659.47 725.827   3
  17   9   5 4189.40 730.649   3
   9 -26   5 6626.27 1024.57   1
 -17  26   5 3667.46 631.822   3
 -17  26   5 5270.94 851.325   2
 -17  26   5 4274.95 770.884   4
 -26  17   5 4690.06 794.712   4
 -26  17   5 4980.33 911.999   2
 -26  18  -5 2141.97 663.316   2
 -18  26  -5 2281.96 525.286   4
   8 -26  -5 1385.28 463.257   1
 -26  18  -5 1930.99 566.562   4
 -18  26  -2 375.767 312.975   2
 -26  18  -2 1012.34 519.662   2
  -8 -18  -2 1972.15 540.471   1
   8 -26  -2 259.786 496.284   1
  18   8  -2 652.291 373.720   3
 -18  26  -2 970.643 458.240   4
 -26  18  -2 465.543 487.882   4
   8 -26   1 5644.83 831.984   1
 -26  18   1 3827.55 719.454   2
  26  -8   1 5222.79 432.805   3
  18   8   1 4599.03 577.746   3
 -18  26   1 4617.37 684.034   4
 -26  18   1 4455.27 773.198   4
 -18  26   1 5238.71 710.374   2
  -8 -18   1 6630.83 911.352   1
 -26  18   4 460.150 528.436   2
  -8 -18   4 2917.15 852.491   1
  26  -8   4 1174.37 485.081   3
  18   8   4 724.145 457.722   3
  -8 -18   4 1248.82 423.839   2
 -18  26   4 992.974 468.825   3
 -18  26   4 1570.24 618.103   4
 -26  18   4 182.783 491.990   4
 -18  26   4 1608.28 609.648   2
   8 -26   4 97.8650 641.656   1
 -26  19  -6-75.5422 565.076   2
 -19  26  -6 1014.68 414.888   4
 -26  19  -6 1422.27 545.586   4
 -19  26  -3 5636.81 523.242   2
  -7 -19  -3 8029.61 741.647   1
 -26  19  -3 5621.20 771.330   2
 -19  26  -3 6910.25 771.985   4
 -26  19  -3 6632.70 861.875   4
   7 -26  -3 7413.35 800.654   1
 -26  19   0 5103.86 710.142   2
  19   7   0 5878.07 635.798   3
   7 -26   0 5674.47 825.930   1
 -19  26   0 6399.24 795.694   4
 -26  19   0 5089.03 774.499   4
 -19  26   0 4810.15 653.050   2
  -7 -19   0 7556.96 897.532   1
  26  -7   3 5699.04 624.876   3
  19   7   3 5406.85 688.841   3
 -19  26   3 5468.39 702.245   3
 -19  26   3 6110.28 852.542   4
 -19  26   3 6178.41 833.363   2
 -26  19   3 5804.53 831.276   4
 -26  19   3 5231.95 823.477   2
   7 -26   3 5746.95 923.733   1
  -7 -19   3 6778.83 999.743   1
  -7 -19   6 3602.45 992.828   1
  26  -7   6 1476.01 593.087   3
  19   7   6 2338.66 622.460   3
 -19  26   6 1627.88 468.987   3
 -19  26   6 1133.36 659.001   4
 -26  19   6 2366.89 663.851   4
 -19  26   6 2467.63 741.827   2
   7 -26   6 1495.03 782.952   1
 -26  19   6 1216.60 688.610   2
 -26  20  -4 4390.80 713.134   2
  -6 -20  -4 4186.91 538.122   1
 -20  26  -4 4146.93 646.113   4
 -26  20  -4 3617.13 656.819   4
   6 -26  -4 3636.60 588.367   1
 -26  20  -1 3819.65 686.738   2
  -6 -20  -1 4596.97 749.893   1
  20   6  -1 4316.66 519.253   3
   6 -26  -1 5431.22 787.501   1
 -20  26  -1 4861.73 718.709   4
 -26  20  -1 4075.88 764.795   4
 -20  26  -1 3188.39 528.511   2
 -26  20   2 4496.98 752.038   2
  26  -6   2 3457.87 453.694   3
  -6 -20   2 4714.62 885.312   1
  20   6   2 4154.52 569.022   3
 -20  26   2 3828.04 682.103   4
 -20  26   2 5019.42 754.009   2
 -26  20   2 3667.85 767.907   4
   6 -26   2 4783.13 842.129   1
  26  -6   5 3975.40 719.372   3
  -6 -20   5 4245.87 969.409   1
  20   6   5 2621.55 622.939   3
 -20  26   5 2751.46 540.445   3
 -20  26   5 3924.67 775.004   4
 -26  20   5 3932.63 772.332   4
   6 -26   5 2733.66 856.639   1
 -20  26   5 3310.80 782.925   2
 -26  20   5 4575.65 831.971   2
   5 -26  -5 901.745 472.034   1
 -26  21  -5 1348.28 549.331   2
 -21  26  -5 1081.84 491.055   4
 -26  21  -5 1303.40 595.632   4
 -21  26  -2 885.182 362.253   2
 -26  21  -2 2276.99 576.726   2
   5 -26  -2 2295.83 635.666   1
  -5 -21  -2 2537.97 608.371   1
  21   5  -2 974.797 337.207   3
 -21  26  -2 1078.09 488.045   4
 -26  21  -2 2215.80 585.549   4
 -26  21   1-648.639 531.652   2
  -5 -21   1 424.819 546.378   1
  26  -5   1 1162.35 309.351   3
  21   5   1 7.35758 363.321   3
 -21  26   1-416.409 483.428   4
 -26  21   1 893.155 577.737   4
   5 -26   1 625.101 620.095   1
 -21  26   1 378.402 485.594   2
  26  -5   4 172.426 418.484   3
  -5 -21   4 382.458 752.072   1
  21   5   4-73.6495 458.345   3
 -21  26   4 610.636 427.847   3
 -21  26   4 751.615 509.882   4
   5 -26   4 850.968 719.795   1
 -26  21   4 257.737 538.658   4
 -21  26   4 689.234 584.813   2
 -26  21   4-377.794 571.723   2
 -22  26  -3 6010.40 616.295   2
 -26  22  -3 6696.50 790.941   2
  -4 -22  -3 8543.60 790.864   1
 -22  26  -3 7603.07 842.078   4
   4 -26  -3 6275.48 758.697   1
 -26  22  -3 7367.54 862.642   4
 -22  26   0 1057.06 509.841   2
 -26  22   0 652.106 482.641   2
  -4 -22   0 2352.96 672.534   1
  22   4   0 445.053 352.105   3
 -22  26   0 2076.25 602.060   4
 -26  22   0 2622.36 680.813   4
   4 -26   0 616.782 563.498   1
  -4 -22   3 9841.20 1206.96   1
  26  -4   3 6014.61 631.663   3
   4 -26   3 7777.01 1050.67   1
  22   4   3 6618.60 710.212   3
 -22  26   3 7021.45 921.455   4
 -26  22   3 6246.62 870.853   4
 -22  26   3 7372.74 923.446   2
 -26  22   3 6132.76 864.765   2
 -26  23  -4 3243.51 621.193   2
   3 -26  -4 2293.81 536.076   1
 -23  26  -4 2505.03 634.495   4
 -26  23  -4 3639.24 699.500   4
  -3 -23  -4 2264.07 506.606   1
 -23  26  -1 493.275 420.990   2
 -26  23  -1 2160.19 596.377   2
  -3 -23  -1 2076.68 644.221   1
  23   3  -1 1101.83 352.254   3
 -23  26  -1 1266.60 537.054   4
 -26  23  -1 612.053 550.225   4
   3 -26  -1 1439.90 605.200   1
  -3 -23   2 7709.81 1033.82   1
   3 -26   2 7902.12 1034.54   1
  26  -3   2 4821.50 545.782   3
  23   3   2 4278.68 572.468   3
 -23  26   2 5378.02 819.798   4
 -26  23   2 5546.29 843.932   4
 -26  23   2 6971.83 860.178   2
 -23  26   2 5073.17 767.691   2
  26  -3   5 1545.14 553.856   3
  23   3   5 803.891 540.631   3
  -3 -23   5 1437.02 796.357   1
 -23  26   5 412.836 361.611   3
   3 -26   5 1481.30 822.491   1
 -23  26   5 1814.50 610.416   4
 -26  23   5 1571.06 557.646   4
 -23  26   5-477.308 573.100   2
 -26  23   5 1691.64 647.375   2
   2 -26  -2 1995.43 612.534   1
 -24  26  -2 1597.45 471.911   2
 -26  24  -2 1842.05 557.216   2
  -2 -24  -2 1188.75 544.654   1
 -24  26  -2 1836.80 601.916   4
 -26  24  -2 1799.32 584.095   4
 -24  26   1 2201.87 598.939   2
 -26  24   1 3194.60 729.783   2
  26  -2   1 761.585 320.261   3
  24   2   1 1471.44 404.034   3
  -2 -24   1 1980.04 715.133   1
   2 -26   1 894.802 667.418   1
 -24  26   1 1270.13 574.935   4
 -26  24   1 1324.17 573.190   4
  26  -2   4 1704.31 527.639   3
  24   2   4 851.747 472.046   3
  -2 -24   4 1196.79 721.072   1
   2 -26   4 1622.59 741.160   1
 -24  26   4 654.831 549.744   4
 -26  24   4 1227.50 586.115   4
 -24  26   4 1895.04 655.901   2
 -26  24   4 973.196 645.100   2
 -26  25  -3 5109.08 664.206   2
 -25  26  -3 3945.76 602.527   2
  -1 -25  -3 6783.49 768.342   1
   1 -26  -3 5497.08 737.097   1
 -25  26  -3 7352.29 877.227   4
 -26  25  -3 6918.75 867.351   4
 -25  26   0 173.375 464.423   2
 -26  25   0 1463.45 561.203   2
  -1 -25   0 1759.94 675.360   1
   1 -26   0 2834.72 704.568   1
 -25  26   0 377.437 554.048   4
 -26  25   0 642.084 588.820   4
  -1 -25   3 9675.23 1164.07   1
   1 -26   3 10949.6 1233.36   1
  26  -1   3 7745.57 724.286   3
  25   1   3 8500.88 777.146   3
 -25  26   3 7785.91 956.997   4
 -26  25   3 7670.27 955.662   4
 -25  26   3 10150.0 1068.81   2
 -26  25   3 7864.78 981.102   2
 -26  26  -1-32.7631 472.074   2
 -26  26  -1 683.675 546.058   4
   0 -26  -1 174.734 589.277   1
 -26  26   2 1230.25 586.514   2
  26   0   2 2046.65 441.146   3
   0 -26   2 4529.42 930.856   1
 -26  26   2 3612.51 760.822   4
  27 -27   0 2272.13 764.817   1
 -27   0   0 2999.85 805.572   2
   0  27   0 2367.14 664.226   3
 -27   0   0 3486.82 790.266   4
  26 -27  -1 3662.27 829.644   1
 -27   1  -1 4161.07 866.355   2
 -26  -1  -1 2611.33 714.113   2
   1  26  -1 4256.14 780.893   3
  -1  27  -1 2826.26 714.624   3
  27 -26  -1 3228.76 785.040   1
 -27   1  -1 4409.66 853.338   4
 -26  -1  -1 2739.63 755.892   4
 -27   1   2 1312.95 634.086   2
 -26  -1   2 649.216 592.988   2
  26 -27   2 1230.80 631.270   1
   1  26   2 308.215 524.005   3
  -1  27   2 794.970 571.783   3
  27 -26   2 987.534 663.009   1
 -27   1   2 891.116 610.865   4
 -26  -1   2 1494.26 673.903   4
 -25  -2  -2 918.937 651.137   4
 -27   2  -2-446.980 652.869   2
  25 -27  -2 1009.12 607.932   1
 -25  -2  -2 188.099 571.927   2
   2  25  -2-157.336 517.805   3
  27 -25  -2 884.558 590.992   1
 -27   2  -2 396.329 578.097   4
  27 -25   1 636.581 594.034   1
 -27   2   1 186.212 591.755   2
 -25  -2   1 1129.48 650.014   2
  25 -27   1 1929.87 754.083   1
   2  25   1 1609.45 611.546   3
  -2  27   1 806.132 564.523   3
 -27   2   1 1165.84 595.928   4
 -25  -2   1 578.888 592.007   4
 -24  -3  -3 373.683 595.413   4
 -27   3  -3 1160.81 627.356   2
 -24  -3  -3 378.179 620.758   2
  24 -27  -3 104.563 551.402   1
 -27   3  -3 1656.93 668.514   4
 -27   3   0 5072.56 860.338   2
 -24  -3   0 4236.94 820.618   2
  24 -27   0 4551.33 848.013   1
  -3  27   0 5599.75 794.937   3
   3  24   0 4163.54 747.112   3
  27 -24   0 4718.30 875.402   1
 -27   3   0 5595.27 875.783   4
 -24  -3   0 5938.42 918.683   4
 -27   3   3 627.778 628.976   2
 -24  -3   3 1822.81 688.941   2
   3  24   3 504.174 591.426   3
  -3  27   3 1961.34 626.341   3
  27 -24   3 1998.62 705.417   1
  24 -27   3 2070.08 819.378   1
 -27   3   3 1155.65 594.832   4
 -24  -3   3 2249.23 674.177   4
 -23  -4  -4 300.499 637.740   4
 -27   4  -4 106.907 632.795   2
 -23  -4  -4 129.599 593.842   2
  23 -27  -4-30.4572 577.595   1
 -27   4  -4 885.687 601.976   4
 -23  -4  -1 1828.64 638.626   4
 -27   4  -1 1703.53 634.896   2
 -23  -4  -1 1331.56 631.757   2
  23 -27  -1 1074.12 588.309   1
   4  23  -1 1640.31 637.923   3
  -4  27  -1 1170.57 577.864   3
  27 -23  -1 1268.13 592.834   1
 -27   4  -1 440.623 530.724   4
  27 -23   2 653.971 578.026   1
 -27   4   2-1378.18 666.343   2
 -23  -4   2 743.471 569.349   2
   4  23   2-690.874 508.711   3
  -4  27   2-287.479 496.863   3
  23 -27   2 433.433 572.273   1
 -27   4   2-188.608 516.858   4
 -23  -4   2-172.826 552.115   4
 -22  -5  -2 3331.75 760.586   4
 -27   5  -2 2935.70 710.548   2
 -22  -5  -2 1622.76 630.526   2
   5  22  -2 1863.63 633.276   3
  27 -22  -2 1955.12 634.998   1
  22 -27  -2 2370.40 699.251   1
 -27   5  -2 1557.12 596.201   4
 -22  -5   1 3402.26 754.604   4
 -27   5   1 3065.72 734.336   2
 -22  -5   1 2553.95 684.795   2
   5  22   1 2565.64 637.128   3
  27 -22   1 3728.44 730.738   1
  -5  27   1 2473.72 654.654   3
  22 -27   1 1297.14 578.443   1
 -27   5   1 2632.92 666.304   4
 -22  -5   4 457.050 509.078   4
 -27   5   4 1640.45 648.592   2
  22 -27   4 1969.37 726.592   1
 -22  -5   4 1320.80 592.068   2
   5  22   4 146.159 503.566   3
  -5  27   4 2119.76 618.746   3
  27 -22   4 1535.98 709.809   1
 -27   5   4 1213.69 633.531   4
 -21  -6  -3 3398.50 757.817   4
  21 -27  -3 2703.18 679.899   1
 -27   6  -3 2170.27 723.332   2
 -21  -6  -3 2709.97 776.897   2
 -27   6  -3 2785.48 717.429   4
 -27   6   0 15484.1 1219.61   2
 -21  -6   0 15844.2 1233.30   2
   6  21   0 13908.5 1080.83   3
  21 -27   0 16340.3 1294.02   1
  -6  27   0 15644.7 1146.69   3
 -27   6   0 15697.2 1267.65   4
  27 -21   0 16402.9 1282.52   1
 -21  -6   0 17696.8 1327.78   4
 -21  -6   3 519.119 556.106   4
  27 -21   3 1168.00 631.320   1
 -27   6   3 298.442 551.527   2
  21 -27   3 1914.70 666.522   1
 -21  -6   3 475.598 513.088   2
   6  21   3 1179.16 532.408   3
  -6  27   3-534.294 529.428   3
 -27   6   3 1335.62 560.486   4
 -20  -7  -4 934.902 624.966   4
  20 -27  -4-548.691 530.942   1
 -27   7  -4 96.3034 549.190   2
 -20  -7  -4 200.858 645.244   2
  -7  27  -4-170.587 429.701   4
 -27   7  -4 1154.65 637.769   4
  20 -27  -1-378.538 606.761   1
 -20  -7  -1 827.644 519.436   4
 -27   7  -1 1190.92 573.275   2
 -20  -7  -1 1127.19 663.443   2
   7  20  -1 412.405 476.991   3
  -7  27  -1 998.627 539.442   3
  -7  27  -1 468.331 350.822   2
 -27   7  -1 988.139 575.579   4
  27 -20  -1 484.538 597.270   1
 -20  -7   2 913.934 574.990   4
  20 -27   2 1068.48 601.150   1
 -27   7   2-360.570 570.324   2
 -20  -7   2 1543.23 631.049   2
   7  20   2 917.700 494.923   3
  -7  27   2 608.369 460.952   3
  27 -20   2 981.584 618.796   1
 -27   7   2 743.679 556.175   4
 -20  -7   5 1325.30 576.390   4
  27 -20   5 1404.40 752.041   3
 -27   7   5 859.936 624.637   2
 -20  -7   5 1183.95 566.861   2
   7  20   5 723.352 592.788   3
  -7  27   5 605.159 530.234   3
 -20  -7   5 1165.65 774.609   1
  20 -27   5 1461.84 787.086   1
 -27   7   5 604.993 604.003   4
  27 -20   5 1362.20 648.355   1
 -19  -8  -5 2013.38 694.309   4
  19 -27  -5 1608.01 597.839   1
 -27   8  -5 1445.51 713.963   2
 -19  -8  -5 2196.81 732.039   2
  -8  27  -5 2098.90 481.832   4
 -19  -8  -5 2143.54 534.427   1
 -27   8  -5 1589.47 659.262   4
 -19  -8  -2 2524.45 661.338   4
  19 -27  -2 1009.95 553.369   1
 -27   8  -2 2239.86 660.194   2
 -19  -8  -2 1836.35 635.473   2
   8  19  -2 977.537 531.115   3
 -27   8  -2 2035.31 636.845   4
 -19  -8   1 2699.26 668.151   4
  27 -19   1 2124.51 496.417   3
  19 -27   1 3148.89 723.823   1
 -27   8   1 3101.02 708.659   2
 -19  -8   1 1438.77 579.783   2
   8  19   1 2088.43 556.233   3
  -8  27   1 2471.11 616.777   3
  27 -19   1 2615.12 684.608   1
 -27   8   1 2528.67 698.001   4
  27 -19   4 5634.41 842.406   3
 -27   8   4 3110.51 778.347   2
 -19  -8   4 5290.55 779.068   2
  27 -19   4 4782.53 822.869   1
   8  19   4 4848.18 767.418   3
  -8  27   4 4113.05 718.704   3
 -19  -8   4 6339.31 1094.71   1
  19 -27   4 5207.12 924.140   1
 -27   8   4 5415.04 837.623   4
 -19  -8   4 6082.15 826.096   4
 -18  -9  -3 2845.59 729.879   4
 -27   9  -3 904.057 561.639   2
  18 -27  -3 1424.45 583.021   1
 -18  -9  -3 1837.39 679.725   2
  -9  27  -3 2233.94 559.704   4
 -18  -9  -3 1937.75 568.849   1
 -27   9  -3 1846.19 644.568   4
  27 -18   0 3358.93 472.234   3
 -27   9   0 3081.51 681.458   2
  18 -27   0 5076.45 806.937   1
 -18  -9   0 4046.11 756.519   2
  -9  27   0 4362.83 759.850   3
   9  18   0 3223.12 671.047   3
  -9  27   0 5653.70 642.110   2
 -18  -9   0 5094.38 846.177   1
  27 -18   0 4353.57 768.809   1
 -27   9   0 3618.00 758.509   4
 -18  -9   0 5451.19 837.620   4
 -18  -9   3 940.604 514.945   4
  27 -18   3 1215.02 550.293   3
 -27   9   3 992.448 540.927   2
 -18  -9   3 1161.34 564.024   2
   9  18   3 569.552 465.766   3
  -9  27   3 1273.47 573.947   3
  18 -27   3 396.845 640.392   1
 -18  -9   3 834.979 694.078   1
 -27   9   3 372.139 515.613   4
  27 -18   3 1114.58 612.676   1
 -17 -10  -4 4582.00 839.406   4
 -27  10  -4 5155.67 853.146   2
 -17 -10  -4 3885.68 783.662   2
 -10  27  -4 4607.02 644.237   4
  17 -27  -4 3846.54 675.609   1
 -27  10  -4 4730.53 820.317   4
 -17 -10  -4 4037.40 617.385   1
 -17 -10  -1 204.982 487.271   4
 -27  10  -1-64.0066 510.755   2
  17 -27  -1 689.519 553.888   1
 -17 -10  -1-113.410 568.648   2
  10  17  -1 1167.57 514.188   3
 -10  27  -1 724.528 518.533   4
 -10  27  -1 905.369 369.402   2
 -17 -10  -1 423.963 516.728   1
 -27  10  -1 263.174 522.960   4
 -17 -10   2 1471.48 604.125   4
  27 -17   2 1334.31 607.044   1
  27 -17   2 1489.66 486.296   3
 -27  10   2 1518.73 622.295   2
 -17 -10   2 1363.66 560.011   2
  10  17   2 1125.35 527.866   3
 -10  27   2 1281.42 565.636   3
 -10  27   2 1718.03 579.195   2
  17 -27   2 2025.03 724.737   1
 -17 -10   2 2763.51 796.586   1
 -27  10   2 1452.46 539.121   4
 -17 -10   5-265.379 462.661   4
 -27  10   5 31.7217 558.021   2
  27 -17   5 1249.85 671.476   3
 -17 -10   5 713.579 555.206   2
  10  17   5-139.600 539.674   3
  17 -27   5-502.111 693.246   1
 -10  27   5-209.707 493.098   3
  27 -17   5 344.525 533.402   1
 -27  10   5-668.199 568.725   4
 -17 -10   5 73.2569 702.889   1
  16 -27  -5 1879.64 600.526   1
 -27  11  -5 2763.43 692.023   2
 -11  27  -5 2474.90 497.919   4
 -27  11  -5 3956.72 709.757   4
 -16 -11  -2 2980.05 724.596   4
 -27  11  -2 2347.53 648.660   2
  16 -27  -2 3042.26 655.554   1
 -16 -11  -2 3599.74 774.660   2
  11  16  -2 3325.28 626.125   3
 -11  27  -2 3746.28 669.284   4
 -27  11  -2 3895.74 781.476   4
 -16 -11  -2 4314.97 696.534   1
 -27  11   1 4973.46 819.205   2
 -16 -11   1 3246.39 655.137   4
  27 -16   1 2359.88 451.562   3
 -16 -11   1 3697.21 709.054   2
  11  16   1 2107.00 567.192   3
 -11  27   1 3108.18 663.836   3
 -11  27   1 4187.44 635.416   2
  16 -27   1 2434.79 737.934   1
 -16 -11   1 4547.18 864.140   1
 -27  11   1 3173.10 747.349   4
 -16 -11   4 3783.08 679.337   4
 -27  11   4 3418.99 776.591   2
  27 -16   4 3752.18 732.242   3
 -16 -11   4 3073.99 633.439   2
  11  16   4 2030.24 568.400   3
  16 -27   4 3202.21 892.399   1
  27 -16   4 1719.81 647.514   1
 -11  27   4 2836.14 612.244   3
 -11  27   4 4445.91 829.558   2
 -27  11   4 4534.08 774.379   4
 -16 -11   4 5086.66 1017.67   1
  15 -27  -6 648.371 475.780   1
 -27  12  -6 643.318 701.271   2
 -27  12  -6 602.453 523.802   4
 -15 -12  -3 2830.36 709.541   4
 -27  12  -3 2458.04 657.894   2
 -15 -12  -3 3058.77 681.020   2
 -12  27  -3 2599.54 573.932   4
  15 -27  -3 1900.16 591.786   1
 -27  12  -3 2834.02 675.428   4
 -15 -12  -3 3142.29 598.616   1
 -15 -12   0 1535.26 604.739   4
  27 -15   0 625.652 233.377   3
 -27  12   0 398.761 504.485   2
 -15 -12   0 643.916 562.973   2
  12  15   0 1176.96 492.774   3
 -12  27   0 190.354 496.862   3
 -12  27   0 778.076 522.114   4
 -12  27   0 857.053 450.144   2
  15 -27   0 419.859 548.229   1
 -27  12   0 592.115 490.408   4
 -15 -12   0 293.673 585.569   1
 -15 -12   3 262.443 461.919   4
 -27  12   3 431.791 525.786   2
  27 -15   3-402.681 460.194   3
  27 -15   3-210.323 539.051   1
 -15 -12   3 297.185 523.353   2
  15 -27   3 606.157 638.914   1
  12  15   3 648.645 502.190   3
 -12  27   3-270.998 453.858   3
 -12  27   3-193.350 500.223   2
 -27  12   3 321.900 494.468   4
 -15 -12   3 1352.28 719.146   1
 -27  12   6 2858.35 780.851   2
  27 -15   6 4807.97 918.553   3
  15 -27   6 2514.87 947.829   1
 -15 -12   6 2706.47 582.270   2
  12  15   6 3314.32 746.668   3
  27 -15   6 2729.05 661.051   1
 -12  27   6 1776.23 604.813   3
 -12  27   6 5154.45 959.235   2
 -27  12   6 3278.84 758.049   4
 -15 -12   6 3102.22 977.292   1
 -27  13  -4 3974.52 764.580   2
 -13  27  -4 3985.25 635.703   4
  14 -27  -4 4289.22 696.665   1
 -14 -13  -4 4215.11 597.212   1
 -27  13  -4 3972.80 764.499   4
 -14 -13  -1 6312.98 846.219   4
  14 -27  -1 5857.65 830.526   1
 -27  13  -1 6131.40 817.776   2
 -14 -13  -1 5846.26 831.963   2
  13  14  -1 4790.43 674.441   3
 -13  27  -1 6332.17 780.148   4
 -14 -13  -1 5628.80 784.372   1
 -13  27  -1 5779.46 539.089   2
 -27  13  -1 5388.29 814.747   4
 -14 -13   2 4656.17 737.435   4
  27 -14   2 5297.85 602.633   3
 -27  13   2 3476.85 750.822   2
  13  14   2 4403.15 669.437   3
  14 -27   2 4597.74 868.540   1
 -14 -13   2 4619.35 686.985   2
 -13  27   2 4840.16 700.634   3
 -13  27   2 5460.10 854.123   4
 -13  27   2 5665.91 723.230   2
 -27  13   2 5197.08 843.479   4
 -14 -13   2 5110.13 867.793   1
 -27  13   5 3582.73 756.202   2
  27 -14   5 3865.79 727.439   3
  14 -27   5 3990.33 913.661   1
 -14 -13   5 1798.29 520.288   2
  13  14   5 3006.62 630.655   3
 -13  27   5 2622.85 591.940   3
 -13  27   5 2664.79 748.413   4
  27 -14   5 3853.33 776.654   1
 -13  27   5 3476.23 866.443   2
 -27  13   5 3879.86 774.042   4
 -14 -13   5 3751.09 956.433   1
 -27  14  -5 2752.35 770.590   2
  13 -27  -5 2415.44 572.609   1
 -14  27  -5 2412.13 486.587   4
 -27  14  -5 4117.81 748.469   4
  13 -27  -2 4315.56 703.621   1
 -27  14  -2 3486.09 712.238   2
 -13 -14  -2 5393.18 837.452   2
  14  13  -2 3436.10 616.084   3
 -14  27  -2 5087.49 722.242   4
 -13 -14  -2 5633.07 779.318   1
 -27  14  -2 5920.96 848.230   4
 -14  27  -2 3916.23 386.838   2
  27 -13   1 5414.34 469.866   3
 -13 -14   1 5494.72 760.505   2
  14  13   1 6076.89 740.544   3
 -14  27   1 4393.19 716.793   3
 -14  27   1 7063.07 862.939   4
 -14  27   1 7758.86 779.070   2
 -13 -14   1 8164.18 998.752   1
 -27  14   1 5224.89 770.056   4
  13 -27   1 6025.21 916.030   1
 -27  14   1 5685.09 796.849   2
 -13 -14   4 4497.23 974.978   1
 -27  14   4 3036.23 673.353   2
  27 -13   4 3850.73 670.781   3
  13 -27   4 2933.04 824.795   1
  14  13   4 3897.25 646.524   3
 -13 -14   4 4025.93 614.156   2
 -14  27   4 2872.10 654.807   3
 -14  27   4 5229.97 875.148   4
 -14  27   4 6282.44 871.296   2
 -27  14   4 3462.69 736.710   4
  12 -27  -6 2794.95 621.092   1
 -27  15  -6 2252.26 700.123   2
 -15  27  -6 1848.61 458.915   4
 -27  15  -6 2659.62 661.393   4
 -12 -15  -3 548.267 446.585   1
  12 -27  -3-641.180 511.881   1
 -27  15  -3 1307.20 568.889   2
 -15  27  -3 325.422 444.907   4
 -27  15  -3 277.023 481.314   4
 -12 -15   0 933.338 568.196   1
 -27  15   0 638.822 540.272   2
  12 -27   0 1925.62 700.360   1
  15  12   0 862.996 446.747   3
 -12 -15   0 94.9897 493.980   2
 -15  27   0 879.626 500.978   4
 -27  15   0 1326.12 567.526   4
 -15  27   0 556.730 401.800   2
 -12 -15   3 2599.83 823.232   1
 -27  15   3 2418.55 667.028   2
  12 -27   3 1749.17 788.067   1
  27 -12   3 2414.47 531.073   3
  15  12   3 1581.84 516.865   3
 -12 -15   3 1995.74 513.649   2
 -15  27   3 2219.18 586.867   3
 -15  27   3 2504.58 664.742   4
 -15  27   3 2873.10 633.135   2
 -27  15   3 3211.71 753.156   4
 -27  15   6-819.095 665.223   2
 -12 -15   6-78.7889 784.532   1
  12 -27   6 373.282 704.202   1
  27 -12   6-849.079 649.619   3
  15  12   6-99.2980 520.201   3
 -15  27   6 132.105 502.792   3
 -15  27   6 1127.52 654.163   4
 -15  27   6 618.329 600.791   2
 -27  15   6-403.547 598.678   4
 -27  16  -4 3092.57 672.433   2
  11 -27  -4 3268.24 594.980   1
 -16  27  -4 3864.96 616.637   4
 -27  16  -4 3540.60 681.238   4
 -11 -16  -4 4410.05 582.906   1
 -27  16  -1 3535.91 688.752   2
  16  11  -1 3873.03 612.629   3
 -11 -16  -1 4854.04 761.324   2
  11 -27  -1 3786.61 726.844   1
 -16  27  -1 5142.74 756.967   4
 -16  27  -1 4022.26 499.018   2
 -11 -16  -1 5642.72 793.665   1
 -27  16  -1 3363.92 708.358   4
 -11 -16   2 5031.48 885.160   1
 -27  16   2 2499.53 673.982   2
  27 -11   2 3308.17 478.873   3
  11 -27   2 4114.62 830.047   1
  16  11   2 4444.70 639.956   3
 -16  27   2 3874.04 703.341   3
 -11 -16   2 3185.26 608.784   2
 -16  27   2 3729.46 695.307   4
 -16  27   2 4256.36 688.136   2
 -27  16   2 3115.60 698.012   4
 -27  16   5 2425.75 752.756   2
  11 -27   5 4506.09 975.029   1
 -11 -16   5 5331.20 1071.85   1
  27 -11   5 3599.60 696.010   3
  16  11   5 3155.48 680.750   3
 -11 -16   5 2288.44 513.208   2
 -16  27   5 1392.78 527.943   3
 -16  27   5 3388.84 766.910   4
 -16  27   5 2791.43 781.115   2
 -27  16   5 3284.86 736.724   4
  10 -27  -5-344.029 428.926   1
 -27  17  -5 210.692 560.106   2
 -17  27  -5 276.548 379.457   4
 -27  17  -5 842.170 567.188   4
 -17  27  -2 743.327 304.124   2
 -10 -17  -2 1819.27 565.212   1
 -27  17  -2 1322.53 520.891   2
  17  10  -2 1166.00 447.756   3
  10 -27  -2 2170.11 608.495   1
 -17  27  -2 1178.64 507.216   4
 -27  17  -2 1492.65 564.475   4
 -27  17   1 1288.72 625.767   2
 -10 -17   1 889.609 616.443   1
  10 -27   1 522.577 617.259   1
  27 -10   1 1399.61 304.763   3
  17  10   1-53.0535 385.706   3
 -10 -17   1 163.910 459.641   2
 -17  27   1 581.513 499.979   4
 -27  17   1 992.020 574.883   4
 -17  27   1 1052.01 488.653   2
  10 -27   4 6020.76 989.361   1
  27 -10   4 5048.74 702.233   3
  17  10   4 4922.39 704.631   3
 -17  27   4 4197.74 684.851   3
 -10 -17   4 3221.36 517.926   2
 -17  27   4 6599.24 901.664   4
 -17  27   4 4469.44 812.772   2
 -27  17   4 3135.08 686.174   4
 -10 -17   4 6161.19 1056.44   1
 -27  17   4 4924.65 847.551   2
 -27  18  -3 750.512 501.880   2
  -9 -18  -3 1134.90 481.997   1
 -18  27  -3 1259.53 468.725   4
   9 -27  -3 780.339 484.874   1
 -27  18  -3 91.7943 552.819   4
 -27  18   0 3557.98 656.671   2
   9 -27   0 4030.96 799.860   1
  18   9   0 3384.03 546.229   3
 -18  27   0 4474.88 721.923   4
 -18  27   0 4302.75 617.276   2
 -27  18   0 3718.12 710.786   4
  -9 -18   0 5268.65 841.037   1
   9 -27   3 65.0959 632.263   1
 -27  18   3 3357.71 767.697   2
  -9 -18   3 2797.38 831.408   1
  27  -9   3 1887.62 466.830   3
  18   9   3 2346.14 535.535   3
  -9 -18   3 1100.46 456.666   2
 -18  27   3 1904.49 589.761   3
 -18  27   3 1256.65 595.679   4
 -27  18   3 3409.93 705.019   4
 -18  27   3 1847.93 649.979   2
  -8 -19  -4 4694.73 594.461   1
 -27  19  -4 4485.30 756.496   2
   8 -27  -4 5279.74 687.309   1
 -19  27  -4 4718.11 683.395   4
 -27  19  -4 4876.77 754.309   4
 -19  27  -1 2481.32 462.455   2
 -27  19  -1 3055.94 652.109   2
   8 -27  -1 4052.93 734.001   1
  19   8  -1 2324.91 512.347   3
 -19  27  -1 3431.14 665.466   4
 -27  19  -1 2670.61 651.016   4
   8 -27   2 2027.30 718.502   1
 -27  19   2 1437.24 635.288   2
  -8 -19   2 1478.88 668.234   1
  27  -8   2 808.261 347.327   3
  19   8   2 1770.84 478.576   3
 -19  27   2 1127.61 539.077   4
 -27  19   2 1557.35 598.637   4
 -19  27   2 2655.59 640.460   2
  -8 -19   5 1580.86 787.981   1
  27  -8   5 1924.96 585.491   3
  19   8   5 3368.25 697.247   3
 -19  27   5 1664.83 553.024   3
 -19  27   5 2188.35 653.431   4
 -27  19   5 1940.38 655.652   4
 -19  27   5 1163.19 655.147   2
   8 -27   5 2362.85 837.675   1
 -27  19   5 1422.88 658.367   2
 -27  20  -5 227.026 506.941   2
   7 -27  -5 890.866 445.546   1
 -20  27  -5 1222.71 421.682   4
 -27  20  -5 1236.56 559.285   4
 -20  27  -2 1304.58 396.135   2
 -27  20  -2 1221.60 531.207   2
   7 -27  -2 1320.62 587.707   1
  -7 -20  -2 1290.70 536.715   1
  20   7  -2 736.766 367.585   3
 -20  27  -2 1798.70 576.609   4
 -27  20  -2 749.731 530.322   4
   7 -27   1 983.275 656.099   1
 -27  20   1 237.708 517.790   2
  -7 -20   1 867.563 652.736   1
  27  -7   1 901.855 277.122   3
  20   7   1 749.219 379.969   3
 -20  27   1 1196.74 624.004   4
 -27  20   1 107.612 528.652   4
 -20  27   1 860.080 468.354   2
 -27  20   4 1847.42 664.891   2
  -7 -20   4 1589.04 779.642   1
  27  -7   4-92.6602 398.670   3
  20   7   4 730.673 480.772   3
 -20  27   4-491.381 495.605   3
 -20  27   4-643.575 583.998   4
 -27  20   4 1203.55 546.378   4
 -20  27   4 65.1874 518.077   2
   7 -27   4 1898.94 753.291   1
 -21  27  -3 429.138 331.058   2
 -27  21  -3 662.432 484.880   2
   6 -27  -3 1261.19 540.817   1
  -6 -21  -3 689.678 450.551   1
 -21  27  -3 1304.44 526.078   4
 -27  21  -3 342.284 535.161   4
  -6 -21   0 17877.4 1302.86   1
  21   6   0 16187.0 909.609   3
   6 -27   0 15776.7 1255.79   1
 -21  27   0 16785.0 1214.71   4
 -27  21   0 16276.2 1256.27   4
 -21  27   0 16653.0 1057.40   2
 -27  21   0 14667.0 1118.95   2
 -27  21   3 1178.98 600.439   2
  -6 -21   3 1918.12 769.336   1
  27  -6   3 1169.57 413.923   3
  21   6   3 2153.66 551.162   3
 -21  27   3 2042.07 668.805   4
 -27  21   3 3144.86 684.789   4
   6 -27   3 1663.44 747.737   1
 -21  27   3 1598.31 640.625   2
 -27  22  -4 485.865 521.630   2
   5 -27  -4 773.673 486.121   1
 -22  27  -4 1619.20 578.091   4
  -5 -22  -4 1044.69 449.969   1
 -27  22  -4 1496.35 603.272   4
 -22  27  -1 3109.78 547.274   2
   5 -27  -1 2317.97 664.430   1
 -27  22  -1 2305.05 610.116   2
  -5 -22  -1 4059.09 727.399   1
  22   5  -1 3401.56 482.672   3
 -22  27  -1 3237.01 694.315   4
 -27  22  -1 3261.38 711.642   4
 -27  22   2 2194.91 662.683   2
  -5 -22   2 3571.85 820.255   1
  27  -5   2 2172.54 409.085   3
  22   5   2 2266.14 505.312   3
 -22  27   2 2091.94 650.819   4
 -27  22   2 3123.98 713.328   4
   5 -27   2 3729.69 831.815   1
 -22  27   2 3436.28 698.637   2
 -23  27  -2 73.8508 368.816   2
   4 -27  -2-249.888 529.006   1
 -27  23  -2 29.5752 489.181   2
  -4 -23  -2 798.019 513.694   1
 -23  27  -2 114.108 465.585   4
 -27  23  -2-166.349 498.276   4
 -27  23   1 1970.25 675.694   2
  -4 -23   1 2261.11 725.671   1
  23   4   1 808.392 378.984   3
 -23  27   1 488.362 500.886   4
 -27  23   1 1068.30 568.252   4
   4 -27   1 1813.94 738.984   1
 -23  27   1 2359.99 595.302   2
  27  -4   4 128.101 423.429   3
  -4 -23   4 38.0889 689.390   1
  23   4   4-45.1903 475.678   3
 -23  27   4 809.022 607.633   4
   4 -27   4 554.090 721.006   1
 -27  23   4 1.16780 512.602   4
 -23  27   4 100.631 554.340   2
 -27  23   4-553.244 600.464   2
 -24  27  -3 923.232 441.289   2
 -27  24  -3 1707.84 545.851   2
   3 -27  -3 1270.91 588.861   1
 -24  27  -3 1147.60 571.984   4
 -27  24  -3 1685.38 609.516   4
  -3 -24  -3 1543.60 557.987   1
  -3 -24   0 7300.05 959.594   1
   3 -27   0 6561.67 921.785   1
  24   3   0 4524.59 527.036   3
 -24  27   0 6573.84 889.457   4
 -27  24   0 6947.52 917.929   4
 -24  27   0 7250.59 810.317   2
 -27  24   0 5279.22 772.411   2
 -27  24   3-167.835 580.063   2
  27  -3   3 668.769 393.473   3
  24   3   3-393.583 394.431   3
  -3 -24   3-896.192 678.847   1
   3 -27   3 634.624 712.627   1
 -24  27   3-545.236 613.176   4
 -27  24   3 1316.78 609.868   4
 -24  27   3 1631.20 663.669   2
 -25  27  -1 1428.85 507.559   2
 -27  25  -1 830.869 539.391   2
  -2 -25  -1 1305.17 649.714   1
 -25  27  -1 1047.94 596.515   4
 -27  25  -1 1324.24 624.826   4
   2 -27  -1 1189.35 631.236   1
 -27  25   2 117.241 558.255   2
  27  -2   2 407.285 334.621   3
  25   2   2 313.013 383.082   3
  -2 -25   2 1552.73 727.810   1
   2 -27   2 1274.34 697.303   1
 -25  27   2 88.1239 526.656   4
 -27  25   2 1434.10 648.490   4
 -25  27   2 520.969 558.352   2
   1 -27  -2 948.978 580.974   1
 -26  27  -2 589.533 450.286   2
 -27  26  -2 792.158 469.546   2
 -26  27  -2 1240.42 646.204   4
 -27  26  -2 562.369 518.230   4
  -1 -26  -2 1047.26 610.084   1
 -26  27   1 2336.62 693.653   2
 -27  26   1 3667.52 731.263   2
  -1 -26   1 3807.58 850.339   1
   1 -27   1 3597.92 819.193   1
 -26  27   1 3776.48 787.386   4
 -27  26   1 3129.23 747.307   4
 -27  27   0 4251.15 738.549   2
 -27  27   0 5373.88 879.871   4
   0 -27   0 5284.52 862.994   1
 -28   2   0 1808.82 687.270   2
 -26  -2   0 1672.68 675.997   2
  28 -26   0 1434.10 705.849   1
   2  26   0 1310.21 654.958   3
  -2  28   0 1815.83 646.144   3
  26 -28   0 2123.82 744.222   1
 -28   2   0 1614.96 687.510   4
 -26  -2   0 2446.33 738.848   4
 -25  -3  -1 444.560 547.423   4
 -28   3  -1-155.806 636.378   2
  28 -25  -1 584.345 607.253   1
 -25  -3  -1-852.271 683.109   2
   3  25  -1 698.248 536.553   3
  -3  28  -1 1064.86 556.591   3
  25 -28  -1 282.231 599.128   1
 -28   3  -1 850.513 615.135   4
  28 -25   2 3528.14 856.666   1
  25 -28   2 3030.04 821.324   1
 -28   3   2 1521.10 656.580   2
 -25  -3   2 2135.75 678.899   2
   3  25   2 1621.56 652.297   3
  -3  28   2 757.033 593.084   3
 -28   3   2 1861.08 670.305   4
 -25  -3   2 2179.09 726.646   4
 -24  -4  -2 524.666 594.726   4
  24 -28  -2 1282.14 633.861   1
 -28   4  -2 1317.02 706.670   2
 -24  -4  -2 822.874 623.209   2
   4  24  -2 1139.35 615.051   3
  28 -24  -2 1050.62 681.124   1
 -28   4  -2 951.402 636.807   4
 -24  -4   1 1225.40 579.790   4
  24 -28   1 1450.44 708.340   1
 -28   4   1 1277.55 643.218   2
 -24  -4   1 1714.74 692.234   2
  28 -24   1 868.407 656.263   1
   4  24   1 834.360 567.862   3
  -4  28   1 759.027 547.209   3
 -28   4   1 217.301 619.926   4
 -28   5  -3 8063.14 1031.19   2
 -23  -5  -3 8237.42 1061.80   2
  23 -28  -3 7689.67 965.499   1
 -28   5  -3 9586.28 1098.78   4
 -23  -5  -3 7465.19 1024.01   4
 -23  -5   0 4257.64 791.713   4
  28 -23   0 2171.18 672.870   1
  23 -28   0 3207.47 748.490   1
 -28   5   0 664.596 599.504   2
 -23  -5   0 3164.64 708.590   2
   5  23   0 2202.05 637.470   3
  -5  28   0 1887.15 603.371   3
 -28   5   0 2772.03 685.110   4
 -28   5   3 7533.69 1010.13   2
 -23  -5   3 8440.26 975.088   2
  28 -23   3 6645.97 951.619   1
  23 -28   3 8189.48 1045.31   1
   5  23   3 8295.85 955.587   3
  -5  28   3 6286.26 849.135   3
 -28   5   3 9689.54 1120.12   4
 -23  -5   3 8440.97 1006.70   4
 -22  -6  -4 1366.32 653.062   4
 -28   6  -4 2128.71 746.677   2
 -22  -6  -4 1244.51 666.104   2
  -6  28  -4 500.609 465.226   4
  22 -28  -4 1628.41 640.612   1
 -28   6  -4 398.706 557.617   4
 -22  -6  -1-235.264 551.289   4
  28 -22  -1 1506.02 666.772   1
 -28   6  -1 444.162 565.475   2
  22 -28  -1 748.390 558.318   1
 -22  -6  -1 1003.94 596.006   2
   6  22  -1 1027.78 522.896   3
  -6  28  -1 537.704 541.723   3
 -28   6  -1 169.076 540.283   4
 -22  -6   2 711.638 562.254   4
 -28   6   2 1029.35 630.731   2
 -22  -6   2-452.993 557.130   2
  22 -28   2 630.584 663.401   1
   6  22   2 241.209 492.347   3
  28 -22   2-346.305 646.957   1
  -6  28   2 1350.95 561.084   3
 -28   6   2 734.026 537.451   4
 -21  -7  -2 6062.83 909.065   2
 -28   7  -2 5590.97 853.563   2
   7  21  -2 6964.65 866.078   3
  21 -28  -2 5625.66 867.604   1
 -28   7  -2 4933.54 808.783   4
 -21  -7  -2 4926.10 857.039   4
 -21  -7   1 2263.25 620.781   4
 -28   7   1 1710.18 645.808   2
  28 -21   1 774.243 636.815   1
 -21  -7   1 1787.83 601.173   2
  21 -28   1 1971.28 694.024   1
   7  21   1 964.255 559.128   3
  -7  28   1 1758.99 621.627   3
 -28   7   1 1757.91 649.568   4
 -21  -7   4 4590.65 791.711   4
  21 -28   4 3594.82 796.942   1
  28 -21   4 3766.93 850.064   3
 -28   7   4 3073.93 772.621   2
  28 -21   4 4602.08 836.290   1
 -21  -7   4 2418.56 648.674   2
   7  21   4 1949.15 627.364   3
  -7  28   4 2007.16 663.317   3
 -21  -7   4 4386.70 988.710   1
 -28   7   4 4395.40 865.253   4
  20 -28  -3 7664.82 930.711   1
 -20  -8  -3 6675.16 952.608   2
 -28   8  -3 5107.87 853.964   2
  -8  28  -3 8910.45 930.519   4
 -28   8  -3 8734.84 1008.94   4
 -20  -8  -3 8368.52 1041.47   4
 -20  -8   0 3157.67 714.689   4
  28 -20   0 2079.09 423.905   3
  28 -20   0 3630.25 789.404   1
 -28   8   0 2183.90 699.252   2
 -20  -8   0 2888.70 741.182   2
  20 -28   0 2999.85 765.537   1
   8  20   0 2404.14 591.080   3
  -8  28   0 2423.11 594.192   3
  -8  28   0 4103.46 592.132   2
 -28   8   0 4082.65 806.776   4
  28 -20   3 5451.61 819.467   3
 -28   8   3 4923.79 862.229   2
 -20  -8   3 4096.67 737.064   2
   8  20   3 4921.23 767.287   3
  28 -20   3 5894.89 920.966   1
  -8  28   3 3857.20 699.742   3
 -20  -8   3 7604.19 1130.29   1
 -28   8   3 6049.68 904.419   4
 -20  -8   3 7106.89 900.366   4
  20 -28   3 5847.25 926.193   1
 -19  -9  -4 564.976 593.769   4
  19 -28  -4 352.540 533.070   1
 -28   9  -4-1198.79 606.384   2
 -19  -9  -4 221.368 667.527   2
  -9  28  -4 425.426 426.105   4
 -19  -9  -4 1372.75 537.972   1
 -28   9  -4 1132.26 626.131   4
 -19  -9  -1 1622.58 650.791   4
 -28   9  -1 1503.95 655.750   2
 -19  -9  -1 206.756 564.997   2
   9  19  -1 1125.40 561.138   3
  19 -28  -1 1647.69 639.835   1
 -19  -9  -1 2710.41 722.984   1
 -28   9  -1 1228.81 614.359   4
 -19  -9   2 691.660 548.192   4
  28 -19   2 92.9700 443.019   3
 -28   9   2-156.683 538.863   2
 -19  -9   2 806.775 579.770   2
   9  19   2 424.584 467.465   3
  -9  28   2 93.3066 481.872   3
  28 -19   2 128.319 539.344   1
 -19  -9   2-401.738 646.923   1
 -28   9   2-356.693 539.130   4
  19 -28   2-823.014 646.773   1
 -19  -9   5 1331.24 507.155   4
 -28   9   5 427.466 618.640   2
 -19  -9   5 357.294 535.912   2
   9  19   5 1289.21 593.966   3
  28 -19   5 728.145 612.978   1
  -9  28   5 214.450 519.426   3
  19 -28   5 1057.66 718.218   1
 -19  -9   5 1566.24 859.474   1
 -28   9   5 1555.96 643.036   4
 -18 -10  -5 3117.89 791.565   4
 -28  10  -5 1333.29 662.691   2
 -18 -10  -5 2444.32 764.572   2
 -10  28  -5 3988.13 616.872   4
  18 -28  -5 1641.55 592.239   1
 -28  10  -5 1940.99 685.074   4
 -28  10  -2 7532.64 957.410   2
 -18 -10  -2 10155.5 1072.25   2
  18 -28  -2 8690.70 940.484   1
  10  18  -2 8172.57 912.707   3
 -10  28  -2 11355.3 1027.29   4
 -18 -10  -2 10461.7 988.569   1
 -28  10  -2 7823.22 973.109   4
 -18 -10  -2 9432.43 1058.66   4
  28 -18   1 5256.62 855.196   1
  28 -18   1 4507.55 560.874   3
  18 -28   1 5289.27 858.076   1
 -28  10   1 3947.20 804.911   2
 -18 -10   1 5895.02 847.040   2
  10  18   1 4804.82 735.187   3
 -10  28   1 3772.43 703.208   3
 -10  28   1 6489.20 743.656   2
 -18 -10   1 4927.90 890.956   1
 -28  10   1 4756.91 796.499   4
 -18 -10   1 5371.05 839.022   4
  28 -18   4 6168.85 870.170   3
  28 -18   4 5266.90 853.964   1
 -18 -10   4 5442.47 794.555   2
  10  18   4 6895.61 860.402   3
 -10  28   4 6058.97 834.027   3
  18 -28   4 5844.37 996.312   1
 -18 -10   4 9037.82 1281.11   1
 -28  10   4 6009.77 865.226   4
 -28  10   4 5923.63 919.245   2
 -18 -10   4 8367.97 934.990   4
 -17 -11  -3 4377.51 839.029   4
  17 -28  -3 3624.58 685.592   1
 -28  11  -3 2526.16 685.375   2
 -17 -11  -3 3379.80 794.301   2
 -11  28  -3 3915.90 666.901   4
 -17 -11  -3 2836.57 632.529   1
 -28  11  -3 2636.38 700.933   4
 -17 -11   0 1049.14 595.091   4
  17 -28   0 2036.57 666.765   1
 -28  11   0 1509.50 661.414   2
 -17 -11   0 1333.26 625.026   2
  11  17   0 1486.84 509.128   3
 -11  28   0 1524.27 607.276   3
 -11  28   0 477.293 543.054   4
 -11  28   0 1213.27 474.742   2
 -17 -11   0 1034.00 635.240   1
 -28  11   0 925.295 590.958   4
 -17 -11   3 1973.28 580.047   4
 -28  11   3 1813.42 699.299   2
  28 -17   3 982.439 519.926   3
  28 -17   3 759.178 634.845   1
 -17 -11   3 984.196 519.340   2
  11  17   3 919.238 528.410   3
 -11  28   3 755.581 537.128   3
  17 -28   3 1672.64 768.079   1
 -11  28   3 1767.07 634.528   2
 -28  11   3 1445.85 606.801   4
 -17 -11   3 420.412 731.660   1
 -28  12  -4 3439.68 782.474   2
  16 -28  -4 2180.70 620.467   1
 -16 -12  -4 1931.31 729.763   2
 -12  28  -4 2370.72 553.920   4
 -28  12  -4 2998.48 703.620   4
 -16 -12  -4 2878.45 574.525   1
 -16 -12  -1 731.091 577.677   4
  16 -28  -1-96.7345 534.367   1
 -28  12  -1 877.577 555.778   2
 -16 -12  -1 984.346 615.812   2
  12  16  -1 207.476 423.919   3
 -12  28  -1-184.989 498.064   4
 -12  28  -1 224.908 310.416   2
 -28  12  -1 354.772 525.662   4
 -16 -12  -1-573.369 594.919   1
  28 -16   2 4994.42 604.031   3
 -28  12   2 4261.08 808.966   2
 -16 -12   2 4134.68 714.969   2
 -12  28   2 5231.12 797.580   3
  12  16   2 4678.37 679.674   3
  16 -28   2 4948.90 896.828   1
 -12  28   2 7691.77 861.484   2
 -12  28   2 3301.96 773.711   4
 -28  12   2 6032.64 880.614   4
 -16 -12   2 5133.83 930.127   1
 -16 -12   2 6517.15 841.406   4
 -16 -12   5 1520.18 554.371   4
 -28  12   5 287.575 594.009   2
  28 -16   5 1918.76 651.082   3
 -16 -12   5 514.996 467.348   2
  16 -28   5 1049.28 748.315   1
  12  16   5 1576.25 560.304   3
 -12  28   5 36.5016 517.841   3
 -12  28   5 1171.37 629.340   2
  28 -16   5 626.259 575.351   1
 -28  12   5 2330.78 669.967   4
 -16 -12   5 3073.46 957.388   1
 -28  13  -5 1721.51 702.063   2
 -13  28  -5 1758.94 441.112   4
 -28  13  -5 990.408 554.431   4
  15 -28  -5 2066.37 593.303   1
 -28  13  -2 5785.35 799.390   2
  15 -28  -2 5346.64 774.600   1
 -15 -13  -2 7099.64 961.836   2
  13  15  -2 6138.11 747.658   3
 -13  28  -2 6103.87 756.101   4
 -15 -13  -2 7938.03 869.737   1
 -28  13  -2 4988.87 816.472   4
 -15 -13   1 2937.94 712.024   4
 -28  13   1 1216.39 581.877   2
  28 -15   1 2214.26 412.792   3
 -15 -13   1 1725.57 587.418   2
  13  15   1 1214.72 497.032   3
 -13  28   1 2376.36 629.912   3
  15 -28   1 1999.70 712.522   1
 -13  28   1 2183.88 662.834   4
 -13  28   1 2420.58 556.044   2
 -28  13   1 2000.04 631.674   4
 -15 -13   1 3040.12 772.874   1
 -15 -13   4 9615.50 973.337   4
 -28  13   4 5588.79 879.469   2
  28 -15   4 6513.66 811.344   3
  28 -15   4 6798.03 934.103   1
 -15 -13   4 6696.46 769.615   2
  13  15   4 8635.25 911.879   3
 -13  28   4 5849.94 826.078   3
 -13  28   4 7839.39 974.189   2
 -13  28   4 4402.19 888.847   4
 -15 -13   4 10517.5 1312.31   1
  15 -28   4 7905.62 1115.52   1
 -28  13   4 7683.85 959.986   4
 -14 -14  -3 1084.07 518.557   1
 -28  14  -3 1287.18 610.014   2
  14 -28  -3 1493.34 568.009   1
 -14 -14  -3 880.278 555.701   2
 -14  28  -3 544.134 438.803   4
 -28  14  -3 984.684 599.646   4
 -28  14   0 1161.91 628.834   2
  14  14   0 1425.85 511.970   3
 -14 -14   0 3483.00 708.763   2
 -14  28   0 1863.61 585.813   4
  14 -28   0 1637.72 667.246   1
 -14  28   0 1604.67 485.114   2
 -28  14   0 2123.41 682.782   4
 -14 -14   0 1493.87 655.591   1
 -28  14   3-124.487 557.321   2
  28 -14   3 1412.12 474.581   3
  14 -28   3 1297.43 748.431   1
  14  14   3 816.415 465.158   3
 -14 -14   3 1041.27 497.704   2
 -14  28   3 895.917 549.636   3
 -14  28   3 1046.99 618.844   4
 -14  28   3 301.842 563.602   2
 -28  14   3 798.460 571.412   4
 -14 -14   3 846.531 719.362   1
 -28  15  -4 6459.09 897.333   2
  13 -28  -4 6258.14 762.547   1
 -15  28  -4 7594.96 811.684   4
 -28  15  -4 6145.29 890.208   4
 -13 -15  -4 6742.02 714.025   1
 -13 -15  -1 3571.71 714.321   1
 -28  15  -1 2714.19 638.657   2
  15  13  -1 1585.51 514.524   3
 -13 -15  -1 2459.48 657.469   2
 -15  28  -1 2368.01 611.915   4
  13 -28  -1 2938.26 697.919   1
 -28  15  -1 2523.42 652.845   4
 -15  28  -1 2396.50 423.880   2
 -28  15   2 4366.33 800.647   2
  28 -13   2 6522.00 608.717   3
 -13 -15   2 6075.97 745.963   2
  15  13   2 4870.09 684.379   3
 -15  28   2 4156.97 739.880   3
 -15  28   2 7670.18 919.116   4
 -15  28   2 7011.12 857.555   2
  13 -28   2 6557.27 989.377   1
 -13 -15   2 6462.30 961.829   1
 -28  15   2 6673.07 926.637   4
 -28  15   5 1203.13 616.442   2
 -13 -15   5 2701.42 905.240   1
  28 -13   5 2872.14 685.007   3
  13 -28   5 2784.77 893.264   1
  15  13   5 2955.32 649.080   3
 -13 -15   5 2174.30 540.237   2
 -15  28   5 1174.37 491.279   3
 -15  28   5 2634.80 734.366   2
 -28  15   5 641.066 554.874   4
 -28  16  -5 1095.21 646.235   2
  12 -28  -5 1671.15 534.381   1
 -16  28  -5 1229.07 456.490   4
 -28  16  -5 355.541 532.932   4
  12 -28  -2 5729.08 805.728   1
 -28  16  -2 5173.20 789.287   2
  16  12  -2 3766.32 616.215   3
 -16  28  -2 6350.87 816.442   4
 -28  16  -2 5166.01 801.464   4
 -12 -16  -2 5688.21 808.053   1
 -12 -16   1 1064.89 645.322   1
 -28  16   1 319.078 538.729   2
  12 -28   1 177.612 606.471   1
  16  12   1 713.527 426.242   3
 -12 -16   1-224.240 495.827   2
 -16  28   1 9.84766 477.985   4
 -16  28   1 533.827 480.728   2
 -28  16   1 303.025 573.590   4
 -28  16   4 1674.55 672.053   2
 -12 -16   4 4944.39 1002.26   1
  12 -28   4 2426.40 850.814   1
  28 -12   4 2623.23 586.669   3
  16  12   4 2588.86 574.836   3
 -12 -16   4 2215.04 511.893   2
 -16  28   4 3256.16 674.740   3
 -16  28   4 3007.12 718.281   4
 -16  28   4 3365.92 747.953   2
 -28  16   4 2948.34 702.829   4
  11 -28  -3 1244.38 568.677   1
 -11 -17  -3 1174.69 524.531   1
 -28  17  -3 1448.72 563.712   2
 -17  28  -3 436.218 460.745   4
 -28  17  -3 2369.75 682.820   4
 -11 -17   0 947.977 615.013   1
 -28  17   0 723.957 522.975   2
  17  11   0 1681.32 504.142   3
 -11 -17   0 753.407 521.793   2
 -17  28   0 1376.53 509.109   4
 -28  17   0 353.798 507.949   4
 -17  28   0 1433.18 500.425   2
 -28  17   3 2297.62 727.561   2
 -11 -17   3 3958.54 896.237   1
  11 -28   3 4123.84 878.642   1
  28 -11   3 3953.52 582.779   3
 -11 -17   3 3500.54 641.669   2
  17  11   3 2542.37 586.576   3
 -17  28   3 3310.98 664.429   3
 -17  28   3 1894.75 601.211   4
 -17  28   3 3383.46 684.538   2
 -28  17   3 2538.48 689.372   4
 -10 -18  -4 6832.25 698.785   1
 -28  18  -4 6925.47 874.982   2
  10 -28  -4 6050.84 749.143   1
 -18  28  -4 7379.77 815.649   4
 -28  18  -4 6944.27 873.626   4
 -28  18  -1 4081.97 680.357   2
  18  10  -1 4163.11 606.280   3
 -18  28  -1 6212.36 813.174   4
  10 -28  -1 5753.95 816.572   1
 -28  18  -1 3723.03 721.372   4
 -18  28  -1 4419.65 548.191   2
 -10 -18  -1 6598.17 836.569   1
  28 -10   2 7735.21 620.146   3
  18  10   2 7412.66 758.787   3
 -10 -18   2 7828.24 766.037   2
  10 -28   2 8562.32 1071.85   1
 -18  28   2 7977.44 881.304   3
 -18  28   2 8922.94 989.122   4
 -18  28   2 9737.20 978.114   2
 -28  18   2 9533.20 1028.92   4
 -10 -18   2 10542.2 1184.18   1
 -28  18   2 7549.14 909.179   2
 -28  18   5 2015.85 710.141   2
  10 -28   5 3036.39 871.501   1
 -10 -18   5 3039.65 988.936   1
  28 -10   5 2017.57 589.005   3
  18  10   5 2583.89 665.034   3
 -18  28   5 1482.27 541.371   3
 -18  28   5 2469.33 746.205   4
 -18  28   5 1951.20 700.161   2
 -28  18   5 2391.95 644.625   4
 -28  19  -5 1170.61 611.757   2
 -19  28  -5 373.865 438.832   4
 -28  19  -5 1322.08 620.357   4
   9 -28  -5 686.129 465.122   1
 -19  28  -2 325.103 316.610   2
 -28  19  -2-136.214 508.990   2
  -9 -19  -2 763.315 506.398   1
   9 -28  -2 201.046 524.850   1
  19   9  -2 147.806 385.453   3
 -19  28  -2 211.795 427.060   4
 -28  19  -2 1254.62 577.096   4
 -28  19   1 1027.36 566.899   2
   9 -28   1 1480.99 683.171   1
  -9 -19   1 1669.22 688.879   1
  19   9   1 1229.01 465.470   3
 -19  28   1 2785.93 672.505   4
 -28  19   1 1275.79 629.534   4
 -19  28   1 987.493 520.909   2
   9 -28   4 1020.68 719.385   1
 -28  19   4 131.954 546.122   2
  -9 -19   4 1469.97 801.587   1
  28  -9   4 449.407 422.318   3
  19   9   4 1386.25 538.423   3
 -19  28   4-389.420 473.818   3
 -19  28   4 495.828 558.806   4
 -28  19   4 643.843 564.862   4
 -19  28   4 911.149 577.554   2
  -8 -20  -3 5910.19 756.032   1
 -28  20  -3 3464.51 699.867   2
 -20  28  -3 6599.43 801.144   4
 -28  20  -3 5793.80 841.884   4
   8 -28  -3 4734.32 708.132   1
 -28  20   0 2982.80 700.824   2
   8 -28   0 3264.90 748.744   1
  -8 -20   0 3320.78 761.369   1
  20   8   0 2408.90 521.944   3
 -20  28   0 2994.40 674.895   4
 -28  20   0 2222.44 630.311   4
 -20  28   0 3324.23 588.264   2
  28  -8   3 6820.44 667.916   3
  20   8   3 7295.86 772.231   3
   8 -28   3 8282.11 1101.97   1
 -20  28   3 7473.20 792.376   3
 -20  28   3 7589.87 945.999   4
 -20  28   3 9457.26 988.719   2
 -28  20   3 9288.49 1038.01   4
 -28  20   3 7282.84 950.187   2
  -8 -20   3 8399.36 1149.90   1
   7 -28  -4 4216.45 661.332   1
 -28  21  -4 2513.55 656.175   2
 -21  28  -4 3918.04 684.440   4
 -28  21  -4 3945.44 786.691   4
 -21  28  -1 1369.60 462.992   2
 -28  21  -1 2060.62 569.534   2
   7 -28  -1 1359.19 630.012   1
  -7 -21  -1 3198.17 669.598   1
  21   7  -1 1140.25 429.475   3
 -21  28  -1 1626.99 563.786   4
 -28  21  -1 2039.79 639.227   4
  28  -7   2 6372.30 561.715   3
  21   7   2 5641.02 676.179   3
   7 -28   2 7345.95 1014.48   1
 -21  28   2 8185.34 929.646   4
 -28  21   2 7216.66 909.823   4
 -21  28   2 7762.49 907.031   2
 -28  21   2 6390.54 889.077   2
 -22  28  -2 781.685 434.004   2
 -28  22  -2 664.638 539.477   2
   6 -28  -2-37.9468 566.904   1
  -6 -22  -2 1183.79 573.496   1
 -22  28  -2 374.696 472.323   4
 -28  22  -2 1481.80 675.428   4
 -28  22   1 1075.89 608.140   2
  -6 -22   1 750.349 630.107   1
  22   6   1 264.063 358.208   3
 -22  28   1 1248.87 600.042   4
 -28  22   1 1282.28 620.782   4
 -22  28   1-546.785 508.763   2
   6 -28   1 255.003 627.865   1
 -28  22   4 1631.64 701.670   2
  28  -6   4 1614.04 487.164   3
  -6 -22   4 1116.66 784.220   1
  22   6   4 362.792 445.626   3
 -22  28   4-74.6080 419.009   3
 -22  28   4 1815.60 712.526   4
 -28  22   4 1613.36 625.424   4
   6 -28   4 173.011 712.401   1
 -22  28   4 1056.40 619.507   2
 -28  23  -3 5731.64 775.931   2
  -5 -23  -3 9379.35 877.456   1
 -23  28  -3 8880.21 952.482   4
 -28  23  -3 8704.23 1034.74   4
   5 -28  -3 8283.01 884.391   1
   5 -28   0 3002.96 724.305   1
 -23  28   0 3082.14 631.324   2
 -28  23   0 2356.02 660.425   2
  -5 -23   0 3411.99 758.676   1
  23   5   0 1890.50 448.474   3
 -23  28   0 2907.93 669.785   4
 -28  23   0 3536.61 798.702   4
  -5 -23   3 7811.09 1142.40   1
  28  -5   3 9096.69 744.583   3
  23   5   3 7361.65 775.941   3
   5 -28   3 10073.5 1168.91   1
 -23  28   3 7425.33 967.260   4
 -28  23   3 7974.13 986.934   4
 -23  28   3 6806.73 953.096   2
 -28  23   3 7793.93 1015.20   2
   4 -28  -1 959.100 614.862   1
 -24  28  -1 998.356 490.808   2
 -28  24  -1 527.339 527.788   2
  -4 -24  -1 1372.60 636.487   1
 -24  28  -1 1269.38 578.834   4
 -28  24  -1 1816.06 637.466   4
 -28  24   2 1269.05 677.797   2
  -4 -24   2 729.037 721.393   1
  24   4   2 1733.24 457.471   3
 -24  28   2 1774.64 642.600   4
 -28  24   2 1448.09 646.442   4
   4 -28   2 1555.95 726.397   1
 -24  28   2 819.688 617.286   2
   3 -28  -2 3773.29 754.420   1
 -25  28  -2 1990.72 494.376   2
 -28  25  -2 1638.35 577.787   2
  -3 -25  -2 2459.66 636.338   1
 -25  28  -2 3275.12 725.276   4
 -28  25  -2 2623.48 689.854   4
 -25  28   1 712.586 568.911   2
 -28  25   1-939.313 628.561   2
  25   3   1 450.532 359.258   3
  -3 -25   1-23.0584 656.092   1
 -25  28   1-22.9640 487.170   4
 -28  25   1 67.3315 545.427   4
   3 -28   1 346.094 669.783   1
 -26  28   0 2718.12 604.259   2
 -28  26   0 1915.77 624.830   2
  -2 -26   0 3772.70 787.961   1
 -26  28   0 3179.17 733.691   4
 -28  26   0 3049.11 750.571   4
   2 -28   0 3519.41 798.345   1
 -25  -4   0 108.544 557.517   4
  29 -25   0 225.350 606.903   1
 -29   4   0 828.481 629.803   2
 -25  -4   0 1153.49 686.404   2
  25 -29   0 1477.00 709.200   1
   4  25   0-794.787 595.502   3
  -4  29   0-429.083 605.648   3
 -29   4   0 825.512 626.917   4
 -24  -5  -1 2947.71 768.146   4
 -29   5  -1 1418.50 698.469   2
 -24  -5  -1 379.550 606.576   2
  29 -24  -1 836.656 622.536   1
   5  24  -1 577.148 551.989   3
  24 -29  -1 1362.67 697.535   1
  -5  29  -1 251.776 537.381   3
 -29   5  -1 1911.00 741.555   4
 -24  -5   2 2523.29 720.735   4
 -29   5   2 1017.74 646.942   2
 -24  -5   2 1204.70 619.662   2
  29 -24   2 361.144 588.840   1
   5  24   2 911.529 634.744   3
  -5  29   2 815.594 547.027   3
  24 -29   2 2304.29 744.307   1
 -29   5   2 2133.15 714.014   4
 -23  -6  -2 1980.10 718.367   4
 -29   6  -2 173.236 606.228   2
 -23  -6  -2 1157.49 669.190   2
   6  23  -2 928.630 594.114   3
  23 -29  -2 1561.12 690.923   1
 -29   6  -2 1718.25 707.087   4
 -23  -6   1 2363.22 708.552   4
  29 -23   1 1510.93 676.387   1
 -29   6   1-352.067 599.497   2
 -23  -6   1 1124.89 673.364   2
   6  23   1 1169.69 505.561   3
  -6  29   1 491.194 510.710   3
  23 -29   1 1585.95 680.851   1
 -29   6   1 1233.91 579.759   4
 -22  -7  -3 4435.97 869.264   4
  22 -29  -3 2916.00 715.285   1
 -29   7  -3 1682.59 708.043   2
 -22  -7  -3 4773.54 940.070   2
 -29   7  -3 4168.97 826.434   4
 -22  -7   0 1203.95 598.929   4
 -29   7   0 890.599 629.983   2
  29 -22   0 1596.62 722.359   1
 -22  -7   0 1130.22 572.128   2
   7  22   0 328.334 478.477   3
  -7  29   0 1420.60 623.364   3
  -7  29   0 1643.42 491.693   2
  22 -29   0 1329.57 659.757   1
 -29   7   0 2834.95 782.183   4
  29 -22   3 4042.37 757.546   3
 -29   7   3 2747.40 768.753   2
  22 -29   3 5251.34 898.525   1
 -22  -7   3 3210.72 735.470   2
   7  22   3 2498.51 614.529   3
  -7  29   3 3426.36 756.113   3
  29 -22   3 3690.69 776.308   1
 -22  -7   3 6361.09 1163.66   1
 -29   7   3 4849.68 886.390   4
 -22  -7   3 4719.65 858.186   4
 -21  -8  -1 74.8150 545.711   4
  21 -29  -1 702.303 601.362   1
 -29   8  -1 1203.38 649.980   2
 -21  -8  -1 183.569 609.191   2
   8  21  -1 278.183 509.704   3
 -29   8  -1 984.058 580.633   4
 -21  -8   2 902.493 584.663   4
  29 -21   2 211.284 475.084   3
 -29   8   2 1392.98 708.422   2
  21 -29   2 470.466 618.251   1
  29 -21   2 1436.99 635.296   1
 -21  -8   2-299.705 546.839   2
   8  21   2-1087.40 589.187   3
  -8  29   2 451.822 501.893   3
 -21  -8   2 618.268 662.258   1
 -29   8   2 601.480 599.473   4
 -20  -9  -2 3116.98 753.990   4
  20 -29  -2 1705.68 609.575   1
 -29   9  -2 4105.50 811.528   2
 -20  -9  -2 3108.78 798.581   2
   9  20  -2 2600.16 646.335   3
  -9  29  -2 2684.92 696.319   4
 -20  -9  -2 3279.86 709.325   1
 -29   9  -2 2402.10 728.779   4
 -20  -9   1 1596.14 580.251   4
  29 -20   1 1989.98 497.424   3
 -29   9   1 2450.59 714.930   2
  20 -29   1 2712.38 760.214   1
 -20  -9   1 2568.27 700.273   2
   9  20   1 2043.31 583.183   3
  -9  29   1 2527.89 626.095   3
  -9  29   1 3537.77 646.279   2
 -20  -9   1 4284.28 909.543   1
  29 -20   1 2991.83 751.148   1
 -29   9   1 3934.75 818.792   4
 -19 -10  -3 2911.75 763.280   4
 -29  10  -3 1540.01 676.640   2
  19 -29  -3 2825.19 704.914   1
 -19 -10  -3 3678.95 832.145   2
 -10  29  -3 3152.05 675.094   4
 -19 -10  -3 3418.25 660.287   1
 -29  10  -3 2891.91 712.425   4
 -19 -10   0 1830.58 677.836   4
 -29  10   0 2223.53 677.283   2
  19 -29   0 2038.15 696.898   1
 -19 -10   0 1651.73 626.770   2
  10  19   0 934.195 566.509   3
 -10  29   0 2320.22 620.337   3
 -10  29   0 2338.46 518.007   2
 -19 -10   0 3313.17 789.000   1
 -29  10   0 1448.35 631.562   4
 -19 -10   3 823.383 596.493   4
  29 -19   3 684.240 531.940   3
 -29  10   3-116.866 582.433   2
 -19 -10   3 1218.59 571.697   2
  10  19   3 726.606 493.703   3
 -10  29   3 137.372 534.244   3
 -10  29   3 1656.54 667.885   2
  29 -19   3 1325.29 680.091   1
  19 -29   3 530.078 626.516   1
 -29  10   3 1319.43 597.708   4
 -18 -11  -4 946.012 563.126   4
 -29  11  -4 1772.28 664.698   2
 -18 -11  -4 1234.35 686.986   2
 -11  29  -4 1534.31 522.124   4
  18 -29  -4 1011.78 558.503   1
 -18 -11  -4 1121.96 528.200   1
 -29  11  -4 1152.86 656.239   4
 -18 -11  -1 622.296 546.088   4
 -29  11  -1 264.048 563.116   2
  18 -29  -1 1056.75 553.151   1
 -18 -11  -1 902.433 572.084   2
  11  18  -1 340.593 526.650   3
 -11  29  -1 1039.57 562.058   4
 -18 -11  -1 1085.17 581.023   1
 -29  11  -1 1069.75 613.484   4
 -18 -11   2 1354.18 575.969   4
  29 -18   2 1330.11 486.946   3
 -29  11   2 2310.55 695.582   2
 -18 -11   2 1562.09 614.347   2
  11  18   2 927.653 495.575   3
 -11  29   2 1118.51 573.239   3
 -11  29   2 2057.85 627.184   2
  18 -29   2 2629.57 785.476   1
 -18 -11   2 3291.45 881.017   1
 -29  11   2 1453.28 625.427   4
  29 -18   2 1884.57 686.590   1
 -17 -12  -2 1333.33 647.676   4
 -29  12  -2 421.318 535.656   2
 -17 -12  -2 2754.32 726.972   2
  12  17  -2 2579.54 610.005   3
  17 -29  -2 2024.86 612.982   1
 -12  29  -2 2536.19 612.509   4
 -29  12  -2 1449.81 625.478   4
 -17 -12  -2 2470.31 659.933   1
  17 -29   1 6386.55 950.550   1
 -29  12   1 4621.36 830.946   2
 -17 -12   1 4910.32 826.956   2
  12  17   1 6276.79 773.438   3
 -12  29   1 4189.11 783.422   3
 -12  29   1 5962.11 923.888   4
 -12  29   1 7107.69 793.193   2
 -17 -12   1 7137.06 1031.47   1
 -29  12   1 5423.87 867.765   4
 -17 -12   1 6207.99 880.916   4
 -17 -12   4 105.323 524.424   4
 -29  12   4 667.614 617.119   2
  29 -17   4 799.327 578.782   3
 -17 -12   4 467.062 521.543   2
  29 -17   4 774.344 625.470   1
  12  17   4 707.041 551.801   3
  17 -29   4 1157.87 770.051   1
 -12  29   4 591.559 547.415   3
 -12  29   4 412.423 608.445   2
 -29  12   4 807.339 620.797   4
 -17 -12   4 1603.73 850.051   1
 -29  13  -3-545.171 570.705   2
 -16 -13  -3 288.774 602.576   2
 -13  29  -3 603.847 487.807   4
 -29  13  -3 1499.98 620.088   4
 -16 -13  -3 1977.42 571.035   1
  16 -29  -3 110.947 525.848   1
 -16 -13   0 4523.20 825.727   4
 -29  13   0 4000.60 784.471   2
 -16 -13   0 3829.14 749.719   2
  13  16   0 2579.44 621.310   3
 -13  29   0 5360.47 808.604   4
 -13  29   0 3423.00 561.477   2
 -29  13   0 4455.20 827.631   4
  16 -29   0 4274.03 812.291   1
 -16 -13   0 4252.83 856.928   1
 -16 -13   3 1920.24 635.097   4
 -29  13   3 737.202 631.913   2
  29 -16   3 612.675 462.013   3
 -16 -13   3 1172.32 575.155   2
  13  16   3 1093.97 529.606   3
  16 -29   3 1184.26 720.674   1
 -13  29   3 1323.53 532.869   3
 -13  29   3 287.553 608.434   4
 -13  29   3 392.264 576.024   2
 -29  13   3 830.163 573.150   4
 -16 -13   3 2082.28 834.590   1
 -15 -14  -4 2285.87 582.349   1
  15 -29  -4 1665.09 605.213   1
 -29  14  -4 2229.49 670.745   2
 -14  29  -4 2963.31 644.036   4
 -29  14  -4 2350.48 701.607   4
  15 -29  -1 8108.32 979.107   1
 -29  14  -1 6523.79 825.422   2
 -15 -14  -1 7216.20 898.094   2
  14  15  -1 7562.49 843.314   3
 -14  29  -1 8869.48 943.282   4
 -15 -14  -1 9604.54 1002.29   1
 -14  29  -1 6900.64 604.508   2
 -29  14  -1 7605.72 963.054   4
 -15 -14   2-287.947 563.826   4
 -29  14   2 208.670 568.393   2
  29 -15   2 264.872 370.563   3
  14  15   2-1002.32 508.835   3
 -15 -14   2 1176.96 589.261   2
  15 -29   2 207.810 632.066   1
 -14  29   2-76.6597 552.895   3
 -14  29   2 293.638 558.399   4
 -14  29   2 550.136 491.532   2
 -29  14   2-95.6466 523.529   4
 -15 -14   2 324.432 642.992   1
 -14 -15  -2-273.229 523.505   1
  14 -29  -2 248.708 530.968   1
 -29  15  -2-536.898 574.173   2
  15  14  -2-292.869 457.846   3
 -14 -15  -2-259.786 590.874   2
 -15  29  -2 657.940 515.330   4
 -29  15  -2 402.725 576.296   4
 -29  15   1 5085.22 843.247   2
 -14 -15   1 6768.25 848.430   2
  15  14   1 4941.16 683.584   3
 -15  29   1 7242.67 901.817   3
 -15  29   1 8360.43 935.286   4
 -15  29   1 8336.02 844.555   2
 -14 -15   1 8280.26 1038.08   1
 -29  15   1 6566.81 952.188   4
  14 -29   1 7425.46 1022.60   1
 -14 -15   4 3532.02 916.271   1
 -29  15   4 2361.44 690.731   2
  29 -14   4 1969.25 570.943   3
  14 -29   4 2137.08 841.195   1
  15  14   4 2318.36 628.154   3
 -14 -15   4 1920.55 541.551   2
 -15  29   4 2350.86 646.687   3
 -15  29   4 2661.31 760.813   4
 -15  29   4 2327.36 688.181   2
 -29  15   4 2253.33 700.389   4
 -13 -16  -3 681.611 542.356   1
 -29  16  -3-6.57501 526.866   2
  13 -29  -3 616.973 546.776   1
 -16  29  -3 13.8300 432.230   4
 -29  16  -3 782.076 557.492   4
 -13 -16   0 4619.36 836.344   1
 -29  16   0 1765.09 642.990   2
  16  13   0 2775.76 600.555   3
 -13 -16   0 4088.05 750.857   2
  13 -29   0 3513.47 800.289   1
 -16  29   0 3581.99 693.673   4
 -16  29   0 3548.03 627.149   2
 -29  16   0 2875.24 702.292   4
 -13 -16   3 990.732 687.746   1
 -29  16   3 1281.06 653.507   2
  29 -13   3 1318.84 463.964   3
  13 -29   3 1363.95 749.969   1
  16  13   3 520.057 486.645   3
 -13 -16   3 332.389 527.076   2
 -16  29   3 1311.20 585.444   3
 -16  29   3 858.998 606.580   4
 -16  29   3 807.842 575.474   2
 -29  16   3 1103.29 628.517   4
 -29  17  -4 184.529 547.129   2
  12 -29  -4 1363.20 540.723   1
 -17  29  -4 756.194 448.439   4
 -29  17  -4 1734.85 650.941   4
 -29  17  -1 6049.56 859.797   2
  17  12  -1 5393.17 696.207   3
 -12 -17  -1 6273.00 838.288   2
 -17  29  -1 8226.36 885.054   4
 -29  17  -1 7611.11 951.083   4
 -17  29  -1 6815.21 619.118   2
 -12 -17  -1 8472.51 942.238   1
  12 -29  -1 6181.22 876.465   1
 -12 -17   2 2471.93 751.089   1
 -29  17   2 1290.88 586.674   2
  12 -29   2 2228.31 793.896   1
  17  12   2 841.608 490.042   3
 -12 -17   2 1918.47 563.475   2
 -17  29   2 1782.87 603.479   3
 -17  29   2 2682.71 662.169   4
 -17  29   2 1236.21 531.027   2
 -29  17   2 1424.04 641.944   4
 -11 -18  -2 2965.19 661.062   1
 -29  18  -2 1610.54 621.474   2
  18  11  -2 730.002 491.441   3
 -18  29  -2 1081.42 481.165   4
  11 -29  -2 831.721 558.097   1
 -29  18  -2 1815.17 626.488   4
 -29  18   1 953.596 605.898   2
 -11 -18   1 754.724 657.342   1
  11 -29   1 1229.28 686.912   1
  18  11   1 427.293 433.109   3
 -11 -18   1 601.671 517.035   2
 -18  29   1-35.6867 478.524   4
 -29  18   1 1826.80 687.043   4
 -18  29   1 965.758 547.606   2
 -29  18   4 1012.90 615.076   2
  11 -29   4 780.462 768.177   1
 -11 -18   4 2790.57 881.755   1
  29 -11   4 1594.88 526.987   3
  18  11   4 424.357 466.210   3
 -18  29   4 607.068 494.045   3
 -18  29   4 1062.79 619.903   4
 -18  29   4 814.235 651.852   2
 -29  18   4 450.782 546.583   4
 -29  19  -3 2355.15 624.035   2
 -10 -19  -3 1925.68 548.326   1
 -19  29  -3 2093.82 593.583   4
 -29  19  -3 1901.69 605.894   4
  10 -29  -3 1815.92 618.658   1
 -29  19   0 962.490 573.826   2
 -10 -19   0 1693.87 664.063   1
  10 -29   0 1233.26 708.400   1
  19  10   0 1211.31 469.674   3
 -19  29   0 2736.02 676.862   4
 -29  19   0 788.515 555.947   4
 -19  29   0 1699.16 500.310   2
 -29  19   3 4373.78 785.880   2
  10 -29   3 3482.93 910.550   1
 -10 -19   3 5365.56 999.228   1
  29 -10   3 3308.71 520.452   3
  19  10   3 3584.94 624.791   3
 -10 -19   3 3377.58 586.209   2
 -19  29   3 1620.25 609.367   3
 -19  29   3 3137.47 714.614   4
 -19  29   3 5309.08 833.501   2
 -29  19   3 4020.27 813.353   4
 -20  29  -1 1276.10 459.716   2
 -29  20  -1 2414.56 664.626   2
   9 -29  -1 3257.62 727.186   1
  20   9  -1 2438.33 520.621   3
 -20  29  -1 3166.36 660.002   4
 -29  20  -1 1657.68 650.361   4
 -29  20   2 3749.80 776.455   2
   9 -29   2 3034.16 793.622   1
  -9 -20   2 3032.63 832.921   1
  20   9   2 2613.69 548.455   3
 -20  29   2 2668.69 725.383   4
 -29  20   2 4208.77 847.349   4
 -20  29   2 3905.43 748.573   2
 -29  21  -2 1568.92 594.267   2
  -8 -21  -2 131.158 567.852   1
   8 -29  -2 2240.81 658.112   1
  21   8  -2 1031.39 422.204   3
 -21  29  -2 1001.68 529.605   4
 -29  21  -2 2018.55 651.973   4
 -29  21   1-341.868 546.047   2
   8 -29   1 661.847 637.933   1
  -8 -21   1 685.964 674.120   1
  21   8   1 221.621 388.240   3
 -21  29   1-5.83798 491.251   4
 -29  21   1 226.491 527.449   4
 -21  29   1 621.752 529.331   2
 -29  22  -3 4493.79 733.207   2
  -7 -22  -3 4125.52 657.224   1
   7 -29  -3 3374.35 671.558   1
 -22  29  -3 2816.74 663.755   4
 -29  22  -3 3568.39 757.936   4
 -22  29   0 507.318 446.462   2
 -29  22   0 1072.45 580.782   2
   7 -29   0 912.110 662.056   1
  -7 -22   0 579.512 575.539   1
  22   7   0 1643.00 470.169   3
 -22  29   0 2091.55 623.800   4
 -29  22   0 2159.80 684.214   4
  -7 -22   3 6581.75 1075.24   1
 -29  22   3 4279.06 822.413   2
  22   7   3 3727.37 626.513   3
 -22  29   3 5263.61 886.438   4
 -22  29   3 5216.59 887.699   2
 -29  22   3 4768.22 833.218   4
   7 -29   3 2557.13 836.608   1
 -23  29  -1 1352.97 513.901   2
 -29  23  -1 934.516 570.379   2
   6 -29  -1 1928.31 685.537   1
  -6 -23  -1 844.086 561.861   1
 -23  29  -1 2214.28 620.327   4
 -29  23  -1 1368.34 675.446   4
 -29  23   2 1045.57 597.062   2
  -6 -23   2 1482.44 744.413   1
  23   6   2 1587.82 465.053   3
 -23  29   2 1499.58 611.313   4
 -29  23   2 1180.13 624.536   4
   6 -29   2 510.511 654.169   1
 -23  29   2 1644.41 659.208   2
 -24  29  -2 1375.01 458.795   2
 -29  24  -2 505.537 538.039   2
 -24  29  -2 1666.01 651.256   4
 -29  24  -2 1562.89 643.834   4
 -29  24   1 1539.04 653.666   2
  -5 -24   1 12.5431 622.003   1
  24   5   1 1048.09 394.802   3
 -24  29   1 1195.74 542.646   4
 -29  24   1 793.604 612.165   4
   5 -29   1 1595.24 767.811   1
 -24  29   1 1086.60 517.748   2
 -25  29   0-171.366 488.856   2
 -29  25   0-313.443 589.117   2
 -25  29   0 742.626 558.264   4
 -29  25   0 68.9304 535.093   4
 -22  -8   1 4259.63 837.097   4
  30 -22   1 2044.94 747.406   1
 -30   8   1 1664.98 690.409   2
 -22  -8   1 1265.19 606.087   2
   8  22   1 1140.57 582.942   3
  22 -30   1 2232.53 777.498   1
  -8  30   1 1903.73 612.918   3
  -8  30   1 3126.03 654.269   2
 -22  -8   1 3826.75 892.936   1
 -30   8   1 1423.86 684.954   4
 -21  -9   0 3514.49 755.417   4
 -30   9   0 3619.66 823.671   2
 -21  -9   0 2370.59 807.818   2
   9  21   0 2018.86 618.695   3
  -9  30   0 3339.02 721.737   3
  21 -30   0 2959.53 831.533   1
 -21  -9   0 3732.25 832.686   1
 -30   9   0 1654.10 653.800   4
 -20 -10  -1 321.522 554.830   4
 -30  10  -1 319.060 594.044   2
 -20 -10  -1 697.286 583.914   2
  10  20  -1 453.749 498.003   3
 -10  30  -1 170.650 521.603   4
  20 -30  -1 1166.10 613.954   1
 -20 -10  -1-349.511 587.776   1
 -30  10  -1 2133.46 746.881   4
 -20 -10   2 552.611 602.499   4
  20 -30   2-516.778 675.367   1
 -30  10   2 14.1220 561.965   2
 -20 -10   2 709.958 616.877   2
  10  20   2 680.263 510.055   3
 -10  30   2 356.707 508.534   3
 -10  30   2 467.676 555.583   2
  30 -20   2 827.511 622.984   1
 -20 -10   2 791.037 767.805   1
 -30  10   2 1821.68 638.751   4
  19 -30  -2 1370.53 572.578   1
 -19 -11  -2 2670.24 771.164   4
 -30  11  -2 1678.54 661.725   2
 -19 -11  -2 2880.57 802.491   2
  11  19  -2 1075.20 623.841   3
 -11  30  -2 3912.83 721.196   4
 -19 -11  -2 2556.44 694.776   1
 -30  11  -2 3181.48 787.200   4
  19 -30   1 4491.49 859.521   1
 -30  11   1 4236.54 795.665   2
 -19 -11   1 5633.44 911.419   2
  11  19   1 2421.51 656.489   3
 -11  30   1 3751.76 760.207   3
 -11  30   1 5238.72 732.035   2
 -19 -11   1 5788.44 1008.52   1
 -30  11   1 4641.64 862.314   4
 -19 -11   1 5940.06 909.513   4
 -18 -12  -3 1842.14 672.015   4
  18 -30  -3 420.076 536.159   1
 -30  12  -3 1859.41 704.692   2
 -18 -12  -3 936.173 705.173   2
 -12  30  -3 1737.38 579.606   4
 -30  12  -3 12.2489 588.705   4
 -18 -12  -3-306.083 537.050   1
 -18 -12   0 3651.65 754.143   4
  18 -30   0 3347.34 783.092   1
 -30  12   0 3606.18 806.923   2
 -18 -12   0 2787.62 735.799   2
  12  18   0 2086.46 563.644   3
 -12  30   0 3314.05 736.920   4
 -12  30   0 3168.11 578.252   2
 -30  12   0 2480.21 716.405   4
 -18 -12   0 2728.12 782.091   1
 -18 -12   3 2586.66 638.613   4
 -30  12   3 2606.83 803.677   2
  30 -18   3 1863.29 716.184   1
  30 -18   3 1528.21 531.364   3
 -18 -12   3 3073.44 707.200   2
  12  18   3 2005.47 612.450   3
 -12  30   3 2092.64 627.307   3
 -12  30   3 3016.61 691.033   2
  18 -30   3 1775.04 796.746   1
 -30  12   3 1692.63 647.567   4
 -18 -12   3 2555.08 904.344   1
 -17 -13  -1 5812.42 886.398   4
 -30  13  -1 5558.45 847.225   2
  17 -30  -1 6207.73 884.986   1
 -17 -13  -1 6610.75 977.394   2
  13  17  -1 4171.22 725.193   3
 -13  30  -1 6172.79 874.278   4
 -30  13  -1 5731.40 921.928   4
 -17 -13  -1 5412.81 830.277   1
 -17 -13   2 3160.86 695.965   4
 -30  13   2 1304.26 726.844   2
 -17 -13   2 2702.42 694.876   2
  13  17   2 2447.05 591.796   3
 -13  30   2 2669.43 690.770   3
 -13  30   2 3910.52 805.711   4
  17 -30   2 2791.19 763.936   1
 -13  30   2 3678.51 728.944   2
 -30  13   2 2139.18 675.621   4
 -17 -13   2 1878.97 824.000   1
 -30  14  -2 3473.06 735.061   2
  16 -30  -2 2670.24 679.571   1
 -16 -14  -2 2649.99 725.926   2
  14  16  -2 2885.75 647.242   3
 -14  30  -2 4259.40 739.642   4
 -16 -14  -2 5350.31 824.786   1
 -30  14  -2 2585.68 754.067   4
 -16 -14   1 1981.33 687.897   4
 -30  14   1 1138.54 665.117   2
 -16 -14   1 1282.37 613.015   2
  14  16   1 764.306 480.150   3
 -14  30   1 1932.01 648.510   3
 -14  30   1 1869.20 671.828   4
  16 -30   1 1474.90 722.056   1
 -14  30   1 809.622 495.160   2
 -30  14   1 2546.98 685.054   4
 -16 -14   1 2924.64 828.151   1
 -30  15  -3 2334.39 710.994   2
 -15  30  -3 4974.38 790.101   4
  15 -30  -3 3807.57 745.231   1
 -15 -15  -3 4835.95 744.581   1
 -30  15  -3 3969.20 772.850   4
 -15 -15   0 120.392 579.283   1
 -30  15   0-48.4001 556.887   2
  15  15   0-111.319 448.862   3
 -15 -15   0-476.195 566.987   2
 -15  30   0 295.389 484.505   4
  15 -30   0-1329.68 715.092   1
 -15  30   0-141.854 406.517   2
 -30  15   0 222.301 552.198   4
 -15 -15   3 5566.36 1040.57   1
 -30  15   3 3654.51 808.438   2
  30 -15   3 3973.16 637.127   3
  15 -30   3 5437.75 992.768   1
  15  15   3 3517.29 653.997   3
 -15 -15   3 3564.23 647.929   2
 -15  30   3 3902.53 764.912   3
 -15  30   3 4956.82 817.659   2
 -15  30   3 4124.74 851.259   4
 -30  15   3 5798.44 963.510   4
 -14 -16  -1 2687.45 714.447   1
 -30  16  -1 1684.88 631.984   2
  16  14  -1 1540.38 541.924   3
 -14 -16  -1 995.623 605.906   2
 -16  30  -1 1937.73 630.153   4
 -30  16  -1 1647.07 690.239   4
  14 -30  -1 1231.08 614.060   1
 -14 -16   2 4927.51 959.534   1
 -30  16   2 4036.26 818.812   2
  14 -30   2 4345.30 888.385   1
  16  14   2 3331.05 651.068   3
 -14 -16   2 3741.08 708.418   2
 -16  30   2 3401.40 738.264   3
 -16  30   2 6099.29 930.444   4
 -16  30   2 4297.50 745.824   2
 -30  16   2 4171.58 817.133   4
  13 -30  -2 3945.81 756.975   1
 -13 -17  -2 2889.76 696.216   1
 -30  17  -2 1776.27 636.723   2
  17  13  -2 1649.71 559.909   3
 -17  30  -2 1518.28 586.469   4
 -30  17  -2 2294.10 743.671   4
 -13 -17   1 5416.83 787.748   2
  13 -30   1 5481.55 964.819   1
  17  13   1 3840.33 659.959   3
 -17  30   1 6274.37 907.407   4
 -17  30   1 4990.14 738.868   2
 -13 -17   1 6824.59 1001.74   1
 -30  17   1 4400.20 848.392   4
 -30  17   1 5423.90 914.422   2
  12 -30  -3 2609.23 667.359   1
 -30  18  -3 2663.21 708.920   2
 -18  30  -3 2678.19 660.771   4
 -30  18  -3 2663.85 694.823   4
 -12 -18  -3 3962.76 707.645   1
 -12 -18   0 3622.20 787.242   1
 -30  18   0 2567.80 670.562   2
  12 -30   0 1908.76 712.464   1
  18  12   0 2539.29 589.014   3
 -12 -18   0 3630.83 734.915   2
 -18  30   0 2977.45 684.985   4
 -30  18   0 2373.12 674.741   4
 -18  30   0 3324.92 587.411   2
 -30  18   3 1155.83 638.467   2
 -12 -18   3 1333.82 742.636   1
  12 -30   3 1621.12 739.468   1
  18  12   3 562.719 452.975   3
 -12 -18   3 283.637 457.248   2
 -18  30   3 1648.26 621.576   3
 -18  30   3 540.078 546.572   4
 -18  30   3 383.306 587.392   2
 -30  18   3 573.575 581.444   4
 -30  19  -1 5110.86 815.480   2
  19  11  -1 3933.75 636.004   3
  11 -30  -1 4616.81 807.512   1
 -19  30  -1 3908.70 720.502   4
 -30  19  -1 4773.30 880.004   4
 -19  30  -1 3734.63 540.192   2
 -11 -19  -1 5662.52 852.165   1
 -30  19   2 2203.19 723.081   2
 -11 -19   2 2829.84 873.703   1
  11 -30   2 2242.87 865.544   1
  19  11   2 2282.98 531.080   3
 -11 -19   2 2163.62 613.016   2
 -19  30   2 1957.88 684.864   4
 -30  19   2 2317.85 688.760   4
 -19  30   2 3396.17 730.286   2
 -30  20  -2 1025.40 585.844   2
 -10 -20  -2 1352.13 622.976   1
  20  10  -2 854.755 476.174   3
  10 -30  -2 393.719 542.867   1
 -20  30  -2 135.594 492.069   4
 -30  20  -2 944.698 612.831   4
 -30  20   1-112.720 563.796   2
 -10 -20   1 1047.73 689.752   1
  10 -30   1 218.052 622.411   1
  20  10   1-205.139 428.051   3
 -20  30   1-708.551 540.526   4
 -30  20   1 1866.26 699.040   4
 -20  30   1 1075.61 552.892   2
 -30  21   0 2637.31 721.768   2
   9 -30   0 2613.07 783.004   1
  -9 -21   0 4153.79 846.501   1
  21   9   0 2147.90 535.047   3
 -21  30   0 3639.12 745.885   4
 -30  21   0 4429.20 864.976   4
 -21  30   0 3184.43 612.936   2
 -22  30  -1 2514.45 545.656   2
 -30  22  -1 2606.36 701.188   2
   8 -30  -1 3868.91 805.318   1
  -8 -22  -1 4367.46 773.720   1
  22   8  -1 1297.30 450.501   3
 -22  30  -1 3420.02 765.336   4
 -30  22  -1 2115.25 658.236   4
 -20 -11   0 3314.64 817.666   4
 -31  11   0 1411.73 682.425   2
  20 -31   0 1840.44 747.846   1
 -20 -11   0 2436.31 791.315   2
  11  20   0 1376.99 579.889   3
 -11  31   0 2707.32 692.827   3
 -11  31   0 1692.38 632.133   4
 -31  11   0 2920.55 787.838   4
 -19 -12  -1 757.779 620.616   4
 -31  12  -1 676.176 608.574   2
 -19 -12  -1 1432.78 717.514   2
  19 -31  -1 463.520 585.327   1
  12  19  -1 1256.64 580.982   3
 -12  31  -1 1570.63 663.695   4
 -19 -12  -1 187.558 640.121   1
 -31  12  -1 101.158 566.480   4
 -18 -13   1 3075.87 707.575   4
 -31  13   1 2199.01 725.670   2
 -18 -13   1 2372.35 692.272   2
  13  18   1 2641.04 594.307   3
 -13  31   1 2499.28 701.894   3
 -13  31   1 3260.96 807.323   4
 -13  31   1 3340.20 656.575   2
 -31  13   1 1622.59 709.191   4
 -18 -13   1 4317.66 931.352   1
  18 -31   1 3384.85 824.007   1
  17 -31   0 118.240 582.886   1
 -17 -14   0 1362.43 609.071   4
 -31  14   0 1771.34 708.208   2
 -17 -14   0 1504.41 708.436   2
  14  17   0 1158.07 524.400   3
 -14  31   0 679.518 548.098   4
 -31  14   0 1119.01 656.432   4
 -17 -14   0 2039.08 757.476   1
 -16 -15  -1 1143.45 683.879   1
  16 -31  -1-861.658 575.357   1
 -31  15  -1-397.254 642.390   2
  15  16  -1-1004.05 541.888   3
 -16 -15  -1 803.004 659.376   2
 -15  31  -1 852.742 547.904   4
 -31  15  -1 428.387 622.342   4
 -31  15   2 5089.99 863.406   2
  15  16   2 4131.38 719.844   3
 -16 -15   2 4830.17 799.232   2
 -15  31   2 2703.66 705.275   3
 -15  31   2 4578.09 882.992   4
 -15  31   2 4448.36 781.497   2
 -31  15   2 4394.08 870.957   4
  15 -31  -2 5917.84 876.109   1
 -31  16  -2 4228.27 780.951   2
  16  15  -2 4393.90 749.463   3
 -15 -16  -2 4090.23 871.237   2
 -16  31  -2 4098.77 730.201   4
 -31  16  -2 3475.67 786.568   4
 -15 -16   1 1711.31 762.821   1
 -31  16   1 1435.45 678.495   2
  16  15   1 485.552 498.747   3
 -15 -16   1 565.289 535.584   2
  15 -31   1 4.23232 670.300   1
 -16  31   1 78.3176 545.169   4
 -16  31   1-257.222 483.715   2
 -31  16   1 858.587 606.831   4
 -14 -17   0 3005.02 835.795   1
 -31  17   0 1402.48 664.430   2
  17  14   0 1029.80 512.157   3
 -14 -17   0 409.545 558.992   2
  14 -31   0 1088.55 678.350   1
 -17  31   0 964.473 590.788   4
 -31  17   0 959.251 589.662   4
 -17  31   0 1329.73 498.265   2
 -13 -18  -1 3477.70 792.765   1
 -31  18  -1 2594.91 729.766   2
  18  13  -1 2399.42 602.408   3
 -18  31  -1 3483.83 714.556   4
  13 -31  -1 4088.02 842.622   1
 -31  18  -1 2887.32 757.468   4
 -31  19   1 944.867 658.616   2
 -12 -19   1 1797.41 736.288   1
  12 -31   1 427.761 657.816   1
  19  12   1 1063.08 494.618   3
 -12 -19   1 1224.36 508.091   2
 -19  31   1 1971.89 661.952   4
 -31  19   1 1440.67 629.436   4
 -19  31   1 671.229 537.919   2
 -31  20   0 1833.02 668.790   2
  20  11   0 1748.84 530.199   3
 -20  31   0 3365.51 746.512   4
 -31  20   0 2263.97 744.421   4
 -20  31   0 3765.00 643.877   2
   0   0   0    0.00    0.00   0

TITL YY_Zn_Gly_Pyz_O-xylene in R3c
REM R3c (#161 in standard setting)
CELL 0.71073  26.422700  26.422700  10.123104  90.0000  90.0000 120.0000
ZERR   18.00   0.000713   0.000713   0.000241   0.0000   0.0000   0.0000
LATT -3
SYMM -y, x-y, z
SYMM -x+y,-x, z
SYMM -y,-x, z+1/2
SYMM -x+y, y, z+1/2
SYMM  x, x-y, z+1/2
SFAC C H N O Zn
UNIT 108.00 90.00 54.00 54.00 18.00
TREF
HKLF 4
END
;
_shelx_hkl_checksum              37049
_olex2_date_sample_data_collection 2017-04-27
_olex2_date_sample_submission    2017-04-27
_olex2_submission_special_instructions 'No special instructions were received'
_oxdiff_exptl_absorpt_empirical_details
;
Empirical correction (ABSPACK) includes:
- Absorption correction using spherical harmonics
- Frame scaling
;
_oxdiff_exptl_absorpt_empirical_full_max 1.319
_oxdiff_exptl_absorpt_empirical_full_min 0.784
loop_
_space_group_symop_operation_xyz
'x, y, z'
'-y, x-y, z'
'-x+y, -x, z'
'-x+y, y, z+1/2'
'x, x-y, z+1/2'
'-y, -x, z+1/2'
'x+2/3, y+1/3, z+1/3'
'-y+2/3, x-y+1/3, z+1/3'
'-x+y+2/3, -x+1/3, z+1/3'
'-x+y+2/3, y+1/3, z+5/6'
'x+2/3, x-y+1/3, z+5/6'
'-y+2/3, -x+1/3, z+5/6'
'x+1/3, y+2/3, z+2/3'
'-y+1/3, x-y+2/3, z+2/3'
'-x+y+1/3, -x+2/3, z+2/3'
'-x+y+1/3, y+2/3, z+7/6'
'x+1/3, x-y+2/3, z+7/6'
'-y+1/3, -x+2/3, z+7/6'
loop_
_atom_site_label
_atom_site_type_symbol
_atom_site_fract_x
_atom_site_fract_y
_atom_site_fract_z
_atom_site_U_iso_or_equiv
_atom_site_adp_type
_atom_site_occupancy
_atom_site_site_symmetry_order
_atom_site_calc_flag
_atom_site_refinement_flags_posn
_atom_site_refinement_flags_adp
_atom_site_refinement_flags_occupancy
_atom_site_disorder_assembly
_atom_site_disorder_group
Zn1 Zn -0.65660(4) -1.01854(4) 0.29053(11) 0.0196(4) Uani 1 1 d . . . . .
O2 O -0.6513(3) -1.0678(3) 0.4283(6) 0.0245(15) Uani 1 1 d . . . . .
N1 N -0.6853(4) -1.0714(4) 0.1380(8) 0.0224(18) Uani 1 1 d . U . . .
N3 N -0.7930(3) -1.2537(4) 0.0662(8) 0.0222(17) Uani 1 1 d . . . . .
H3 H -0.7817 -1.2451 0.1490 0.027 Uiso 1 1 calc R . . . .
O3 O -0.7772(3) -1.2249(3) -0.1465(7) 0.0295(17) Uani 1 1 d . U . . .
N2 N -0.7042(4) -0.9835(4) 0.3447(8) 0.0237(17) Uani 1 1 d . U . . .
O1 O -0.5759(3) -0.9547(3) 0.2673(7) 0.0229(15) Uani 1 1 d . . . . .
C2 C -0.7318(4) -1.1519(4) 0.0146(10) 0.0228(19) Uani 1 1 d . U . . .
C4 C -0.7683(4) -1.2124(4) -0.0293(10) 0.020(2) Uani 1 1 d . U . . .
C5 C -0.8377(4) -1.3115(4) 0.0304(9) 0.0220(19) Uani 1 1 d . . . . .
H5A H -0.8398 -1.3396 0.0981 0.026 Uiso 1 1 calc R . . . .
H5B H -0.8275 -1.3224 -0.0550 0.026 Uiso 1 1 calc R . . . .
C1 C -0.7145(4) -1.1288(4) 0.1420(10) 0.0221(19) Uani 1 1 d . U . . .
H1 H -0.7228 -1.1514 0.2203 0.027 Uiso 1 1 calc R . . . .
C6 C -0.8964(4) -1.3158(4) 0.0187(9) 0.0202(19) Uani 1 1 d . . . . .
C3 C -0.7103(4) -1.1027(4) -0.0630(11) 0.026(2) Uani 1 1 d . U . . .
H3A H -0.7141 -1.1030 -0.1563 0.031 Uiso 1 1 calc R . . . .
C9 C -0.5951(15) -1.1412(14) 0.138(2) 0.128(17) Uiso 0.60(3) 1 d D U P . .
H9 H -0.5881 -1.1272 0.2265 0.153 Uiso 0.60(3) 1 calc R . P . .
C8 C -0.5730(11) -1.1020(10) 0.034(3) 0.120(15) Uiso 0.60(3) 1 d DG U P . .
C7 C -0.5832(13) -1.1226(12) -0.096(2) 0.093(11) Uiso 0.60(3) 1 d DG U P . .
C12 C -0.6157(15) -1.1822(13) -0.120(3) 0.16(2) Uiso 0.60(3) 1 d G U P . .
H12 H -0.6227 -1.1963 -0.2086 0.193 Uiso 0.60(3) 1 calc R . P . .
C11 C -0.6378(13) -1.2214(10) -0.016(4) 0.145(18) Uiso 0.60(3) 1 d G U P . .
H11 H -0.6600 -1.2622 -0.0323 0.173 Uiso 0.60(3) 1 calc R . P . .
C10 C -0.6276(15) -1.2009(13) 0.114(3) 0.150(18) Uiso 0.60(3) 1 d G U P . .
H10 H -0.6427 -1.2277 0.1852 0.180 Uiso 0.60(3) 1 calc R . P . .
C14 C -0.5369(19) -1.0382(15) 0.057(5) 0.18(3) Uiso 0.60(3) 1 d D U P . .
H14A H -0.5253 -1.0176 -0.0275 0.264 Uiso 0.60(3) 1 calc R . P . .
H14B H -0.5598 -1.0248 0.1074 0.264 Uiso 0.60(3) 1 calc R . P . .
H14C H -0.5020 -1.0300 0.1078 0.264 Uiso 0.60(3) 1 calc R . P . .
C13 C -0.551(2) -1.076(2) -0.201(4) 0.137(18) Uiso 0.60(3) 1 d D U P . .
H13A H -0.5609 -1.0938 -0.2888 0.205 Uiso 0.60(3) 1 calc R . P . .
H13B H -0.5635 -1.0463 -0.1953 0.205 Uiso 0.60(3) 1 calc R . P . .
H13C H -0.5090 -1.0570 -0.1867 0.205 Uiso 0.60(3) 1 calc R . P . .
loop_
_atom_site_aniso_label
_atom_site_aniso_U_11
_atom_site_aniso_U_22
_atom_site_aniso_U_33
_atom_site_aniso_U_23
_atom_site_aniso_U_13
_atom_site_aniso_U_12
Zn1 0.0254(6) 0.0239(6) 0.0090(6) -0.0002(4) 0.0004(5) 0.0119(5)
O2 0.026(3) 0.032(4) 0.015(4) 0.002(3) 0.000(3) 0.014(3)
N1 0.031(4) 0.025(4) 0.010(4) -0.002(3) 0.000(3) 0.013(3)
N3 0.026(4) 0.026(4) 0.011(4) -0.001(3) -0.002(3) 0.011(3)
O3 0.041(4) 0.028(4) 0.011(4) 0.000(3) -0.004(3) 0.010(3)
N2 0.035(4) 0.031(4) 0.011(4) 0.001(3) 0.000(3) 0.021(4)
O1 0.025(3) 0.025(3) 0.015(4) 0.004(3) -0.004(3) 0.009(3)
C2 0.023(4) 0.024(5) 0.022(5) -0.002(4) -0.004(4) 0.013(4)
C4 0.018(4) 0.027(5) 0.014(5) -0.002(4) -0.003(3) 0.011(4)
C5 0.026(5) 0.020(4) 0.014(5) 0.000(4) 0.000(4) 0.006(4)
C1 0.030(5) 0.030(5) 0.006(4) 0.003(4) 0.003(3) 0.015(4)
C6 0.029(5) 0.017(4) 0.012(5) 0.008(3) -0.002(4) 0.009(4)
C3 0.027(5) 0.025(5) 0.019(5) -0.008(4) -0.010(4) 0.009(4)
loop_
_atom_type_symbol
_atom_type_description
_atom_type_scat_dispersion_real
_atom_type_scat_dispersion_imag
_atom_type_scat_source
C C 0.0033 0.0016 'International Tables Vol C Tables 4.2.6.8 and 6.1.1.4'
H H 0.0000 0.0000 'International Tables Vol C Tables 4.2.6.8 and 6.1.1.4'
N N 0.0061 0.0033 'International Tables Vol C Tables 4.2.6.8 and 6.1.1.4'
O O 0.0106 0.0060 'International Tables Vol C Tables 4.2.6.8 and 6.1.1.4'
Zn Zn 0.2839 1.4301 'International Tables Vol C Tables 4.2.6.8 and 6.1.1.4'
loop_
_geom_angle_atom_site_label_1
_geom_angle_atom_site_label_2
_geom_angle_atom_site_label_3
_geom_angle
_geom_angle_site_symmetry_1
_geom_angle_site_symmetry_3
_geom_angle_publ_flag
O2 Zn1 N1 102.6(3) . . ?
O2 Zn1 N2 112.8(3) . . ?
O2 Zn1 O1 104.4(3) . . ?
N1 Zn1 N2 116.2(3) . . ?
N1 Zn1 O1 112.6(3) . . ?
O1 Zn1 N2 107.6(3) . . ?
C6 O2 Zn1 138.2(6) 6_335 . ?
N2 N1 Zn1 124.6(6) 14_334 . ?
C1 N1 Zn1 126.3(7) . . ?
C1 N1 N2 108.8(8) . 14_334 ?
C4 N3 C5 119.1(8) . . ?
N1 N2 Zn1 123.7(6) 9_435 . ?
C3 N2 Zn1 129.2(7) 9_435 . ?
C3 N2 N1 107.0(8) 9_435 9_435 ?
C6 O1 Zn1 121.6(6) 17_534 . ?
C1 C2 C4 130.5(10) . . ?
C3 C2 C4 126.5(9) . . ?
C3 C2 C1 102.9(9) . . ?
N3 C4 C2 116.8(9) . . ?
O3 C4 N3 121.5(9) . . ?
O3 C4 C2 121.6(9) . . ?
N3 C5 C6 111.7(8) . . ?
N1 C1 C2 110.5(9) . . ?
O2 C6 C5 119.2(8) 6_334 . ?
O1 C6 O2 122.6(9) 11_434 6_334 ?
O1 C6 C5 118.2(8) 11_434 . ?
N2 C3 C2 110.8(9) 14_334 . ?
C8 C9 C10 120.0 . . ?
C9 C8 C7 120.0 . . ?
C9 C8 C14 121.0(11) . . ?
C7 C8 C14 119.0(11) . . ?
C8 C7 C12 120.0 . . ?
C8 C7 C13 115(3) . . ?
C12 C7 C13 125(3) . . ?
C11 C12 C7 120.0 . . ?
C10 C11 C12 120.0 . . ?
C11 C10 C9 120.0 . . ?
loop_
_geom_bond_atom_site_label_1
_geom_bond_atom_site_label_2
_geom_bond_distance
_geom_bond_site_symmetry_2
_geom_bond_publ_flag
Zn1 O2 1.961(7) . ?
Zn1 N1 1.962(8) . ?
Zn1 N2 1.975(9) . ?
Zn1 O1 1.962(6) . ?
O2 C6 1.290(11) 6_335 ?
N1 N2 1.354(12) 14_334 ?
N1 C1 1.314(13) . ?
N3 C4 1.357(13) . ?
N3 C5 1.435(12) . ?
O3 C4 1.222(13) . ?
N2 N1 1.354(12) 9_435 ?
N2 C3 1.346(13) 9_435 ?
O1 C6 1.264(12) 17_534 ?
C2 C4 1.462(14) . ?
C2 C1 1.402(14) . ?
C2 C3 1.376(15) . ?
C5 C6 1.502(13) . ?
C6 O2 1.290(11) 6_334 ?
C6 O1 1.264(12) 11_434 ?
C3 N2 1.346(13) 14_334 ?
C9 C8 1.3900 . ?
C9 C10 1.3900 . ?
C8 C7 1.3900 . ?
C8 C14 1.49(3) . ?
C7 C12 1.3900 . ?
C7 C13 1.53(3) . ?
C12 C11 1.3900 . ?
C11 C10 1.3900 . ?
