#------------------------------------------------------------------------------
#$Date: 2020-08-07 01:41:12 +0300 (Fri, 07 Aug 2020) $
#$Revision: 255125 $
#$URL: file:///home/coder/svn-repositories/cod/cif/4/13/51/4135145.cif $
#------------------------------------------------------------------------------
#
# This file is available in the Crystallography Open Database (COD),
# http://www.crystallography.net/
#
# All data on this site have been placed in the public domain by the
# contributors.
#
data_4135145
loop_
_publ_author_name
'Wen, Qiang'
'Tenenholtz, Shira'
'Shimon, Linda J. W.'
'Bar-Elli, Omri'
'Beck, Lior'
'Houben, Lothar'
'Cohen, Sidney R.'
'Feldman, Yishay'
'Oron, Dan'
'Lahav, Michal'
'van der Boom, Milko E.'
_publ_section_title
;
 Chiral and SHG-Active Metal-Organic Frameworks Formed in Solution and on
 Surfaces: Uniformity, Morphology Control, Oriented Growth, and
 Post-assembly Functionalization.
;
_journal_name_full               'Journal of the American Chemical Society'
_journal_paper_doi               10.1021/jacs.0c05384
_journal_year                    2020
_chemical_formula_moiety         'C62 H52 N4 Ni O2'
_chemical_formula_sum            'C62 H52 N4 Ni O2'
_chemical_formula_weight         943.78
_space_group_crystal_system      hexagonal
_space_group_IT_number           177
_space_group_name_Hall           'P 6 2'
_space_group_name_H-M_alt        'P 6 2 2'
_atom_sites_solution_hydrogens   geom
_audit_creation_method           SHELXL-2013
_cell_angle_alpha                90
_cell_angle_beta                 90
_cell_angle_gamma                120
_cell_formula_units_Z            6
_cell_length_a                   25.930(3)
_cell_length_b                   25.930(3)
_cell_length_c                   17.800(4)
_cell_measurement_reflns_used    45582
_cell_measurement_temperature    100(2)
_cell_measurement_theta_max      23.157
_cell_measurement_theta_min      1.5
_cell_volume                     10365(3)
_computing_cell_refinement       EDNA
_computing_data_collection       MXCube
_computing_data_reduction        EDNA
_computing_structure_refinement  'SHELXL-2013 (Sheldrick, 2013)'
_computing_structure_solution    'SHELXT-2013 (Sheldrick, 2013)'
_diffrn_ambient_temperature      100(2)
_diffrn_measured_fraction_theta_full 0.815
_diffrn_measured_fraction_theta_max 0.984
_diffrn_measurement_device_type  'single axis goniostat'
_diffrn_measurement_method       'phi scan'
_diffrn_radiation_type           synchrotron
_diffrn_radiation_wavelength     0.700
_diffrn_reflns_av_R_equivalents  0.058
_diffrn_reflns_av_unetI/netI     0.0249
_diffrn_reflns_Laue_measured_fraction_full 0.815
_diffrn_reflns_Laue_measured_fraction_max 0.984
_diffrn_reflns_limit_h_max       29
_diffrn_reflns_limit_h_min       -29
_diffrn_reflns_limit_k_max       29
_diffrn_reflns_limit_k_min       -29
_diffrn_reflns_limit_l_max       19
_diffrn_reflns_limit_l_min       -19
_diffrn_reflns_number            45582
_diffrn_reflns_point_group_measured_fraction_full 0.808
_diffrn_reflns_point_group_measured_fraction_max 0.983
_diffrn_reflns_theta_full        24.835
_diffrn_reflns_theta_max         23.157
_diffrn_reflns_theta_min         0.893
_diffrn_source                   'ESRF ID29'
_exptl_absorpt_coefficient_mu    0.304
_exptl_absorpt_correction_T_max  0.999
_exptl_absorpt_correction_T_min  0.999
_exptl_absorpt_correction_type   multi-scan
_exptl_absorpt_process_details   EDNA
_exptl_crystal_colour            'pale green-colourless'
_exptl_crystal_density_diffrn    0.907
_exptl_crystal_description       prism
_exptl_crystal_F_000             2976
_exptl_crystal_size_max          0.025
_exptl_crystal_size_mid          0.003
_exptl_crystal_size_min          0.003
_platon_squeeze_details
;
;
_refine_diff_density_max         0.625
_refine_diff_density_min         -0.310
_refine_diff_density_rms         0.062
_refine_ls_abs_structure_details
;
 Flack x determined using 1226 quotients [(I+)-(I-)]/[(I+)+(I-)]
 (Parsons and Flack (2004), Acta Cryst. A60, s61).
;
_refine_ls_abs_structure_Flack   0.059(13)
_refine_ls_extinction_method     none
_refine_ls_goodness_of_fit_ref   1.009
_refine_ls_hydrogen_treatment    constr
_refine_ls_matrix_type           full
_refine_ls_number_parameters     301
_refine_ls_number_reflns         5081
_refine_ls_number_restraints     23
_refine_ls_restrained_S_all      1.019
_refine_ls_R_factor_all          0.1036
_refine_ls_R_factor_gt           0.0872
_refine_ls_shift/su_max          0.011
_refine_ls_shift/su_mean         0.001
_refine_ls_structure_factor_coef Fsqd
_refine_ls_weighting_details
'w=1/[\s^2^(Fo^2^)+(0.2000P)^2^] where P=(Fo^2^+2Fc^2^)/3'
_refine_ls_weighting_scheme      calc
_refine_ls_wR_factor_gt          0.2467
_refine_ls_wR_factor_ref         0.2644
_reflns_Friedel_coverage         0.726
_reflns_Friedel_fraction_full    0.799
_reflns_Friedel_fraction_max     0.983
_reflns_number_gt                3543
_reflns_number_total             5081
_reflns_threshold_expression     'I > 2\s(I)'
_cod_data_source_file            ja0c05384_si_006.cif
_cod_data_source_block           v240ma-sr
_cod_database_code               4135145
_shelx_space_group_comment
;
The symmetry employed for this shelxl refinement is uniquely defined
by the following loop, which should always be used as a source of
symmetry information in preference to the above space-group names.
They are only intended as comments.
;
_shelx_estimated_absorpt_t_min   0.992
_shelx_estimated_absorpt_t_max   0.999
_shelxl_version_number           2013-4
_shelx_res_file
;
TITL v240mna_a.res in P622       New: P622
CELL  0.70  25.9300   25.9300   17.8000    90.000    90.000   120.000
ZERR        6    0.0030    0.0030    0.0040     0.000     0.000     0.000
LATT  -1
SYMM           X - Y ,              X ,              Z
SYMM             - Y ,          X - Y ,              Z
SYMM             - X ,            - Y ,              Z
SYMM         - X + Y ,            - X ,              Z
SYMM               Y ,        - X + Y ,              Z
SYMM             - Y ,            - X ,            - Z
SYMM           X - Y ,            - Y ,            - Z
SYMM               X ,          X - Y ,            - Z
SYMM               Y ,              X ,            - Z
SYMM         - X + Y ,              Y ,            - Z
SYMM             - X ,        - X + Y ,            - Z
SFAC  C  H  N Ni O
DISP C 0.003 0.002 11.182
DISP H -0 0 0.623
DISP N 0.006 0.003 18.982
DISP Ni 0.358 1.094 4388.525
DISP O 0.011 0.006 31.371
UNIT   372   312 24 6 12
L.S. 5
FMAP 2
PLAN  20
omit -2 5 0
omit -3 6 3
omit 0 4 0
omit 0 5 0
omit -1 -10 0
omit -1 2 4
omit 0 5 1
omit 0 3 0
omit 0 5 5
delu c23 > c32

ACTA
BOND $H
rem barrel NiBr2 DB Adamante
rem ESRF ID29 July 8 2016
rem wen
size 0.025 0.003 0.003
temp -173

CONF
WGHT    0.200000
FVAR       3.85152
NI1   4    1.671747    1.000000    1.000000    10.50000    0.10351    0.13895 =
         0.07809    0.01717    0.00858    0.06948
rem adamante core
C1    1    1.383728    1.158151    0.551424    11.00000    0.10195    0.10343 =
         0.07487    0.00886   -0.00322    0.04364
C2    1    1.342053    1.103317    0.504472    11.00000    0.12596    0.12486 =
         0.07915    0.02719    0.01771    0.07755
AFIX  23
H2A   2    1.366063    1.091046    0.474053    11.00000   -1.20000
H2B   2    1.316419    1.069970    0.538429    11.00000   -1.20000
AFIX   0
C3    1    1.420441    1.210221    0.500000    10.50000    0.10030    0.11814 =
         0.08690   -0.01582    0.00000    0.05015
AFIX  23
H3A   2    1.446457    1.245520    0.531011    10.50000   -1.20000
H3B   2    1.446458    1.200939    0.468989    10.50000   -1.20000
AFIX   0
C4    1    1.343543    1.172487    0.598653    11.00000    0.10327    0.09498 =
         0.07972   -0.00376    0.00050    0.04239
AFIX  23
H4A   2    1.368277    1.206964    0.631552    11.00000   -1.20000
H4B   2    1.317910    1.138000    0.631072    11.00000   -1.20000
AFIX   0
C5    1    1.264615    1.132307    0.500000    10.50000    0.10735    0.08522 =
         0.07925    0.01782    0.00000    0.05367
AFIX  23
H5A   2    1.238743    1.098635    0.533399    10.50000   -1.20000
H5B   2    1.238747    1.140113    0.466599    10.50000   -1.20000
AFIX   0
C6    1    1.303348    1.116008    0.453010    11.00000    0.10167    0.10735 =
         0.07235    0.01093    0.00494    0.05647
rem arm 1 ring 1
AFIX  66
C7    1    1.424447    1.145329    0.601570    11.00000    0.13199    0.14271 =
         0.09763    0.01845    0.00313    0.08086
C8    1    1.468515    1.137928    0.567385    11.00000    0.18312    0.33018 =
         0.10979    0.00792   -0.00490    0.19904
AFIX  43
H8    2    1.474229    1.142739    0.514580    11.00000   -1.20000
AFIX  65
C9    1    1.504222    1.123488    0.610462    11.00000    0.21279    0.26668 =
         0.13526    0.05377    0.02209    0.16846
AFIX  43
H9    2    1.534341    1.118430    0.587098    11.00000   -1.20000
AFIX  65
C10   1    1.495862    1.116449    0.687724    11.00000    0.13793    0.19662 =
         0.14188    0.03813   -0.01991    0.10916
C11   1    1.451795    1.123849    0.721909    11.00000    0.16376    0.24605 =
         0.09289    0.01403   -0.00821    0.13454
AFIX  43
H11   2    1.446081    1.119038    0.774715    11.00000   -1.20000
AFIX  65
C12   1    1.416087    1.138289    0.678834    11.00000    0.12956    0.16027 =
         0.10810    0.03385   -0.00578    0.07445
AFIX  43
H12   2    1.385968    1.143348    0.702198    11.00000   -1.20000
AFIX   0
rem double bond
C13   1    1.532557    1.097065    0.732084    11.00000    0.21605    0.27492 =
         0.12195    0.02406    0.00693    0.16183
AFIX  43
H13   2    1.553265    1.081605    0.704664    11.00000   -1.20000
AFIX   0
C14   1    1.538049    1.099488    0.800497    11.00000    0.16165    0.21991 =
         0.14533    0.02481   -0.00077    0.12245
AFIX  43
H14   2    1.516713    1.113853    0.828679    11.00000   -1.20000
AFIX   0
rem arm 1 ring 2
C15   1    1.575536    1.081576    0.841531    11.00000    0.15417    0.19911 =
         0.14520    0.03806   -0.00523    0.11755
C16   1    1.600195    1.049884    0.808237    11.00000    0.12718    0.14905 =
         0.11155    0.01714   -0.01862    0.05593
AFIX  43
H16   2    1.596055    1.040972    0.756066    11.00000   -1.20000
AFIX   0
C17   1    1.632178    1.031535    0.857398    11.00000    0.15745    0.19634 =
         0.09227    0.03513   -0.00287    0.09951
AFIX  43
H17   2    1.652788    1.013603    0.835481    11.00000   -1.20000
AFIX   0
N1    3    1.634660    1.038369    0.933685    11.00000    0.13022    0.16336 =
         0.08977    0.01571   -0.00403    0.08755
C18   1    1.609573    1.066226    0.960023    11.00000    0.18429    0.21718 =
         0.09933    0.00760    0.00058    0.14789
AFIX  43
H18   2    1.609388    1.069775    1.013129    11.00000   -1.20000
AFIX   0
C19   1    1.582460    1.091936    0.918877    11.00000    0.19735    0.27471 =
         0.11620   -0.02129   -0.03666    0.14538
AFIX  43
H19   2    1.569054    1.115857    0.942796    11.00000   -1.20000
AFIX   0
rem arm 2 ring 1
C20   1    1.264603    1.061674    0.399714    11.00000    0.13162    0.07838 =
         0.08109    0.01010   -0.00492    0.04624
C21   1    1.204536    1.033271    0.398178    11.00000    0.11952    0.09123 =
         0.08997    0.00333   -0.01461    0.03966
AFIX  43
H21   2    1.183183    1.044519    0.431384    11.00000   -1.20000
AFIX   0
C22   1    1.174917    0.987730    0.347559    11.00000    0.13512    0.10410 =
         0.09912    0.00614   -0.02260    0.04403
AFIX  43
H22   2    1.132643    0.967635    0.346174    11.00000   -1.20000
AFIX   0
C23   1    1.205094    0.970000    0.297930    11.00000    0.18960    0.10521 =
         0.09233    0.00229   -0.01402    0.07580
C24   1    1.265455    0.995216    0.305920    11.00000    0.16865    0.11228 =
         0.08755   -0.00580    0.00552    0.06999
AFIX  43
H24   2    1.285732    0.979250    0.278572    11.00000   -1.20000
AFIX   0
C25   1    1.296593    1.041879    0.351404    11.00000    0.16322    0.10924 =
         0.07383   -0.00821    0.00748    0.06874
AFIX  43
H25   2    1.338868    1.061719    0.352103    11.00000   -1.20000
AFIX   0
rem double bond
C26   1    1.178153    0.920251    0.240953    11.00000    0.16392    0.14363 =
         0.12412    0.01146   -0.00427    0.07931
AFIX  43
H26   2    1.203285    0.907928    0.217964    11.00000   -1.20000
AFIX   0
C27   1    1.125968    0.895177    0.223010    11.00000    0.12538    0.13445 =
         0.15833    0.01911    0.02069    0.05900
AFIX  43
H27   2    1.100411    0.906267    0.247503    11.00000   -1.20000
AFIX   0
rem arm 2 ring 2
C28   1    1.099683    0.847011    0.163366    11.00000    0.17268    0.10957 =
         0.11386    0.00611    0.02273    0.05561
C29   1    1.044007    0.821770    0.141466    11.00000    0.17582    0.12543 =
         0.09712   -0.01463    0.00628    0.06181
AFIX  43
H29   2    1.021887    0.839374    0.159525    11.00000   -1.20000
AFIX   0
C30   1    1.014267    0.773920    0.096486    11.00000    0.16760    0.11406 =
         0.08967   -0.01100   -0.00670    0.07684
AFIX  43
H30   2    0.972554    0.757355    0.090163    11.00000   -1.20000
AFIX   0
N2    3    1.041564    0.749140    0.060624    11.00000    0.13684    0.10314 =
         0.09130    0.00353   -0.00777    0.05551
C31   1    1.103081    0.773494    0.073582    11.00000    0.14607    0.12851 =
         0.13320   -0.00722    0.01026    0.03945
AFIX  43
H31   2    1.125601    0.758965    0.048485    11.00000   -1.20000
AFIX   0
C32   1    1.130663    0.822988    0.128492    11.00000    0.14325    0.12263 =
         0.14120    0.00831   -0.01993    0.03211
AFIX  43
H32   2    1.171592    0.839027    0.140357    11.00000   -1.20000
AFIX   0

O1    5    1.712853    1.085722    1.086926    11.00000    0.05991    0.06904 =
         0.03644   -0.00683   -0.00852    0.04248
HKLF 4 1 -1.0000 -1.0000  0.0000  0.0000  1.0000  0.0000  0.0000  0.0000 -1.0000

REM  v240mna_a.res in P622       New: P622
REM R1 =  0.0872 for    3543 Fo > 4sig(Fo)  and  0.1036 for all    5081 data
REM    301 parameters refined using     23 restraints

END

WGHT      0.2000      0.0000

REM Highest difference peak  0.625,  deepest hole -0.310,  1-sigma level  0.062
Q1    1   1.5493  1.0000  1.0000  10.50000  0.05    0.26
Q2    1   1.5905  1.0000  1.0000  10.50000  0.05    0.26
Q3    1   1.1874  0.8404  0.1049  11.00000  0.05    0.24
Q4    1   1.5012  1.1665  0.5013  11.00000  0.05    0.23
Q5    1   1.2071  0.8443  0.1399  11.00000  0.05    0.21
Q6    1   0.9449  0.7094  0.0812  11.00000  0.05    0.20
Q7    1   1.4511  1.2060  0.5900  11.00000  0.05    0.20
Q8    1   1.1075  0.7994 -0.0008  11.00000  0.05    0.20
Q9    1   1.5118  1.0183  0.7642  11.00000  0.05    0.20
Q10   1   1.2989  1.0655  0.5839  11.00000  0.05    0.20
Q11   1   1.0955  0.7749 -0.0003  11.00000  0.05    0.19
Q12   1   1.0000  1.0000  0.3263  10.16667  0.05    0.19
Q13   1   1.2764  1.0716  0.2859  11.00000  0.05    0.18
Q14   1   0.9263  0.7299  0.0233  11.00000  0.05    0.18
Q15   1   1.1296  0.7783 -0.0108  11.00000  0.05    0.18
Q16   1   1.5295  1.0284  0.6880  11.00000  0.05    0.17
Q17   1   1.4966  1.1667  0.6919  11.00000  0.05    0.17
Q18   1   1.4851  1.2732  0.4706  11.00000  0.05    0.17
Q19   1   1.4799  1.2582  0.4660  11.00000  0.05    0.17
Q20   1   1.6680  1.0817  0.9977  11.00000  0.05    0.17
;
_shelx_res_checksum              22173
_shelx_hkl_file
;
   0   0   2  589987   22900                                                      980000   56.90    1.44  1.0000
   0   0   3   94786    8143                                                      342900   71.43   -2.17  1.0000
   0   0   4   30775    2876                                                       78390  -26.57    5.93  1.0000
   0   0   5   87276    3125                                                      123200  -14.46   -6.55  1.0000
   0   0   6   10295     751                                                       20190   46.07   26.79  1.0000
   0   0   7   34523     898                                                       24260   -7.49   -6.17  1.0000
   0   0   8    6778     264                                                         708   27.13    4.87  1.0000
   0   0   9   38959    1090                                                       28370    7.52    0.80  1.0000
   0   0  10  274149    6329                                                      248600   -6.41   -0.12  1.0000
   0   0  11   17644    1192                                                       29140    9.73    0.43  1.0000
   0   0  12  168777    6696                                                      173900    1.56    0.70  1.0000
   0   0  13  173031    4441                                                      161300   -3.68   -0.23  1.0000
   0   0  14   64513    2325                                                       69370    2.37    0.82  1.0000
   0   0  15   23868    1278                                                       24480    0.51   -0.18  1.0000
   0   0  16    1354     471                                                        1732    1.32   -0.40  1.0000
   0   0  17     799     390                                                         654    1.14    0.68  1.0000
   0   0  19    4923     673                                                        4289    1.19   -0.18  1.0000
   0   0  20   15460    1667                                                       15200   -0.28    0.20  1.0000
   1   0   0  620254    1338                                                       56060 -141.57    4.98  1.0000
   1   0   1   70670     163                                                       13150   97.24   -4.82  1.0000
   1   0   2    1231      61                                                        1893   -2.04    2.87  1.0000
   1   0   3     245     194                                                       13210  -25.45    3.17  1.0000
   1   0   4  110467     366                                                       24110   46.14   -6.18  1.0000
   1   0   5    2474     122                                                        2851   -0.94   -0.42  1.0000
   1   0   6    1731     128                                                        3133    2.25   -5.62  1.0000
   1   0   7    2730      92                                                         169   16.68   -1.31  1.0000
   1   0   8   27016     591                                                       31040    3.03    0.35  1.0000
   1   0   9    4293     225                                                        4073   -0.45   -0.66  1.0000
   1   0  10     371     107                                                          79    6.83    1.44  1.0000
   1   0  11    3514     209                                                        5415   -3.67   -0.30  1.0000
   1   0  12     951     148                                                         583   -1.79   -0.83  1.0000
   1   0  13    1832     171                                                        1979    0.43    0.27  1.0000
   1   0  14      60     139                                                           3   -1.55   -0.06  1.0000
   1   0  15      98     177                                                         271   -1.66    0.58  1.0000
   1   0  16     618     174                                                         818   -0.96   -0.23  1.0000
   1   0  17     486     167                                                         833    1.74    0.35  1.0000
   1   0  18      84     160                                                         298    1.89    0.95  1.0000
   1   0  19     306     171                                                         283    0.38    1.33  1.0000
   2  -1   0 6674186    9599                                                      649300  457.52   29.48  1.0000
   2  -1   1  419036    1358                                                      133800   72.29    5.83  1.0000
   2  -1   2  361772    3326                                                      330200    6.85    3.96  1.0000
   2  -1   3   45813     308                                                       25070   14.20    3.08  1.0000
   2  -1   4   24353    1062                                                       87580  -35.50    8.22  1.0000
   2  -1   5    8953     198                                                        7165  -11.88  -18.43  1.0000
   2  -1   6    4075     191                                                        8557   -7.46    6.36  1.0000
   2  -1   7    1299      91                                                         133   11.84    2.16  1.0000
   2  -1   8     324     123                                                         646   -1.34   -1.65  1.0000
   2  -1   9     884     138                                                        1189    3.34    6.71  1.0000
   2  -1  10   36610     487                                                       30790    4.29   -2.40  1.0000
   2  -1  11   15507     370                                                       18270   -2.76    0.53  1.0000
   2  -1  12   27267     585                                                       26690    0.43    0.82  1.0000
   2  -1  13   26412     518                                                       26340    0.06   -0.19  1.0000
   2  -1  14   11718     337                                                       11700    0.00    0.46  1.0000
   2  -1  15    3743     225                                                        3255    1.05    0.28  1.0000
   2  -1  16    1903     226                                                        1432    1.49   -0.02  1.0000
   2  -1  17     216     156                                                         230   -0.01   -0.43  1.0000
   2  -1  18     254     264                                                         289   -0.22   -0.36  1.0000
   2  -1  19      72     174                                                         102    0.09   -0.83  1.0000
   2   0   0  231465     932                                                       66670   58.59  -11.17  1.0000
   2   0   1  650542    1456                                                      136000 -113.34   17.58  1.0000
   2   0   2  395585    1393                                                      141500   66.02  -12.56  1.0000
   2   0   3     520     243                                                       18060  -40.31   -0.45  1.0000
   2   0   4   32181     647                                                       58460   15.14    9.73  1.0000
   2   0   5   82352     576                                                       46420  -18.87   -7.13  1.0000
   2   0   6    5140     233                                                       11300    8.37    5.45  1.0000
   2   0   7    1030     153                                                        3318  -12.61  -10.71  1.0000
   2   0   8   22722     286                                                       12480   10.18    4.65  1.0000
   2   0   9   11526     328                                                       14220   -2.99   -1.74  1.0000
   2   0  10    5200     204                                                        5813   -0.97    2.13  1.0000
   2   0  11    1662     151                                                        2020    1.07   -0.22  1.0000
   2   0  12    2831     169                                                        2475    0.90   -0.47  1.0000
   2   0  13    3194     226                                                        3732   -1.17   -0.34  1.0000
   2   0  14      29     141                                                          74    0.79    0.46  1.0000
   2   0  15     527     168                                                         371   -0.97   -0.48  1.0000
   2   0  16      80     150                                                         -95   -2.28   -0.22  1.0000
   2   0  17      11     144                                                         -40    0.77    0.33  1.0000
   2   0  18     760     169                                                         674    0.56   -1.05  1.0000
   2   0  19     932     181                                                         656   -1.27   -0.39  1.0000
   3  -1   0  394289      68                                                        2549  152.45   16.13  1.0000
   3  -1   1  341405     450                                                       37220   58.52 -127.80  1.0000
  -3   1  -1  342386     436                                                       38160   58.52  127.80  1.0000
   3  -1   2  822748    2062                                                      211900  -96.92   80.00  1.0000
  -3   1  -2  820605    2059                                                      210700  -96.92  -80.00  1.0000
   3  -1   3   14862     131                                                        5528    3.57   12.72  1.0000
  -3   1  -3   16675     158                                                        6680    3.57  -12.72  1.0000
   3  -1   4   32592     626                                                       53390    1.63  -28.93  1.0000
  -3   1  -4   32937     630                                                       53890    1.63   28.93  1.0000
   3  -1   5   27049     811                                                       66040  -16.38   17.56  1.0000
  -3   1  -5   27934     787                                                       67420  -16.38  -17.56  1.0000
   3  -1   6   83440     876                                                       74390   14.03    3.01  1.0000
  -3   1  -6   82471     868                                                       73460   14.03   -3.01  1.0000
   3  -1   7   26795     427                                                       28140    7.90   -0.46  1.0000
  -3   1  -7   25907     415                                                       27220    7.90    0.46  1.0000
   3  -1   8    1667     128                                                        1170    3.91   11.31  1.0000
  -3   1  -8    1687     134                                                        1295    3.91  -11.31  1.0000
   3  -1   9   37200     798                                                       56150    0.03  -11.52  1.0000
  -3   1  -9   36203     818                                                       54920    0.03   11.52  1.0000
   3  -1  10    2195     161                                                        2750    2.13   -1.14  1.0000
  -3   1 -10    2108     159                                                        2651    2.13    1.14  1.0000
   3  -1  11    5806     247                                                        5908    2.44   -1.07  1.0000
  -3   1 -11    6111     256                                                        6221    2.44    1.07  1.0000
   3  -1  12    1547     149                                                         985    0.73   -3.29  1.0000
  -3   1 -12    1240     141                                                         735    0.73    3.29  1.0000
   3  -1  13    6685     300                                                        7985   -0.80    1.81  1.0000
  -3   1 -13    6724     299                                                        8028   -0.80   -1.81  1.0000
   3  -1  14    4164     226                                                        4215   -1.86   -0.37  1.0000
  -3   1 -14    3819     218                                                        3867   -1.86    0.37  1.0000
   3  -1  15     970     179                                                        1037   -0.89    0.21  1.0000
  -3   1 -15     771     176                                                         830   -0.89   -0.21  1.0000
   3  -1  16     829     196                                                         982   -0.02    0.76  1.0000
  -3   1 -16    1053     204                                                        1225   -0.02   -0.76  1.0000
   3  -1  17    1329     211                                                        1147    0.66    0.15  1.0000
  -3   1 -17     730     187                                                         597    0.66   -0.15  1.0000
   3  -1  18     434     183                                                         547    0.24   -0.61  1.0000
  -3   1 -18     476     189                                                         594    0.24    0.61  1.0000
   3  -1  19     159     182                                                         301   -1.22   -0.09  1.0000
  -3   1 -19      16     170                                                          76   -1.22    0.09  1.0000
   3   0   0   81578    2810                                                      205200  -10.31   49.77  1.0000
   3   0   1 2041932   13000                                                     1245000  -80.79  -21.77  1.0000
   3   0   2  781832   10510                                                     1100000   41.72   11.58  1.0000
   3   0   3  897343    6264                                                      496800  -62.15   -2.96  1.0000
   3   0   4  162182    1473                                                      131500  -10.62    3.72  1.0000
   3   0   5    1390     215                                                       11890  -11.06  -26.44  1.0000
   3   0   6   99392     754                                                       62030  -17.17    2.14  1.0000
   3   0   7    5852     230                                                       10050    6.54   -3.08  1.0000
   3   0   8   29207     402                                                       25680   -2.96    1.62  1.0000
   3   0   9   87976    1039                                                       79450   -4.07    3.56  1.0000
   3   0  10   52048     885                                                       62160    5.55   -2.52  1.0000
   3   0  11  106822    1314                                                      101200   -2.28    0.78  1.0000
   3   0  12   53508     793                                                       50970   -1.49    0.99  1.0000
   3   0  13   38452     658                                                       41900    2.24   -0.69  1.0000
   3   0  14   40305     687                                                       40080   -0.16    0.31  1.0000
   3   0  15    9046     322                                                        9375    0.41    0.41  1.0000
   3   0  16    7512     315                                                        8063    0.78    0.35  1.0000
   3   0  17    6508     297                                                        5910   -0.94   -0.49  1.0000
   3   0  18      63     179                                                          90    0.37    0.17  1.0000
   3   0  19    2735     255                                                        3066    0.83   -0.95  1.0000
   4  -2   0    2399     103                                                        2622  -19.77   14.76  1.0000
   4  -2   1  138787    5581                                                      582700 -100.29    0.98  1.0000
   4  -2   2   18434    1071                                                      106600   48.87   -2.43  1.0000
   4  -2   3  964877   21980                                                     1760000  -88.36    1.05  1.0000
   4  -2   4    3505      82                                                         924    7.15    3.19  1.0000
   4  -2   5    5779     336                                                       22430   10.49  -32.18  1.0000
   4  -2   6   23145     536                                                       42960  -14.23    2.37  1.0000
   4  -2   7   26106     378                                                       19000    6.34   -3.58  1.0000
   4  -2   8    4109     163                                                        2893    2.49    2.25  1.0000
   4  -2   9   19472     396                                                       23410   -3.50    1.01  1.0000
   4  -2  10   21821     312                                                       14390    7.26   -1.42  1.0000
   4  -2  11   21845     463                                                       23510   -1.46    1.24  1.0000
   4  -2  12   14825     442                                                       14970   -0.15   -0.07  1.0000
   4  -2  13    6247     268                                                        7401   -1.75   -0.61  1.0000
   4  -2  14   13621     409                                                       11900    1.93    0.72  1.0000
   4  -2  15    1508     224                                                        1616   -0.36    0.14  1.0000
   4  -2  16     136     162                                                         200   -0.62   -0.10  1.0000
   4  -2  17    2412     220                                                        2510   -0.27    0.21  1.0000
   4  -2  18      30     160                                                         110    1.34   -0.01  1.0000
   4  -2  19    2208     414                                                        2368   -0.43   -0.02  1.0000
   4  -1   0  326121    1276                                                      129400  -57.13  -29.12  1.0000
   4  -1   1  105688      94                                                        4481   -9.26   73.38  1.0000
  -4   1  -1  105813     124                                                        4298   -9.26  -73.38  1.0000
   4  -1   2  103190     613                                                       52710  -41.91  -77.07  1.0000
  -4   1  -2  100564     562                                                       50490  -41.91   77.07  1.0000
   4  -1   3  183936    2535                                                      223600   12.25   -8.15  1.0000
  -4   1  -3  190302    2968                                                      230600   12.25    8.15  1.0000
   4  -1   4    2861     255                                                       13790   -5.58   15.58  1.0000
  -4   1  -4    2434     224                                                       12840   -5.58  -15.58  1.0000
   4  -1   5   38476     666                                                       51800  -19.83  -20.92  1.0000
  -4   1  -5   37573     627                                                       51170  -19.83   20.92  1.0000
   4  -1   6    8513     264                                                       14000   -5.13   -4.52  1.0000
  -4   1  -6    9070     286                                                       14730   -5.13    4.52  1.0000
   4  -1   7     110     114                                                         664    1.35    5.69  1.0000
  -4   1  -7     114     117                                                         669    1.35   -5.69  1.0000
   4  -1   8   29817     578                                                       40860   -3.37   -7.07  1.0000
  -4   1  -8   30180     585                                                       41280   -3.37    7.07  1.0000
   4  -1   9    2919     155                                                        2358   -2.44    6.55  1.0000
  -4   1  -9    3025     155                                                        2349   -2.44   -6.55  1.0000
   4  -1  10    5322     220                                                        5735   -1.21    5.60  1.0000
  -4   1 -10    5274     226                                                        5620   -1.21   -5.60  1.0000
   4  -1  11    2755     171                                                        2522   -0.66   -0.08  1.0000
  -4   1 -11    2790     178                                                        2553   -0.66    0.08  1.0000
   4  -1  12    2341     212                                                        3947    3.61    2.78  1.0000
  -4   1 -12    2184     202                                                        3754    3.61   -2.78  1.0000
   4  -1  13    5484     271                                                        5874    0.38    0.56  1.0000
  -4   1 -13    5053     250                                                        5428    0.38   -0.56  1.0000
   4  -1  14    4252     247                                                        4150   -0.38   -0.18  1.0000
  -4   1 -14    4635     252                                                        4529   -0.38    0.18  1.0000
   4  -1  15     467     155                                                         420    0.18   -0.27  1.0000
  -4   1 -15     304     154                                                         266    0.18    0.27  1.0000
   4  -1  16     214     164                                                         367   -1.95   -0.57  1.0000
  -4   1 -16     189     165                                                         322   -1.95    0.57  1.0000
   4  -1  17    1012     202                                                         933   -0.32   -0.27  1.0000
  -4   1 -17    1294     214                                                        1204   -0.32    0.27  1.0000
   4  -1  18     214     174                                                          88   -1.23    1.13  1.0000
  -4   1 -18    1023     184                                                         739   -1.23   -1.13  1.0000
   4  -1  19     183     182                                                         368   -2.27   -0.34  1.0000
  -4   1 -19     182     181                                                         360   -2.27    0.34  1.0000
   4   0   0    6726    2391                                                      172700  120.49   39.20  1.0000
   4   0   1   10077     220                                                       17360    7.55    8.52  1.0000
   4   0   2   43038    1781                                                      145500  -44.63   -1.77  1.0000
   4   0   3  233178    1841                                                      168500  -18.57   -0.42  1.0000
   4   0   4    8881     340                                                       21020  -12.95    1.59  1.0000
   4   0   5   34697     591                                                       50570   -9.90   -0.81  1.0000
   4   0   6   19411     391                                                       22120    2.41    0.34  1.0000
   4   0   7      51     107                                                         287    2.38    1.00  1.0000
   4   0   8    1228     113                                                         868    3.92    3.44  1.0000
   4   0   9     335     112                                                         -22   -4.64   -0.74  1.0000
   4   0  10    4267     220                                                        5971    3.02    1.12  1.0000
   4   0  11       5     124                                                         -73   -0.45    0.38  1.0000
   4   0  12     323     128                                                         408   -0.57   -0.31  1.0000
   4   0  13      11     130                                                         101   -3.05    0.37  1.0000
   4   0  14      89     160                                                          31   -1.16    0.69  1.0000
   4   0  15     818     159                                                         796    0.11   -0.58  1.0000
   4   0  16     235     167                                                         367    0.98   -0.21  1.0000
   4   0  17    3531     324                                                        3819    0.61    0.12  1.0000
   4   0  18     147     160                                                         340    0.05   -2.42  1.0000
   4   0  19     419     179                                                         118   -2.65    0.84  1.0000
   5  -2   0    1580    1169                                                      121900   49.29   70.93  1.0000
   5  -2   1   56467     830                                                       65030  -29.39  -80.71  1.0000
  -5   2  -1   56870     798                                                       62400  -29.39   80.71  1.0000
   5  -2   2   26701    1412                                                      115000   -5.84   46.33  1.0000
  -5   2  -2   26179    1609                                                      114000   -5.84  -46.33  1.0000
   5  -2   3  405002    2612                                                      266800   16.43   44.80  1.0000
  -5   2  -3  414196    2829                                                      275500   16.43  -44.80  1.0000
   5  -2   4   12247     234                                                       13710   -7.86  -28.44  1.0000
  -5   2  -4   12301     239                                                       12830   -7.86   28.44  1.0000
   5  -2   5   71088     886                                                       76430  -11.73   19.12  1.0000
  -5   2  -5   70354     873                                                       75940  -11.73  -19.12  1.0000
   5  -2   6   18590     405                                                       27180    5.30    6.38  1.0000
  -5   2  -6   18738     408                                                       27340    5.30   -6.38  1.0000
   5  -2   7   39824     567                                                       41400    1.51    0.38  1.0000
  -5   2  -7   40286     570                                                       41860    1.51   -0.38  1.0000
   5  -2   8    6996     226                                                        7443    0.26    3.78  1.0000
  -5   2  -8    7220     222                                                        7746    0.26   -3.78  1.0000
   5  -2   9    3893     203                                                        6327   -4.08    2.39  1.0000
  -5   2  -9    3981     212                                                        6418   -4.08   -2.39  1.0000
   5  -2  10   15924     330                                                       14490    0.43  -10.49  1.0000
  -5   2 -10   16057     371                                                       14460    0.43   10.49  1.0000
   5  -2  11    9704     276                                                       10060   -0.50    0.44  1.0000
  -5   2 -11    9707     288                                                       10070   -0.50   -0.44  1.0000
   5  -2  12    1812     166                                                        1988    0.18   -1.72  1.0000
  -5   2 -12    1846     166                                                        2000    0.18    1.72  1.0000
   5  -2  13    3447     212                                                        3682   -0.62   -0.54  1.0000
  -5   2 -13    3274     209                                                        3503   -0.62    0.54  1.0000
   5  -2  14     567     165                                                         638   -2.44    0.51  1.0000
  -5   2 -14     715     162                                                         824   -2.44   -0.51  1.0000
   5  -2  15    1174     194                                                        1115    0.08    0.22  1.0000
  -5   2 -15    1605     201                                                        1536    0.08   -0.22  1.0000
   5  -2  16    1238     183                                                         918    0.69    1.43  1.0000
  -5   2 -16    1152     179                                                         845    0.69   -1.43  1.0000
   5  -2  17    1354     203                                                        1427   -0.50    0.30  1.0000
  -5   2 -17     731     192                                                         784   -0.50   -0.30  1.0000
   5  -2  18      92     167                                                         127   -1.06   -2.10  1.0000
  -5   2 -18     105     161                                                         143   -1.06    2.10  1.0000
   5  -2  19      55     199                                                          65   -1.44   -0.47  1.0000
  -5   2 -19     117     208                                                         144   -1.44    0.47  1.0000
   5  -1   0  414974    2102                                                      205600  -49.24   11.89  1.0000
   5  -1   1  525345    6063                                                      605500  -54.13   53.91  1.0000
  -5   1  -1  502558    6601                                                      595000  -54.13  -53.91  1.0000
   5  -1   2  461210    5507                                                      522200  -23.43   15.12  1.0000
  -5   1  -2  445901    6008                                                      509900  -23.43  -15.12  1.0000
   5  -1   4  126076    1830                                                      165300   -3.12   26.59  1.0000
  -5   1  -4  129563    1742                                                      172900   -3.12  -26.59  1.0000
   5  -1   5   70989     847                                                       76920   -3.92   -9.85  1.0000
  -5   1  -5   73536     855                                                       77990   -3.92    9.85  1.0000
   5  -1   6   69028     730                                                       59060    5.07    0.39  1.0000
  -5   1  -6   66639     671                                                       56800    5.07   -0.39  1.0000
   5  -1   7    4525     210                                                        8396   -0.49   -6.40  1.0000
  -5   1  -7    5147     220                                                        9157   -0.49    6.40  1.0000
   5  -1   8   68481     829                                                       65450    1.14    1.07  1.0000
  -5   1  -8   63887     791                                                       61020    1.14   -1.07  1.0000
   5  -1   9   44840     665                                                       46790    0.57    3.78  1.0000
  -5   1  -9   47265     692                                                       49690    0.57   -3.78  1.0000
   5  -1  10    6030     277                                                        9464   -1.94    4.65  1.0000
  -5   1 -10    8101     309                                                       12020   -1.94   -4.65  1.0000
   5  -1  11   23739     453                                                       23650    1.18    2.26  1.0000
  -5   1 -11   25810     475                                                       25950    1.18   -2.26  1.0000
   5  -1  12    8229     302                                                        8580    0.48    1.72  1.0000
  -5   1 -12    9317     320                                                        9808    0.48   -1.72  1.0000
   5  -1  13    7099     290                                                        7133    0.55   -0.75  1.0000
  -5   1 -13    6611     266                                                        6579    0.55    0.75  1.0000
   5  -1  14    6114     304                                                        5696    0.71    0.45  1.0000
  -5   1 -14    5965     323                                                        5584    0.71   -0.45  1.0000
   5  -1  15    3767     236                                                        3954   -0.90    1.30  1.0000
  -5   1 -15    3998     241                                                        4284   -0.90   -1.30  1.0000
   5  -1  16    7817     320                                                        8138    0.39   -0.98  1.0000
  -5   1 -16    7462     335                                                        7741    0.39    0.98  1.0000
   5  -1  17    1669     235                                                        1868   -0.70    0.00  1.0000
  -5   1 -17    2279     259                                                        2496   -0.70   -0.00  1.0000
   5  -1  18     540     192                                                         430    0.67   -0.06  1.0000
  -5   1 -18     995     182                                                         838    0.67    0.06  1.0000
   5  -1  19    1229     247                                                        1172    1.06    0.81  1.0000
  -5   1 -19    1115     244                                                        1085    1.06   -0.81  1.0000
   5   0   0    3638    1122                                                       61620   46.27  -13.98  1.0000
   5   0   1   19672    1301                                                      112000  -47.56  -16.06  1.0000
   5   0   2    8902     413                                                       21780   13.29    5.28  1.0000
   5   0   3    3008     138                                                        6755  -34.89    4.05  1.0000
   5   0   4  219178    1553                                                      152800   19.83    1.61  1.0000
   5   0   5     936     209                                                        9404   -2.88  -17.18  1.0000
   5   0   6    4060     118                                                        1966   -6.88    6.85  1.0000
   5   0   7    9786     254                                                       11580    1.45   -5.22  1.0000
   5   0   8     673     115                                                         900   -1.99    5.25  1.0000
   5   0   9    2297     193                                                        4958   -5.77    0.25  1.0000
   5   0  10    1147     130                                                         793    1.57   -0.69  1.0000
   5   0  11   12437     341                                                       13620   -1.32   -0.37  1.0000
   5   0  12    6224     225                                                        5380    1.42    0.53  1.0000
   5   0  13      35     129                                                          -8    1.41   -0.56  1.0000
   5   0  14     817     175                                                        1027   -0.88    0.69  1.0000
   5   0  15     477     167                                                         779    1.54   -0.38  1.0000
   5   0  16       1     169                                                          22   -1.38   -0.20  1.0000
   5   0  17     162     184                                                         101   -0.70   -0.34  1.0000
   5   0  18      68     167                                                         170   -0.23    1.65  1.0000
   5   0  19     433     250                                                         867   -2.12   -0.92  1.0000
   6  -3   0  138219     214                                                        8358  -72.11    0.62  1.0000
   6  -3   1  275834    4412                                                      457000   38.83   -8.05  1.0000
   6  -3   2    1111      89                                                        1868  -14.02    2.69  1.0000
   6  -3   3    8968     518                                                       45490  -30.80    4.09  1.0000
   6  -3   4  539448    7249                                                      752700   34.16   -0.01  1.0000
   6  -3   5  316338    3491                                                      355000    8.66   -6.06  1.0000
   6  -3   6  249459    3174                                                      258000    2.21   -1.17  1.0000
   6  -3   7   78135    1344                                                      112000   13.80    4.66  1.0000
   6  -3   8  156298    1925                                                      165900    3.10   -0.70  1.0000
   6  -3   9   57810     782                                                       61760    1.99    1.20  1.0000
   6  -3  10   27329     746                                                       34440    5.14    0.97  1.0000
   6  -3  11   30164     528                                                       28100   -1.53   -0.44  1.0000
   6  -3  12   38087     580                                                       35640   -1.66    0.40  1.0000
   6  -3  13   24896     493                                                       25980    0.87    0.03  1.0000
   6  -3  14   24106     527                                                       22080   -1.68   -0.77  1.0000
   6  -3  15    8804     327                                                        9136    0.41    0.46  1.0000
   6  -3  16    8040     339                                                        7869   -0.26    0.16  1.0000
   6  -3  17    1893     246                                                        2018    0.43   -0.78  1.0000
   6  -3  18    4035     263                                                        3851   -0.38    0.03  1.0000
   6  -3  19    3862     357                                                        4025    0.29    0.56  1.0000
   6  -2   0  235544    1412                                                      141400   31.15  -27.38  1.0000
   6  -2   1   88345     654                                                       64290  -19.10  -25.60  1.0000
  -6   2  -1   85907     764                                                       62210  -19.10   25.60  1.0000
   6  -2   2  168334    2431                                                      212900    2.48  -13.24  1.0000
  -6   2  -2  172870    2356                                                      218000    2.48   13.24  1.0000
   6  -2   3   62022     958                                                       87100   29.29   -7.32  1.0000
  -6   2  -3   62377     961                                                       87500   29.29    7.32  1.0000
   6  -2   4   65425     602                                                       50770    0.09   -9.11  1.0000
  -6   2  -4   65573     566                                                       50920    0.09    9.11  1.0000
   6  -2   5   37761     558                                                       44180   -0.35    4.10  1.0000
  -6   2  -5   37466     592                                                       43860   -0.35   -4.10  1.0000
   6  -2   6    4121     206                                                        6943    3.79    4.98  1.0000
  -6   2  -6    4351     192                                                        7249    3.79   -4.98  1.0000
   6  -2   7   24716     564                                                       36140    3.66   11.95  1.0000
  -6   2  -7   23571     477                                                       34690    3.66  -11.95  1.0000
   6  -2   8    8668     165                                                        4381   -0.01   11.05  1.0000
  -6   2  -8    8548     165                                                        4261   -0.01  -11.05  1.0000
   6  -2   9   12760     243                                                        9541   -3.64   -3.32  1.0000
  -6   2  -9   12725     245                                                        9529   -3.64    3.32  1.0000
   6  -2  10    3324     204                                                        4068   -4.54    4.57  1.0000
  -6   2 -10    3386     214                                                        4127   -4.54   -4.57  1.0000
   6  -2  11    4477     215                                                        5189    2.37    0.16  1.0000
  -6   2 -11    4320     216                                                        5015    2.37   -0.16  1.0000
   6  -2  12   10445     335                                                       13500    3.51    1.86  1.0000
  -6   2 -12    9915     328                                                       12890    3.51   -1.86  1.0000
   6  -2  13    6936     261                                                        5751   -1.46    1.56  1.0000
  -6   2 -13    7327     265                                                        6108   -1.46   -1.56  1.0000
   6  -2  14    1615     198                                                        1876    2.24    0.23  1.0000
  -6   2 -14    1725     210                                                        1998    2.24   -0.23  1.0000
   6  -2  15    1678     233                                                        2009    0.26   -1.33  1.0000
  -6   2 -15    1723     217                                                        2057    0.26    1.33  1.0000
   6  -2  16    1433     206                                                        1573   -0.51   -0.19  1.0000
  -6   2 -16    1557     217                                                        1703   -0.51    0.19  1.0000
   6  -2  17     829     192                                                         848   -0.17   -0.98  1.0000
  -6   2 -17    1116     210                                                        1139   -0.17    0.98  1.0000
   6  -2  18     500     175                                                         314    1.33   -0.61  1.0000
  -6   2 -18     239     168                                                         114    1.33    0.61  1.0000
   6  -2  19     681     201                                                         579   -1.09   -1.03  1.0000
  -6   2 -19      34     189                                                         -73   -1.09    1.03  1.0000
   6  -1   0  137009    1446                                                      124500 -139.33   53.64  1.0000
   6  -1   1   25143     693                                                       47890    7.35  -14.28  1.0000
  -6   1  -1   25340     615                                                       48130    7.35   14.28  1.0000
   6  -1   2  109392    1639                                                      164600  -15.61   17.14  1.0000
  -6   1  -2  107953    1876                                                      162800  -15.61  -17.14  1.0000
   6  -1   3    6988     276                                                       20150  -22.60   14.71  1.0000
  -6   1  -3    6643     286                                                       19740  -22.60  -14.71  1.0000
   6  -1   4  171649    1661                                                      157500   -1.48   -8.06  1.0000
  -6   1  -4  173146    1783                                                      158900   -1.48    8.06  1.0000
   6  -1   5   19704     433                                                       31840    4.15   10.79  1.0000
  -6   1  -5   21003     415                                                       33510    4.15  -10.79  1.0000
   6  -1   6    8859     430                                                       22180  -14.03   -2.44  1.0000
  -6   1  -6    8638     375                                                       21800  -14.03    2.44  1.0000
   6  -1   7    5311     165                                                        4035    3.38    3.83  1.0000
  -6   1  -7    5551     167                                                        4286    3.38   -3.83  1.0000
   6  -1   8   33406     512                                                       31790  -10.67    1.88  1.0000
  -6   1  -8   32589     479                                                       30990  -10.67   -1.88  1.0000
   6  -1   9    1779     165                                                        2446   -6.68    3.33  1.0000
  -6   1  -9    1803     149                                                        2525   -6.68   -3.33  1.0000
   6  -1  10    1599     175                                                        2549    2.90   -1.09  1.0000
  -6   1 -10    1975     182                                                        3027    2.90    1.09  1.0000
   6  -1  11    5890     230                                                        5112   -1.72   -0.13  1.0000
  -6   1 -11    5587     229                                                        4827   -1.72    0.13  1.0000
   6  -1  12   13462     322                                                       11050   -3.59   -1.54  1.0000
  -6   1 -12   13946     340                                                       11490   -3.59    1.54  1.0000
   6  -1  13    1062     196                                                        1572   -0.77    2.16  1.0000
  -6   1 -13    1109     182                                                        1630   -0.77   -2.16  1.0000
   6  -1  14    3190     208                                                        2824   -1.00   -0.77  1.0000
  -6   1 -14    3106     214                                                        2745   -1.00    0.77  1.0000
   6  -1  15    1513     194                                                        1645   -0.51    1.01  1.0000
  -6   1 -15    1522     200                                                        1655   -0.51   -1.01  1.0000
   6  -1  16    2268     223                                                        1888    0.90    0.69  1.0000
  -6   1 -16    2023     240                                                        1666    0.90   -0.69  1.0000
   6  -1  17    1145     191                                                        1034    0.39   -0.33  1.0000
  -6   1 -17    1011     182                                                         907    0.39    0.33  1.0000
   6  -1  18     494     182                                                         588   -0.63   -0.64  1.0000
  -6   1 -18     149     171                                                         197   -0.63    0.64  1.0000
   6  -1  19     753     256                                                         816   -0.50    0.30  1.0000
  -6   1 -19     564     275                                                         620   -0.50   -0.30  1.0000
   6   0   0    3415     159                                                        3838    1.59   -2.18  1.0000
   6   0   1   10272     820                                                       74490  -42.48   12.21  1.0000
   6   0   2  259041    1819                                                      173900  -23.72    2.36  1.0000
   6   0   3  343542    6505                                                      614000   50.72   -1.90  1.0000
   6   0   4     335      85                                                        2148   -7.22    2.35  1.0000
   6   0   5  320659    2600                                                      260600  -14.47    3.46  1.0000
   6   0   6  183733    2392                                                      204500    6.03    0.59  1.0000
   6   0   7  391470    3678                                                      352600   -8.26    2.26  1.0000
   6   0   8  204761    1988                                                      180900   -6.92   -1.74  1.0000
   6   0   9  119245    1224                                                      108000   -4.25   -0.72  1.0000
   6   0  10   30892     426                                                       18180  -10.64    0.84  1.0000
   6   0  11   29556     529                                                       29540   -0.04    0.41  1.0000
   6   0  12    7697     319                                                       10860    4.28   -0.38  1.0000
   6   0  13   10893     314                                                        9679   -1.52   -0.21  1.0000
   6   0  14   10186     373                                                       10540    0.46   -0.12  1.0000
   6   0  15   15574     436                                                       15780    0.22   -0.06  1.0000
   6   0  16    3697     258                                                        3568   -0.32    0.45  1.0000
   6   0  17    7972     323                                                        7582   -0.59    0.40  1.0000
   6   0  18    3546     276                                                        3789    0.55   -0.83  1.0000
   6   0  19    1154     262                                                         896   -1.12    0.61  1.0000
   7  -3   0    4298      88                                                        1169  -12.77   20.87  1.0000
   7  -3   1  133774    2130                                                      162800   -9.57   -6.92  1.0000
  -7   3  -1  137917    1928                                                      167300   -9.57    6.92  1.0000
   7  -3   2   56292     905                                                       81930   12.93   -9.90  1.0000
  -7   3  -2   57946     924                                                       83850   12.93    9.90  1.0000
   7  -3   3   95365    1499                                                      147700   19.56    4.22  1.0000
  -7   3  -3   93431    1472                                                      145100   19.56   -4.22  1.0000
   7  -3   4   56900     840                                                       77890    1.76   16.95  1.0000
  -7   3  -4   56626     846                                                       77200    1.76  -16.95  1.0000
   7  -3   5   12509     415                                                       29480    7.87  -18.89  1.0000
  -7   3  -5   12295     417                                                       29470    7.87   18.89  1.0000
   7  -3   6   12967     278                                                       13650   -1.54    3.60  1.0000
  -7   3  -6   12557     274                                                       13120   -1.54   -3.60  1.0000
   7  -3   7    3041     178                                                        5636    2.11   -5.72  1.0000
  -7   3  -7    3085     178                                                        5772    2.11    5.72  1.0000
   7  -3   8   38644     637                                                       45650   -6.07   -1.83  1.0000
  -7   3  -8   40162     616                                                       47260   -6.07    1.83  1.0000
   7  -3   9    5082     200                                                        6020   -2.73    2.47  1.0000
  -7   3  -9    4944     215                                                        5851   -2.73   -2.47  1.0000
   7  -3  10     291     124                                                         192   -1.23   -2.78  1.0000
  -7   3 -10     276     112                                                         213   -1.23    2.78  1.0000
   7  -3  11    1769     170                                                        2121    1.16   -1.13  1.0000
  -7   3 -11    2025     181                                                        2403    1.16    1.13  1.0000
   7  -3  12    4161     206                                                        4160    0.00   -0.60  1.0000
  -7   3 -12    4140     205                                                        4148    0.00    0.60  1.0000
   7  -3  13     166     150                                                         317   -1.33    1.69  1.0000
  -7   3 -13     185     149                                                         328   -1.33   -1.69  1.0000
   7  -3  14     157     210                                                         287   -0.41   -1.26  1.0000
  -7   3 -14     163     158                                                         304   -0.41    1.26  1.0000
   7  -3  15     270     160                                                         332   -0.26    1.72  1.0000
  -7   3 -15     290     174                                                         338   -0.26   -1.72  1.0000
   7  -3  16    1254     201                                                        1407    0.43   -0.47  1.0000
  -7   3 -16    1293     197                                                        1451    0.43    0.47  1.0000
   7  -3  17     728     227                                                         623    0.18    2.71  1.0000
  -7   3 -17    1346     220                                                        1222    0.18   -2.71  1.0000
   7  -3  18     186     174                                                         287    0.96    0.06  1.0000
  -7   3 -18     331     184                                                         465    0.96   -0.06  1.0000
   7  -3  19     117     179                                                          94   -0.29   -0.38  1.0000
  -7   3 -19     675     223                                                         626   -0.29    0.38  1.0000
   7  -2   0  134637    1649                                                      149600   -5.03   -2.03  1.0000
   7  -2   1  260827    5333                                                      528800  -25.41   50.38  1.0000
  -7   2  -1  271691    6053                                                      543600  -25.41  -50.38  1.0000
   7  -2   2   12516     338                                                       28340   14.71  -13.11  1.0000
  -7   2  -2   17940     443                                                       33510   14.71   13.11  1.0000
   7  -2   3  106653    1315                                                      122500   -0.62    6.87  1.0000
  -7   2  -3  116788    1364                                                      133600   -0.62   -6.87  1.0000
   7  -2   4   58374     733                                                       63340   16.01   11.09  1.0000
  -7   2  -4   63572     816                                                       69990   16.01  -11.09  1.0000
   7  -2   5   69517     826                                                       74620   -3.65   -3.25  1.0000
  -7   2  -5   73230     867                                                       77800   -3.65    3.25  1.0000
   7  -2   6   51277     581                                                       47410    1.16   -2.36  1.0000
  -7   2  -6   55759     726                                                       51570    1.16    2.36  1.0000
   7  -2   7  197418    2457                                                      193300    0.51   -3.45  1.0000
  -7   2  -7  197628    2208                                                      193100    0.51    3.45  1.0000
   7  -2   8   43489     665                                                       51640    0.60   -7.77  1.0000
  -7   2  -8   41206     631                                                       48520    0.60    7.77  1.0000
   7  -2   9   27398     462                                                       29660   -5.09    7.66  1.0000
  -7   2  -9   23515     448                                                       26590   -5.09   -7.66  1.0000
   7  -2  10   28306     485                                                       28360   -0.92    1.58  1.0000
  -7   2 -10   27387     523                                                       27610   -0.92   -1.58  1.0000
   7  -2  11    6296     250                                                        6764   -2.42    4.19  1.0000
  -7   2 -11    4942     251                                                        5747   -2.42   -4.19  1.0000
   7  -2  12    2010     149                                                        1198    2.71    0.73  1.0000
  -7   2 -12    2373     155                                                        1598    2.71   -0.73  1.0000
   7  -2  13    6952     282                                                        6305    1.16   -2.06  1.0000
  -7   2 -13    7714     288                                                        6888    1.16    2.06  1.0000
   7  -2  14     765     180                                                        1116   -1.01    2.04  1.0000
  -7   2 -14     880     206                                                        1358   -1.01   -2.04  1.0000
   7  -2  15    1449     190                                                        1310    0.81   -1.99  1.0000
  -7   2 -15    1420     212                                                        1185    0.81    1.99  1.0000
   7  -2  16    1354     183                                                        1226    0.33   -0.32  1.0000
  -7   2 -16    1098     187                                                         983    0.33    0.32  1.0000
   7  -2  17    1440     203                                                        1859   -0.93   -2.44  1.0000
  -7   2 -17    1224     199                                                        1519   -0.93    2.44  1.0000
   7  -2  18    1297     212                                                        1256    0.23    1.12  1.0000
  -7   2 -18    1256     214                                                        1251    0.23   -1.12  1.0000
   7  -2  19     921     254                                                         816    0.04    0.81  1.0000
  -7   2 -19     989     251                                                         897    0.04   -0.81  1.0000
   7  -1   0    1035      84                                                         862   -0.71   -0.52  1.0000
   7  -1   1    4608     337                                                       21440    1.15  -20.81  1.0000
  -7   1  -1    4918     323                                                       22150    1.15   20.81  1.0000
   7  -1   2   20215     382                                                       34840   12.50   -7.81  1.0000
  -7   1  -2   20263     490                                                       35200   12.50    7.81  1.0000
   7  -1   3   18360     461                                                       38550   14.93    7.13  1.0000
  -7   1  -3   17520     573                                                       37480   14.93   -7.13  1.0000
   7  -1   4    3719      87                                                        3172   -0.97    0.70  1.0000
  -7   1  -4    3535     106                                                        3002   -0.97   -0.70  1.0000
   7  -1   5   14629     340                                                       18340    2.24   -9.63  1.0000
  -7   1  -5   13184     298                                                       16910    2.24    9.63  1.0000
   7  -1   6   45262     502                                                       36810    0.49   10.49  1.0000
  -7   1  -6   45554     491                                                       36910    0.49  -10.49  1.0000
   7  -1   7    1764     167                                                        3361    1.64    8.93  1.0000
  -7   1  -7    1684     140                                                        3083    1.64   -8.93  1.0000
   7  -1   8    2750     155                                                        2842    3.78    6.76  1.0000
  -7   1  -8    2858     145                                                        2806    3.78   -6.76  1.0000
   7  -1   9     409     110                                                         458    2.18   -0.42  1.0000
  -7   1  -9     328     112                                                         357    2.18    0.42  1.0000
   7  -1  10    3207     183                                                        3761   -0.67    1.48  1.0000
  -7   1 -10    3088     179                                                        3614   -0.67   -1.48  1.0000
   7  -1  11    3453     177                                                        2886    1.20   -2.35  1.0000
  -7   1 -11    3422     176                                                        2882    1.20    2.35  1.0000
   7  -1  12      66     143                                                         250   -1.43    2.89  1.0000
  -7   1 -12     158     135                                                         -88   -1.43   -2.89  1.0000
   7  -1  13    3646     243                                                        3055    1.09   -0.86  1.0000
  -7   1 -13    3533     219                                                        2958    1.09    0.86  1.0000
   7  -1  14     926     164                                                         854    1.39   -0.93  1.0000
  -7   1 -14    1305     168                                                        1240    1.39    0.93  1.0000
   7  -1  15     374     189                                                         399    0.84    0.66  1.0000
  -7   1 -15     333     174                                                         346    0.84   -0.66  1.0000
   7  -1  16    2052     224                                                        1711    1.06   -1.43  1.0000
  -7   1 -16    1731     238                                                        1422    1.06    1.43  1.0000
   7  -1  17     171     169                                                         172   -0.00    1.09  1.0000
  -7   1 -17     622     172                                                         628   -0.00   -1.09  1.0000
   7  -1  18      53     205                                                          42   -0.79   -2.54  1.0000
  -7   1 -18     143     215                                                         311   -0.79    2.54  1.0000
   7  -1  19     202     277                                                         329    0.08   -1.01  1.0000
  -7   1 -19      15     261                                                          -4    0.08    1.01  1.0000
   7   0   0   14170     271                                                       11070  -45.96   22.17  1.0000
   7   0   1   39668    1232                                                      109000  -33.60   -1.31  1.0000
   7   0   2   71786     879                                                       82990   -4.99   -4.74  1.0000
   7   0   3   63078     644                                                       49570   -7.49   -5.29  1.0000
   7   0   4     613     121                                                         763    0.76   -1.14  1.0000
   7   0   5   11695     314                                                       18970    7.60   -0.37  1.0000
   7   0   6   39396     435                                                       31920   -5.15    2.03  1.0000
   7   0   7   10743     196                                                        7626   -4.78   -5.55  1.0000
   7   0   8     526     143                                                         891   -1.48    1.47  1.0000
   7   0   9    8329     249                                                        9268    1.28    0.31  1.0000
   7   0  10       7     109                                                          73    2.68   -0.54  1.0000
   7   0  11      22     114                                                         203   -2.30    0.89  1.0000
   7   0  12     527     150                                                         620   -0.46    0.41  1.0000
   7   0  13     939     219                                                        1590   -2.34   -0.91  1.0000
   7   0  14      26     138                                                        -180    1.24    0.40  1.0000
   7   0  15    1242     188                                                        1200   -0.19    0.55  1.0000
   7   0  16     722     191                                                         672   -0.24   -0.42  1.0000
   7   0  17     587     161                                                         491   -0.61    0.85  1.0000
   7   0  18      67     169                                                         176    1.30    0.08  1.0000
   7   0  19     222     232                                                         348    0.96    0.01  1.0000
   8  -4   0  191722    6250                                                      370400  -43.69   -4.73  1.0000
   8  -4   1    1927     114                                                        3334   -3.05   -3.41  1.0000
   8  -4   2   42914     246                                                       14960   21.71    3.45  1.0000
   8  -4   3    3142      98                                                        2034   -3.00   -0.98  1.0000
   8  -4   4  103357    1039                                                       97310    2.43    0.74  1.0000
   8  -4   5  131651    1242                                                      100200   11.85    3.33  1.0000
   8  -4   6  162616    2309                                                      167700   -1.59   -0.52  1.0000
   8  -4   7     809     105                                                         434    1.71    1.41  1.0000
   8  -4   8   35921     462                                                       27340    6.27   -1.04  1.0000
   8  -4   9    2456     146                                                        2169    0.84   -0.33  1.0000
   8  -4  10     168     107                                                         221   -0.76    0.63  1.0000
   8  -4  11    2605     179                                                        2373    0.87   -1.81  1.0000
   8  -4  12   20637     418                                                       20350    0.31   -1.13  1.0000
   8  -4  13    2706     196                                                        3185   -1.13   -0.11  1.0000
   8  -4  14    6848     326                                                        4110    4.81   -0.25  1.0000
   8  -4  15    1727     190                                                        1651    0.23    0.10  1.0000
   8  -4  16    3213     226                                                        2819    0.92    0.03  1.0000
   8  -4  17      75     175                                                         348   -0.93   -2.39  1.0000
   8  -4  18    1224     245                                                        1763   -1.76   -0.47  1.0000
   8  -4  19     246     210                                                         293   -0.40    0.43  1.0000
   8  -3   0   19437     521                                                       37830   13.72    9.66  1.0000
   8  -3   1   77117    1192                                                      110300   20.48   -7.83  1.0000
  -8   3  -1   72462    1430                                                      104900   20.48    7.83  1.0000
   8  -3   2   38805     544                                                       46870    4.22   23.74  1.0000
  -8   3  -2   39249     575                                                       48410    4.22  -23.74  1.0000
   8  -3   3    9437     127                                                        4237   35.88    2.13  1.0000
  -8   3  -3    9544     130                                                        4809   35.88   -2.13  1.0000
   8  -3   4   14581     228                                                       12180    5.12   -1.79  1.0000
  -8   3  -4   13691     230                                                       11240    5.12    1.79  1.0000
   8  -3   5   17188     294                                                       15370   -7.27   13.93  1.0000
  -8   3  -5   15918     331                                                       14530   -7.27  -13.93  1.0000
   8  -3   6   68606     885                                                       71070    9.26   10.81  1.0000
  -8   3  -6   68321     857                                                       71050    9.26  -10.81  1.0000
   8  -3   7   10092     230                                                        9234    4.35   13.34  1.0000
  -8   3  -7    9515     220                                                        9202    4.35  -13.34  1.0000
   8  -3   8    9760     256                                                       11930   -3.56    7.98  1.0000
  -8   3  -8    9605     262                                                       12000   -3.56   -7.98  1.0000
   8  -3   9    8291     230                                                        6185    3.55   -1.07  1.0000
  -8   3  -9    9547     233                                                        7312    3.55    1.07  1.0000
   8  -3  10    3508     215                                                        4002   -3.09    4.39  1.0000
  -8   3 -10    3163     193                                                        3769   -3.09   -4.39  1.0000
   8  -3  11     969     159                                                         816    2.61   -1.14  1.0000
  -8   3 -11     913     142                                                         731    2.61    1.14  1.0000
   8  -3  12    2839     196                                                        3681    0.80    3.23  1.0000
  -8   3 -12    3021     196                                                        3923    0.80   -3.23  1.0000
   8  -3  13     359     133                                                         260    4.01   -1.90  1.0000
  -8   3 -13     678     146                                                         627    4.01    1.90  1.0000
   8  -3  14     242     163                                                         482   -0.89   -1.82  1.0000
  -8   3 -14     189     157                                                         400   -0.89    1.82  1.0000
   8  -3  15    3088     253                                                        3535    0.86    0.51  1.0000
  -8   3 -15    2994     239                                                        3434    0.86   -0.51  1.0000
   8  -3  16    1122     189                                                        1219    1.54   -0.39  1.0000
  -8   3 -16     934     189                                                        1021    1.54    0.39  1.0000
   8  -3  17     269     177                                                         284    0.41    0.13  1.0000
  -8   3 -17       3     167                                                         -27    0.41   -0.13  1.0000
   8  -3  18      79     203                                                         440    1.18   -2.87  1.0000
  -8   3 -18     222     217                                                         728    1.18    2.87  1.0000
   8  -3  19     166     213                                                         425    2.18   -0.65  1.0000
  -8   3 -19      71     235                                                         238    2.18    0.65  1.0000
   8  -2   0   59122    1708                                                      162300  -40.67   10.23  1.0000
   8  -2   1   73840     813                                                       72520    1.51    1.77  1.0000
  -8   2  -1   73731     905                                                       72480    1.51   -1.77  1.0000
   8  -2   2   30257     468                                                       41540   -0.90   13.10  1.0000
  -8   2  -2   31248     621                                                       42930   -0.90  -13.10  1.0000
   8  -2   3    7212     124                                                        5791    0.84   -2.15  1.0000
  -8   2  -3    7317     165                                                        5880    0.84    2.15  1.0000
   8  -2   4   20750     367                                                       27190   -1.50   -7.08  1.0000
  -8   2  -4   19603     358                                                       25790   -1.50    7.08  1.0000
   8  -2   5    9631     123                                                        3714   13.44   20.73  1.0000
  -8   2  -5    8537     142                                                        3412   13.44  -20.73  1.0000
   8  -2   6   22132     418                                                       27560   -5.56   -2.43  1.0000
  -8   2  -6   22846     411                                                       28410   -5.56    2.43  1.0000
   8  -2   7     852     118                                                         955   -0.37   -2.51  1.0000
  -8   2  -7     801     106                                                         850   -0.37    2.51  1.0000
   8  -2   8   13707     364                                                       19950   -2.96    6.94  1.0000
  -8   2  -8   14206     357                                                       20570   -2.96   -6.94  1.0000
   8  -2   9    3476     155                                                        1594    5.02    2.27  1.0000
  -8   2  -9    3611     175                                                        1748    5.02   -2.27  1.0000
   8  -2  10   10994     265                                                        9836    1.23    0.94  1.0000
  -8   2 -10   11715     269                                                       10530    1.23   -0.94  1.0000
   8  -2  11    3673     184                                                        2682    1.59    1.82  1.0000
  -8   2 -11    3866     178                                                        2864    1.59   -1.82  1.0000
   8  -2  12    1642     189                                                        3167   -1.91   -3.59  1.0000
  -8   2 -12    1484     180                                                        2941   -1.91    3.59  1.0000
   8  -2  13    1037     158                                                         876   -3.12    4.41  1.0000
  -8   2 -13     721     183                                                         573   -3.12   -4.41  1.0000
   8  -2  14     741     155                                                         793    1.52    0.83  1.0000
  -8   2 -14     571     154                                                         628    1.52   -0.83  1.0000
   8  -2  15     924     192                                                         971   -1.74   -0.34  1.0000
  -8   2 -15     946     182                                                         986   -1.74    0.34  1.0000
   8  -2  16     589     160                                                         693   -0.59    1.71  1.0000
  -8   2 -16     484     175                                                         585   -0.59   -1.71  1.0000
   8  -2  17     135     152                                                         201    0.67   -0.36  1.0000
  -8   2 -17      74     153                                                         120    0.67    0.36  1.0000
   8  -2  18     353     203                                                         423    0.50   -0.03  1.0000
  -8   2 -18     481     195                                                         564    0.50    0.03  1.0000
   8  -2  19      43     215                                                         102   -0.88    0.56  1.0000
  -8   2 -19     120     215                                                         210   -0.88   -0.56  1.0000
   8  -1   0   17332     349                                                       26740   -7.51   -6.47  1.0000
   8  -1   1   59000     880                                                       78420    5.43   -8.85  1.0000
  -8   1  -1   50600     782                                                       68780    5.43    8.85  1.0000
   8  -1   2  123953    1463                                                      149700  -16.38    4.74  1.0000
  -8   1  -2  114520    1580                                                      141200  -16.38   -4.74  1.0000
   8  -1   3  144588    1538                                                      149200    3.41   -8.24  1.0000
  -8   1  -3  138305    1692                                                      141600    3.41    8.24  1.0000
   8  -1   4  167627    2164                                                      171900   21.60   -2.56  1.0000
  -8   1  -4  155585    2159                                                      159600   21.60    2.56  1.0000
   8  -1   5  125615    1496                                                      144600   -7.15   -1.50  1.0000
  -8   1  -5  118659    1656                                                      137500   -7.15    1.50  1.0000
   8  -1   6  136760    1630                                                      156900   -2.69   -6.25  1.0000
  -8   1  -6  126006    1543                                                      145400   -2.69    6.25  1.0000
   8  -1   7  114510    1313                                                      115500    1.70    3.40  1.0000
  -8   1  -7  117202    1365                                                      118600    1.70   -3.40  1.0000
   8  -1   8   67102     941                                                       79480  -10.73   -5.18  1.0000
  -8   1  -8   70159    1129                                                       81760  -10.73    5.18  1.0000
   8  -1   9   22005     573                                                       33590   -9.19    2.05  1.0000
  -8   1  -9   24236     598                                                       36020   -9.19   -2.05  1.0000
   8  -1  10   20253     445                                                       25820   -5.28   -1.24  1.0000
  -8   1 -10   22622     466                                                       28210   -5.28    1.24  1.0000
   8  -1  11    4914     208                                                        4547    0.26   -0.72  1.0000
  -8   1 -11    6021     218                                                        5597    0.26    0.72  1.0000
   8  -1  12    1975     193                                                        1946    0.08    1.18  1.0000
  -8   1 -12    2547     221                                                        2607    0.08   -1.18  1.0000
   8  -1  13    3128     187                                                        2502    1.89   -0.60  1.0000
  -8   1 -13    2863     195                                                        2200    1.89    0.60  1.0000
   8  -1  14    2359     198                                                        2629   -2.25   -1.05  1.0000
  -8   1 -14    3027     206                                                        3225   -2.25    1.05  1.0000
   8  -1  15    7399     401                                                        7780   -0.08   -0.79  1.0000
  -8   1 -15    5987     299                                                        6306   -0.08    0.79  1.0000
   8  -1  16     677     177                                                         792    0.07   -1.06  1.0000
  -8   1 -16     627     201                                                         706    0.07    1.06  1.0000
   8  -1  17    1631     225                                                        2304   -1.47   -1.36  1.0000
  -8   1 -17    1057     221                                                        1592   -1.47    1.36  1.0000
   8  -1  18     831     246                                                         844    0.07    0.78  1.0000
  -8   1 -18     590     216                                                         618    0.07   -0.78  1.0000
   8  -1  19     466     246                                                         494   -0.63   -0.38  1.0000
  -8   1 -19     472     250                                                         489   -0.63    0.38  1.0000
   8   0   0   35004     116                                                         260  -51.48    6.51  1.0000
   8   0   1     353      90                                                         588   -1.28   -1.38  1.0000
   8   0   2    2997      73                                                         859   21.54    0.74  1.0000
   8   0   3    7783     234                                                       10410   -3.56    0.25  1.0000
   8   0   4      57     120                                                         505   -3.77   -0.64  1.0000
   8   0   5  234316    2146                                                      179600   15.47   -0.53  1.0000
   8   0   6    6438     142                                                        4653   -4.21   -3.42  1.0000
   8   0   7   18915     284                                                       14640    4.24    0.88  1.0000
   8   0   8   15667     322                                                       16120   -0.46    1.50  1.0000
   8   0   9     559     113                                                         342    1.42   -0.45  1.0000
   8   0  10    2616     172                                                        3215    1.44    0.71  1.0000
   8   0  11    1019     136                                                         963    0.29   -0.59  1.0000
   8   0  12      13     169                                                         -12   -0.88   -0.24  1.0000
   8   0  13    5242     229                                                        4542   -1.29    0.75  1.0000
   8   0  14     438     153                                                         598    0.89   -0.14  1.0000
   8   0  15    7982     327                                                        8424   -0.62   -0.22  1.0000
   8   0  16     178     160                                                         165   -0.12    0.40  1.0000
   8   0  17    1482     183                                                        1204    0.99   -0.34  1.0000
   8   0  18     144     206                                                         367   -1.75   -0.85  1.0000
   9  -4   0     101     106                                                         861   -4.69   -3.86  1.0000
   9  -4   1   40292     704                                                       65990   19.30   -7.56  1.0000
  -9   4  -1   38855     931                                                       64170   19.30    7.56  1.0000
   9  -4   2   31629    1002                                                       94000    8.74  -34.01  1.0000
  -9   4  -2   32529    1056                                                       95590    8.74   34.01  1.0000
   9  -4   3   21629     286                                                       17940   -0.36    4.54  1.0000
  -9   4  -3   21772     272                                                       18070   -0.36   -4.54  1.0000
   9  -4   4   37292     494                                                       31140   11.05   -6.86  1.0000
  -9   4  -4   37175     408                                                       31030   11.05    6.86  1.0000
   9  -4   5   73201    1005                                                       67950    3.46   -4.86  1.0000
  -9   4  -5   73470     924                                                       68210    3.46    4.86  1.0000
   9  -4   6   49669     588                                                       43850   -1.62   -3.35  1.0000
  -9   4  -6   51243     577                                                       45330   -1.62    3.35  1.0000
   9  -4   7    5319     168                                                        4292   11.51   -3.88  1.0000
  -9   4  -7    4678     165                                                        3548   11.51    3.88  1.0000
   9  -4   8   13077     262                                                       12100    0.87   -1.37  1.0000
  -9   4  -8   14082     275                                                       13070    0.87    1.37  1.0000
   9  -4   9    3125     188                                                        5228    3.70    2.36  1.0000
  -9   4  -9    3378     210                                                        5546    3.70   -2.36  1.0000
   9  -4  10   32581     608                                                       36840    3.67   -2.51  1.0000
  -9   4 -10   33914     662                                                       38290    3.67    2.51  1.0000
   9  -4  11   11318     338                                                       12210    0.61    0.89  1.0000
  -9   4 -11   10521     313                                                       11380    0.61   -0.89  1.0000
   9  -4  12    2985     205                                                        3754    1.67    0.87  1.0000
  -9   4 -12    3205     214                                                        3996    1.67   -0.87  1.0000
   9  -4  13    2361     220                                                        3078    0.16    2.72  1.0000
  -9   4 -13    2800     201                                                        3574    0.16   -2.72  1.0000
   9  -4  14    2853     211                                                        2278   -0.33    2.36  1.0000
  -9   4 -14    2702     202                                                        2141   -0.33   -2.36  1.0000
   9  -4  15    3295     279                                                        3540    0.26   -1.39  1.0000
  -9   4 -15    2789     230                                                        3013    0.26    1.39  1.0000
   9  -4  16     623     177                                                         527    0.99    2.58  1.0000
  -9   4 -16     656     155                                                         558    0.99   -2.58  1.0000
   9  -4  17    1440     202                                                        1261    0.96   -1.41  1.0000
  -9   4 -17    1613     190                                                        1426    0.96    1.41  1.0000
   9  -4  18     801     245                                                         451    1.88    0.72  1.0000
  -9   4 -18     377     193                                                         149    1.88   -0.72  1.0000
   9  -4  19     189     266                                                         129    0.06   -1.15  1.0000
  -9   4 -19     237     274                                                         172    0.06    1.15  1.0000
   9  -3   0   29467     191                                                        7176  -22.16   -2.74  1.0000
   9  -3   1   87020     902                                                       91850    2.50    2.32  1.0000
  -9   3  -1   89244    1084                                                       93320    2.50   -2.32  1.0000
   9  -3   2   88550    1012                                                      100100    2.85    6.65  1.0000
  -9   3  -2   84981    1168                                                       94800    2.85   -6.65  1.0000
   9  -3   3  169905    1677                                                      171700    1.34   -7.03  1.0000
  -9   3  -3  167108    1898                                                      170900    1.34    7.03  1.0000
   9  -3   4  130441    1443                                                      126400   -1.02   -7.21  1.0000
  -9   3  -4  127602    1507                                                      125500   -1.02    7.21  1.0000
   9  -3   5  316676    3505                                                      340300    5.25   -0.68  1.0000
  -9   3  -5  324019    3981                                                      347800    5.25    0.68  1.0000
   9  -3   6  191310    2180                                                      204100    6.47   -3.89  1.0000
  -9   3  -6  174230    2034                                                      188000    6.47    3.89  1.0000
   9  -3   8   68502     823                                                       68290    0.82   -2.88  1.0000
  -9   3  -8   63265     788                                                       63720    0.82    2.88  1.0000
   9  -3   9   55781     723                                                       52740   -1.93    1.91  1.0000
  -9   3  -9   55096     716                                                       51660   -1.93   -1.91  1.0000
   9  -3  10   35365     535                                                       34980   -0.05   -0.95  1.0000
  -9   3 -10   35292     570                                                       35070   -0.05    0.95  1.0000
   9  -3  11   14342     358                                                       15390    1.10    0.14  1.0000
  -9   3 -11   14214     343                                                       15230    1.10   -0.14  1.0000
   9  -3  12   14202     464                                                       15900    1.42   -1.69  1.0000
  -9   3 -12   16038     411                                                       18010    1.42    1.69  1.0000
   9  -3  13   23568     522                                                       24510    1.17   -0.77  1.0000
  -9   3 -13   21290     476                                                       22320    1.17    0.77  1.0000
   9  -3  14    2611     216                                                        2978    1.52   -0.41  1.0000
  -9   3 -14    4185     262                                                        4590    1.52    0.41  1.0000
   9  -3  15    7507     364                                                        8126    1.07   -0.26  1.0000
  -9   3 -15    6503     322                                                        7131    1.07    0.26  1.0000
   9  -3  16    5029     272                                                        4498   -0.62   -4.10  1.0000
  -9   3 -16    4455     294                                                        4284   -0.62    4.10  1.0000
   9  -3  17    3437     301                                                        3212   -0.68   -1.21  1.0000
  -9   3 -17    3297     271                                                        3167   -0.68    1.21  1.0000
   9  -3  18    3017     276                                                        2839   -0.34    0.55  1.0000
  -9   3 -18    3216     285                                                        3005   -0.34   -0.55  1.0000
   9  -2   0    2604     143                                                        4690   -4.35    3.40  1.0000
   9  -2   1    2900     126                                                        4687   -0.99    4.19  1.0000
  -9   2  -1    2420     142                                                        4045   -0.99   -4.19  1.0000
   9  -2   2   16981     122                                                        5072   10.68  -21.96  1.0000
  -9   2  -2   16661     150                                                        5063   10.68   21.96  1.0000
   9  -2   3   11620      96                                                        3244   10.37   12.87  1.0000
  -9   2  -3   12201     132                                                        3584   10.37  -12.87  1.0000
   9  -2   4     436      74                                                         500    1.11    5.94  1.0000
  -9   2  -4     449     114                                                         428    1.11   -5.94  1.0000
   9  -2   5   86358    1130                                                      101800    4.97   -4.13  1.0000
  -9   2  -5   87280    1176                                                      102800    4.97    4.13  1.0000
   9  -2   6   49755     652                                                       48860    2.54    6.30  1.0000
  -9   2  -6   49321     613                                                       48360    2.54   -6.30  1.0000
   9  -2   7   12485     277                                                       15510   -0.81    8.86  1.0000
  -9   2  -7   12837     297                                                       15830   -0.81   -8.86  1.0000
   9  -2   8    3299     161                                                        3520    0.62   -0.22  1.0000
  -9   2  -8    3283     177                                                        3507    0.62    0.22  1.0000
   9  -2   9     632     114                                                         628   -0.26    2.57  1.0000
  -9   2  -9     690     143                                                         666   -0.26   -2.57  1.0000
   9  -2  10    2766     166                                                        2690    0.13    5.71  1.0000
  -9   2 -10    2773     163                                                        2643    0.13   -5.71  1.0000
   9  -2  11    3457     216                                                        3090   -0.35   -1.55  1.0000
  -9   2 -11    3262     192                                                        2915   -0.35    1.55  1.0000
   9  -2  12    1607     190                                                        1976    1.34    3.32  1.0000
  -9   2 -12    1420     209                                                        1736    1.34   -3.32  1.0000
   9  -2  13    1240     145                                                         553   -2.94   -1.42  1.0000
  -9   2 -13     162     155                                                         -12   -2.94    1.42  1.0000
   9  -2  14     827     161                                                         686    1.43   -0.35  1.0000
  -9   2 -14     695     157                                                         566    1.43    0.35  1.0000
   9  -2  15     205     161                                                         304   -0.11   -1.28  1.0000
  -9   2 -15     387     173                                                         528   -0.11    1.28  1.0000
   9  -2  16     986     168                                                         935    0.10    1.47  1.0000
  -9   2 -16     622     164                                                         574    0.10   -1.47  1.0000
   9  -2  17       4     159                                                           2    0.11   -0.88  1.0000
  -9   2 -17      25     147                                                          71    0.11    0.88  1.0000
   9  -2  18     110     200                                                         276   -0.95   -1.36  1.0000
  -9   2 -18     155     193                                                         346   -0.95    1.36  1.0000
   9  -1   0     944      92                                                        1032   -0.33   -1.95  1.0000
   9  -1   1   41113     539                                                       45400    0.21    8.80  1.0000
  -9   1  -1   40998     538                                                       45390    0.21   -8.80  1.0000
   9  -1   2   14403     165                                                        8088  -13.23    4.76  1.0000
  -9   1  -2   14258     188                                                        7968  -13.23   -4.76  1.0000
   9  -1   3   47187     505                                                       32210   14.91    0.50  1.0000
  -9   1  -3   47742     617                                                       32580   14.91   -0.50  1.0000
   9  -1   4    6109     280                                                        9727    3.98   -4.29  1.0000
  -9   1  -4    5635     244                                                        9087    3.98    4.29  1.0000
   9  -1   5    9825     355                                                       18750   -1.03    9.72  1.0000
  -9   1  -5   10192     361                                                       19260   -1.03   -9.72  1.0000
   9  -1   6    5186     170                                                        6394   -3.75    9.29  1.0000
  -9   1  -6    5640     205                                                        7116   -3.75   -9.29  1.0000
   9  -1   7   48583     598                                                       47780   -6.39   -3.28  1.0000
  -9   1  -7   49384     631                                                       48560   -6.39    3.28  1.0000
   9  -1   8    6077     254                                                       10810   -0.53    6.83  1.0000
  -9   1  -8    6541     301                                                       11430   -0.53   -6.83  1.0000
   9  -1   9    1472     129                                                         583    5.68   -1.05  1.0000
  -9   1  -9    1320     109                                                         475    5.68    1.05  1.0000
   9  -1  10    2295     146                                                        1836   -1.21   -0.51  1.0000
  -9   1 -10    2828     153                                                        2317   -1.21    0.51  1.0000
   9  -1  11     731     147                                                        1151   -2.25    2.72  1.0000
  -9   1 -11     898     143                                                        1378   -2.25   -2.72  1.0000
   9  -1  12    6426     241                                                        4671   -2.99   -2.76  1.0000
  -9   1 -12    6271     252                                                        4538   -2.99    2.76  1.0000
   9  -1  13    2652     186                                                        2406   -1.27    1.22  1.0000
  -9   1 -13    2782     189                                                        2535   -1.27   -1.22  1.0000
   9  -1  14       1     144                                                         -18   -0.24    0.02  1.0000
  -9   1 -14     383     156                                                         402   -0.24   -0.02  1.0000
   9  -1  15    2305     252                                                        2867   -1.41   -0.29  1.0000
  -9   1 -15    2550     247                                                        3141   -1.41    0.29  1.0000
   9  -1  16     825     245                                                        1060   -1.29   -0.23  1.0000
  -9   1 -16    1152     225                                                        1432   -1.29    0.23  1.0000
   9  -1  17     226     169                                                         298   -0.43    0.49  1.0000
  -9   1 -17      58     168                                                          97   -0.43   -0.49  1.0000
   9  -1  18      27     228                                                        -311    0.70   -1.14  1.0000
  -9   1 -18     323     230                                                         334    0.70    1.14  1.0000
   9   0   0   15033     422                                                       16840    1.81    0.41  1.0000
   9   0   1   56886     502                                                       41080   -9.14   -1.12  1.0000
   9   0   2   79410     889                                                       69260   -4.64   -3.62  1.0000
   9   0   3    2458     351                                                       16780   20.73    0.85  1.0000
   9   0   4  672712    7693                                                      645700   -4.32    2.05  1.0000
   9   0   5   15087     364                                                       19160    3.65    2.06  1.0000
   9   0   6  110371    1590                                                      125900    5.77    0.70  1.0000
   9   0   7   59753     577                                                       42040  -10.43    2.90  1.0000
   9   0   8   88923    1338                                                       82110   -3.01    0.34  1.0000
   9   0   9   49096     661                                                       42150   -4.31    1.76  1.0000
   9   0  10   64874     764                                                       56960   -4.08   -0.98  1.0000
   9   0  11   37773     578                                                       36400   -0.93    0.30  1.0000
   9   0  12    9299     322                                                        8042   -1.81    0.64  1.0000
   9   0  13     352     142                                                         227   -1.14    0.20  1.0000
   9   0  14   24260     524                                                       25810    1.24    0.38  1.0000
   9   0  15    1020     200                                                         764   -1.15    0.06  1.0000
   9   0  16    5505     264                                                        4967   -0.92   -0.65  1.0000
   9   0  17    1285     199                                                        1307    0.06    0.16  1.0000
   9   0  18    5434     404                                                        4563   -1.60    0.20  1.0000
  10  -5   0     330     184                                                        3781   10.97   -2.04  1.0000
  10  -5   1   79908     812                                                       69840    4.77   -1.31  1.0000
  10  -5   2   20967     256                                                        9623   11.92    1.49  1.0000
  10  -5   3  118884     921                                                       66720   22.30   -2.36  1.0000
  10  -5   4      65     160                                                        3941  -14.02   -1.99  1.0000
  10  -5   5  134881    1339                                                      112600    8.11    1.20  1.0000
  10  -5   6    1426     111                                                         294   13.81    0.52  1.0000
  10  -5   7   46535     641                                                       50500   -2.25   -1.17  1.0000
  10  -5   8    5150     173                                                        4012    2.18   -0.01  1.0000
  10  -5   9   23434     335                                                       16200    6.76   -1.65  1.0000
  10  -5  10   18793     383                                                       20250   -1.33   -0.13  1.0000
  10  -5  11     471     139                                                         405    5.60   -3.91  1.0000
  10  -5  12     330     136                                                         498   -1.00   -0.39  1.0000
  10  -5  13   15421     401                                                       16080   -0.67   -0.24  1.0000
  10  -5  14    5933     291                                                        8294    3.61    0.26  1.0000
  10  -5  15    5151     290                                                        5557   -0.73    0.73  1.0000
  10  -5  16    1049     170                                                        1144   -0.28   -0.74  1.0000
  10  -5  17    2019     236                                                        2014    0.15   -1.28  1.0000
  10  -5  18      15     219                                                         117   -1.74   -0.39  1.0000
  10  -4   0    2518      79                                                          93   15.25    1.76  1.0000
  10  -4   1   11251     254                                                       16830    7.70    1.48  1.0000
 -10   4  -1   10400     303                                                       15880    7.70   -1.48  1.0000
  10  -4   2    9863     206                                                       11330    0.18    2.47  1.0000
 -10   4  -2    9657     230                                                       11070    0.18   -2.47  1.0000
  10  -4   3   16941     249                                                       15860    9.72    0.47  1.0000
 -10   4  -3   16302     363                                                       15210    9.72   -0.47  1.0000
  10  -4   4   75389    1049                                                       77960    0.06   -5.22  1.0000
 -10   4  -4   75926    1002                                                       78730    0.06    5.22  1.0000
  10  -4   5   22734     383                                                       27710    1.81    3.61  1.0000
 -10   4  -5   21464     388                                                       26310    1.81   -3.61  1.0000
  10  -4   6   38548     562                                                       44020    3.68    0.97  1.0000
 -10   4  -6   38651     569                                                       44070    3.68   -0.97  1.0000
  10  -4   7    9122     210                                                        6752    3.40    3.50  1.0000
 -10   4  -7   10283     223                                                        7758    3.40   -3.50  1.0000
  10  -4   8    1258     112                                                         806   -2.21   -0.28  1.0000
 -10   4  -8    1189     119                                                         725   -2.21    0.28  1.0000
  10  -4   9     336     112                                                         561    1.12   -1.06  1.0000
 -10   4  -9     430     127                                                         672    1.12    1.06  1.0000
  10  -4  10    6385     235                                                        7079    0.66    2.35  1.0000
 -10   4 -10    6164     260                                                        6801    0.66   -2.35  1.0000
  10  -4  11     459     120                                                         338    0.71   -0.89  1.0000
 -10   4 -11     682     127                                                         560    0.71    0.89  1.0000
  10  -4  12    3680     232                                                        3006    0.97    1.20  1.0000
 -10   4 -12    4395     197                                                        3658    0.97   -1.20  1.0000
  10  -4  13    1239     151                                                         920    1.39   -0.28  1.0000
 -10   4 -13     746     158                                                         512    1.39    0.28  1.0000
  10  -4  14    1352     161                                                        1062   -0.72   -0.91  1.0000
 -10   4 -14    1750     177                                                        1425   -0.72    0.91  1.0000
  10  -4  15     335     163                                                         384   -0.19   -0.44  1.0000
 -10   4 -15      43     146                                                          61   -0.19    0.44  1.0000
  10  -4  16    4352     260                                                        4930    1.02    0.58  1.0000
 -10   4 -16    4091     280                                                        4656    1.02   -0.58  1.0000
  10  -4  17     160     166                                                         245    0.69    0.46  1.0000
 -10   4 -17      85     171                                                         145    0.69   -0.46  1.0000
  10  -4  18     311     206                                                         470    2.11   -1.20  1.0000
 -10   4 -18     242     187                                                         393    2.11    1.20  1.0000
  10  -3   0    2309     100                                                         225  -14.75   -6.08  1.0000
  10  -3   1    7418     190                                                       10570    2.80    3.52  1.0000
 -10   3  -1    6658     215                                                        9682    2.80   -3.52  1.0000
  10  -3   2    8036     141                                                        5462    4.07   -0.10  1.0000
 -10   3  -2    7468     156                                                        4982    4.07    0.10  1.0000
  10  -3   3   53443     479                                                       40760   -5.47   -7.53  1.0000
 -10   3  -3   50517     595                                                       38210   -5.47    7.53  1.0000
  10  -3   4   10131     211                                                       10530    4.26   -2.95  1.0000
 -10   3  -4    9454     220                                                       10010    4.26    2.95  1.0000
  10  -3   5    8122     233                                                       13570    6.89    5.76  1.0000
 -10   3  -5    8943     263                                                       14390    6.89   -5.76  1.0000
  10  -3   6     438      89                                                         419   -3.87    1.99  1.0000
 -10   3  -6     700     100                                                         627   -3.87   -1.99  1.0000
  10  -3   7   36982     594                                                       46400    6.86   -0.15  1.0000
 -10   3  -7   36323     600                                                       45570    6.86    0.15  1.0000
  10  -3   8   15745     359                                                       15870    1.59    1.18  1.0000
 -10   3  -8   16140     390                                                       16230    1.59   -1.18  1.0000
  10  -3   9    1572     130                                                        1601    8.45    1.32  1.0000
 -10   3  -9    1876     148                                                        1873    8.45   -1.32  1.0000
  10  -3  10     188     121                                                         277    0.55   -0.63  1.0000
 -10   3 -10     138     124                                                         221    0.55    0.63  1.0000
  10  -3  11     602     121                                                         381    0.51    1.92  1.0000
 -10   3 -11     824     134                                                         532    0.51   -1.92  1.0000
  10  -3  12    1513     164                                                        1366   -3.80   -0.33  1.0000
 -10   3 -12    1619     159                                                        1476   -3.80    0.33  1.0000
  10  -3  13    3309     225                                                        4101    0.83    1.66  1.0000
 -10   3 -13    2973     220                                                        3714    0.83   -1.66  1.0000
  10  -3  14    2180     209                                                        2571    0.93    0.72  1.0000
 -10   3 -14    2099     213                                                        2487    0.93   -0.72  1.0000
  10  -3  15    1473     167                                                        1105   -1.48    0.58  1.0000
 -10   3 -15    1016     166                                                         703   -1.48   -0.58  1.0000
  10  -3  16     340     161                                                         449    2.09   -0.67  1.0000
 -10   3 -16     391     160                                                         537    2.09    0.67  1.0000
  10  -3  17     350     191                                                         345   -0.16    0.21  1.0000
 -10   3 -17     114     191                                                         109   -0.16   -0.21  1.0000
  10  -3  18      61     189                                                         291   -1.05   -2.15  1.0000
 -10   3 -18      98     245                                                         370   -1.05    2.15  1.0000
  10  -2   0     862     105                                                         375   -5.11    8.12  1.0000
  10  -2   1   22641     380                                                       25190   -3.53   -1.92  1.0000
 -10   2  -1   26589     388                                                       28920   -3.53    1.92  1.0000
  10  -2   2  147163    1283                                                      133400   -4.33   -9.14  1.0000
 -10   2  -2  160128    1831                                                      145100   -4.33    9.14  1.0000
  10  -2   3   45571     674                                                       57200   10.01    4.20  1.0000
 -10   2  -3   53238     859                                                       65420   10.01   -4.20  1.0000
  10  -2   4  381898    4445                                                      391000   -6.41   -6.95  1.0000
 -10   2  -4  397615    6189                                                      405900   -6.41    6.95  1.0000
  10  -2   5    3811     103                                                        2719    3.59   -1.62  1.0000
 -10   2  -5    5887     188                                                        4609    3.59    1.62  1.0000
  10  -2   6   83609     893                                                       83220    0.19   -0.18  1.0000
 -10   2  -6   84045     996                                                       83630    0.19    0.18  1.0000
  10  -2   7    6445     184                                                        7736   -1.56    1.97  1.0000
 -10   2  -7    7114     213                                                        8608   -1.56   -1.97  1.0000
  10  -2   8   22726     493                                                       29870   -2.55   -5.06  1.0000
 -10   2  -8   20694     646                                                       27540   -2.55    5.06  1.0000
  10  -2   9   32085     524                                                       33080   -2.18    4.85  1.0000
 -10   2  -9   30625     525                                                       32090   -2.18   -4.85  1.0000
  10  -2  10   11794     305                                                       12780   -0.26   -1.11  1.0000
 -10   2 -10    9675     276                                                       10570   -0.26    1.11  1.0000
  10  -2  11   33979     608                                                       38030   -1.79   -2.24  1.0000
 -10   2 -11   34020     595                                                       38010   -1.79    2.24  1.0000
  10  -2  12    1467     156                                                        1534   -0.33    1.22  1.0000
 -10   2 -12    1257     176                                                        1391   -0.33   -1.22  1.0000
  10  -2  13    3165     244                                                        3420    1.25   -0.48  1.0000
 -10   2 -13    2684     212                                                        2926    1.25    0.48  1.0000
  10  -2  14    9566     363                                                       10290   -1.77   -1.75  1.0000
 -10   2 -14   10677     333                                                       11330   -1.77    1.75  1.0000
  10  -2  15    2833     225                                                        2648    0.99   -0.84  1.0000
 -10   2 -15    3415     234                                                        3195    0.99    0.84  1.0000
  10  -2  16    3535     264                                                        3854   -0.66   -0.16  1.0000
 -10   2 -16    3196     234                                                        3496   -0.66    0.16  1.0000
  10  -2  17    1592     229                                                        1470   -0.80   -1.07  1.0000
 -10   2 -17    2150     222                                                        1984   -0.80    1.07  1.0000
  10  -2  18    1419     252                                                        1252    0.56   -0.33  1.0000
 -10   2 -18    2134     317                                                        1919    0.56    0.33  1.0000
  10  -1   0    3999     424                                                       23560  -21.68   -9.17  1.0000
  10  -1   1     330      92                                                         416    1.45   -3.19  1.0000
 -10   1  -1     270      87                                                         396    1.45    3.19  1.0000
  10  -1   2   11244     180                                                        9336    7.56    6.61  1.0000
 -10   1  -2   12164     241                                                       10090    7.56   -6.61  1.0000
  10  -1   3    9631     153                                                        5642   -9.54   -6.16  1.0000
 -10   1  -3    9878     163                                                        6156   -9.54    6.16  1.0000
  10  -1   4   75335    1086                                                       82290    6.87    2.99  1.0000
 -10   1  -4   72604    1117                                                       79440    6.87   -2.99  1.0000
  10  -1   5   26813     510                                                       24240    3.68   13.89  1.0000
 -10   1  -5   28650     470                                                       25590    3.68  -13.89  1.0000
  10  -1   6    6471     209                                                        4810    1.39   -9.03  1.0000
 -10   1  -6    5508     185                                                        4158    1.39    9.03  1.0000
  10  -1   7     896     106                                                        1703   -2.25    4.91  1.0000
 -10   1  -7     621      89                                                        1188   -2.25   -4.91  1.0000
  10  -1   8    3285     126                                                        2707   -1.41   -0.67  1.0000
 -10   1  -8    3310     155                                                        2720   -1.41    0.67  1.0000
  10  -1   9    6140     197                                                        5136    0.06    2.06  1.0000
 -10   1  -9    6188     194                                                        5168    0.06   -2.06  1.0000
  10  -1  10     361     109                                                          79    1.54    3.32  1.0000
 -10   1 -10     815     120                                                         365    1.54   -3.32  1.0000
  10  -1  11    2129     177                                                        1876    0.76    0.34  1.0000
 -10   1 -11    2513     177                                                        2242    0.76   -0.34  1.0000
  10  -1  12    3190     195                                                        3102    0.12    0.18  1.0000
 -10   1 -12    2917     203                                                        2832    0.12   -0.18  1.0000
  10  -1  13     900     176                                                         909   -2.42   -0.25  1.0000
 -10   1 -13    1254     174                                                        1295   -2.42    0.25  1.0000
  10  -1  14     371     157                                                         649   -1.26    0.98  1.0000
 -10   1 -14     308     158                                                         563   -1.26   -0.98  1.0000
  10  -1  15    3613     249                                                        3387   -0.30   -0.40  1.0000
 -10   1 -15    3822     253                                                        3591   -0.30    0.40  1.0000
  10  -1  16     255     163                                                         370    0.74   -0.58  1.0000
 -10   1 -16     361     166                                                         500    0.74    0.58  1.0000
  10  -1  17     476     191                                                         380   -0.72   -0.06  1.0000
 -10   1 -17     622     197                                                         508   -0.72    0.06  1.0000
  10  -1  18     270     272                                                         253   -0.59    0.73  1.0000
 -10   1 -18     374     246                                                         350   -0.59   -0.73  1.0000
  10   0   0    1132     396                                                       11450   18.87   -2.53  1.0000
  10   0   1    7859     318                                                       17050   10.66   -4.28  1.0000
  10   0   2    2732      96                                                         992  -21.44   -1.40  1.0000
  10   0   3    2303     152                                                        2216   -0.44    1.47  1.0000
  10   0   4     985     160                                                        1125   16.46    0.92  1.0000
  10   0   5   11949     367                                                       14630   -2.97    0.49  1.0000
  10   0   6     979     163                                                        1986  -18.37    3.77  1.0000
  10   0   7     174     131                                                         -31    3.38    0.14  1.0000
  10   0   8      16      97                                                         906   -6.72    0.27  1.0000
  10   0   9   22228     363                                                       20310   -1.69   -0.86  1.0000
  10   0  10     671     131                                                         472   -1.06   -0.32  1.0000
  10   0  11    5059     243                                                        4060   -1.91    0.18  1.0000
  10   0  12    3342     188                                                        2910   -0.99   -0.11  1.0000
  10   0  13    7626     270                                                        7142   -0.72   -0.43  1.0000
  10   0  14     122     154                                                          54   -0.94   -0.06  1.0000
  10   0  15      40     169                                                        -144   -1.53    0.53  1.0000
  10   0  16       4     149                                                         222   -3.35   -0.02  1.0000
  10   0  17     613     274                                                         682   -0.35   -0.36  1.0000
  10   0  18       1     365                                                         -39   -0.27   -0.12  1.0000
  11  -5   0    2571     131                                                        2832  -18.52  -10.72  1.0000
  11  -5   1   31342     306                                                       17530   11.58   -1.16  1.0000
 -11   5  -1   29649     289                                                       16190   11.58    1.16  1.0000
  11  -5   2   52696     457                                                       34650   -1.60  -13.32  1.0000
 -11   5  -2   55421     518                                                       36750   -1.60   13.32  1.0000
  11  -5   3   25653     313                                                       19080  -13.69    3.25  1.0000
 -11   5  -3   26588     390                                                       20140  -13.69   -3.25  1.0000
  11  -5   4   47859     508                                                       37780    4.39   11.31  1.0000
 -11   5  -4   46698     546                                                       37180    4.39  -11.31  1.0000
  11  -5   5   39199     500                                                       38100    3.95   -5.95  1.0000
 -11   5  -5   41150     582                                                       39830    3.95    5.95  1.0000
  11  -5   6   15291     295                                                       15110   -0.92   -0.41  1.0000
 -11   5  -6   15383     301                                                       15180   -0.92    0.41  1.0000
  11  -5   7   26100     358                                                       18610    5.74    3.04  1.0000
 -11   5  -7   27132     350                                                       19510    5.74   -3.04  1.0000
  11  -5   8     638     111                                                         605    3.10   -4.03  1.0000
 -11   5  -8     515     110                                                         286    3.10    4.03  1.0000
  11  -5   9    6876     200                                                        4911    2.90    2.09  1.0000
 -11   5  -9    6807     205                                                        4898    2.90   -2.09  1.0000
  11  -5  10   11054     265                                                       10220    0.26    2.67  1.0000
 -11   5 -10   11224     272                                                       10460    0.26   -2.67  1.0000
  11  -5  11    8408     324                                                        8301   -1.31    6.32  1.0000
 -11   5 -11    8701     286                                                        8799   -1.31   -6.32  1.0000
  11  -5  12     496     148                                                         782   -1.16   -2.36  1.0000
 -11   5 -12     256     132                                                         429   -1.16    2.36  1.0000
  11  -5  13    2311     186                                                        1757   -0.15    5.47  1.0000
 -11   5 -13    1820     174                                                        1387   -0.15   -5.47  1.0000
  11  -5  14    1631     171                                                        1548    1.02    0.05  1.0000
 -11   5 -14    1566     178                                                        1488    1.02   -0.05  1.0000
  11  -5  15     811     194                                                        1154    1.51    0.12  1.0000
 -11   5 -15     967     189                                                        1329    1.51   -0.12  1.0000
  11  -5  16     867     195                                                         989    2.22    1.81  1.0000
 -11   5 -16    1475     195                                                        1685    2.22   -1.81  1.0000
  11  -5  17     570     188                                                         633    0.34    0.43  1.0000
 -11   5 -17     392     188                                                         448    0.34   -0.43  1.0000
  11  -5  18     346     211                                                         509   -0.03   -2.85  1.0000
 -11   5 -18     411     257                                                         566   -0.03    2.85  1.0000
  11  -4   0    9397     228                                                       10530    1.29   12.21  1.0000
  11  -4   1   37654     337                                                       19980   12.37    6.55  1.0000
 -11   4  -1   34101     312                                                       17950   12.37   -6.55  1.0000
  11  -4   2   59208     635                                                       51830    1.39    4.25  1.0000
 -11   4  -2   55184     638                                                       48270    1.39   -4.25  1.0000
  11  -4   3   77938     712                                                       59430    7.90    4.77  1.0000
 -11   4  -3   73382     719                                                       55320    7.90   -4.77  1.0000
  11  -4   4  122730    1506                                                      143500   -3.66   -6.33  1.0000
 -11   4  -4  116349    1640                                                      136600   -3.66    6.33  1.0000
  11  -4   5   92241    1093                                                      104900   -1.53    6.38  1.0000
 -11   4  -5   99487    1284                                                      113000   -1.53   -6.38  1.0000
  11  -4   6   13801     195                                                        7954    7.19    3.58  1.0000
 -11   4  -6   12093     187                                                        6479    7.19   -3.58  1.0000
  11  -4   7   17704     352                                                       19890   -1.65   -1.55  1.0000
 -11   4  -7   16627     327                                                       18640   -1.65    1.55  1.0000
  11  -4   8   16603     347                                                       15920    0.76    0.62  1.0000
 -11   4  -8   16655     388                                                       16040    0.76   -0.62  1.0000
  11  -4   9    9075     251                                                        8612    1.88    2.03  1.0000
 -11   4  -9    9707     261                                                        9420    1.88   -2.03  1.0000
  11  -4  10   16379     326                                                       13870    2.85   -0.35  1.0000
 -11   4 -10   17724     333                                                       15190    2.85    0.35  1.0000
  11  -4  11   12641     320                                                       11780   -1.15   -3.72  1.0000
 -11   4 -11   14959     351                                                       13780   -1.15    3.72  1.0000
  11  -4  12    5755     288                                                        5150    1.90    1.85  1.0000
 -11   4 -12    5491     258                                                        5049    1.90   -1.85  1.0000
  11  -4  13     210     150                                                         478   -0.83   -1.98  1.0000
 -11   4 -13      65     139                                                         152   -0.83    1.98  1.0000
  11  -4  14    1433     178                                                        1311   -0.31    0.65  1.0000
 -11   4 -14    1211     186                                                        1114   -0.31   -0.65  1.0000
  11  -4  15    3135     226                                                        3658   -0.26   -1.28  1.0000
 -11   4 -15    3161     228                                                        3665   -0.26    1.28  1.0000
  11  -4  16      90     167                                                         291   -1.56    1.35  1.0000
 -11   4 -16     252     169                                                         532   -1.56   -1.35  1.0000
  11  -4  17     687     215                                                         680    1.30   -1.63  1.0000
 -11   4 -17     569     191                                                         514    1.30    1.63  1.0000
  11  -4  18     631     211                                                         615    1.73    2.09  1.0000
 -11   4 -18     293     240                                                         277    1.73   -2.09  1.0000
  11  -3   0     238      96                                                         845   -1.77   -5.95  1.0000
  11  -3   1    7131     142                                                        4038   10.93   -8.64  1.0000
 -11   3  -1    8316     181                                                        4827   10.93    8.64  1.0000
  11  -3   2   11577     187                                                        9382   -4.13    0.39  1.0000
 -11   3  -2   10464     214                                                        8292   -4.13   -0.39  1.0000
  11  -3   3   20446     260                                                       16990    8.54  -10.42  1.0000
 -11   3  -3   21772     319                                                       17760    8.54   10.42  1.0000
  11  -3   4   24120     391                                                       30580    6.73   -6.90  1.0000
 -11   3  -4   23048     468                                                       29270    6.73    6.90  1.0000
  11  -3   5   61230     882                                                       83410   -5.32    9.93  1.0000
 -11   3  -5   63425    1062                                                       86100   -5.32   -9.93  1.0000
  11  -3   6    1681     154                                                        6274    6.17   -8.61  1.0000
 -11   3  -6    1181     165                                                        5302    6.17    8.61  1.0000
  11  -3   7    5642     164                                                        5771   -2.72   -1.31  1.0000
 -11   3  -7    6788     197                                                        6870   -2.72    1.31  1.0000
  11  -3   8    2247     149                                                        3557   -2.96    1.23  1.0000
 -11   3  -8    2757     173                                                        4161   -2.96   -1.23  1.0000
  11  -3   9   16219     352                                                       15320   -0.51   -1.63  1.0000
 -11   3  -9   15756     318                                                       14840   -0.51    1.63  1.0000
  11  -3  10     993     156                                                        1670   -0.82    2.78  1.0000
 -11   3 -10     836     142                                                        1497   -0.82   -2.78  1.0000
  11  -3  11    1395     144                                                         986    2.05    0.29  1.0000
 -11   3 -11    1989     160                                                        1528    2.05   -0.29  1.0000
  11  -3  12    3429     175                                                        2638   -0.20   -1.85  1.0000
 -11   3 -12    3348     190                                                        2566   -0.20    1.85  1.0000
  11  -3  13    4158     225                                                        3347   -2.29    3.47  1.0000
 -11   3 -13    3800     230                                                        3078   -2.29   -3.47  1.0000
  11  -3  14    1205     186                                                        1045    0.91    0.95  1.0000
 -11   3 -14     884     165                                                         752    0.91   -0.95  1.0000
  11  -3  15    1927     217                                                        2359   -0.84   -0.86  1.0000
 -11   3 -15    2378     230                                                        2854   -0.84    0.86  1.0000
  11  -3  16     533     158                                                         401   -1.26    1.28  1.0000
 -11   3 -16     441     158                                                         328   -1.26   -1.28  1.0000
  11  -3  17     344     206                                                         238    1.35   -0.83  1.0000
 -11   3 -17     599     210                                                         450    1.35    0.83  1.0000
  11  -3  18    1017     247                                                        1102   -0.91   -1.07  1.0000
 -11   3 -18     748     256                                                         804   -0.91    1.07  1.0000
  11  -2   0   11294     196                                                        7266    5.90   -2.17  1.0000
  11  -2   1   25573     339                                                       21370    3.66    1.27  1.0000
 -11   2  -1   24539     342                                                       20390    3.66   -1.27  1.0000
  11  -2   2    2082     150                                                        4591   -5.88   -0.85  1.0000
 -11   2  -2    1512     150                                                        3758   -5.88    0.85  1.0000
  11  -2   3   20816     302                                                       21570   -3.98   -1.97  1.0000
 -11   2  -3   20095     354                                                       20790   -3.98    1.97  1.0000
  11  -2   4    3442      94                                                        2556    3.35  -13.22  1.0000
 -11   2  -4    3873     187                                                        2822    3.35   13.22  1.0000
  11  -2   5    3074     151                                                        1989   -0.05   -2.88  1.0000
 -11   2  -5    3041     149                                                        1957   -0.05    2.88  1.0000
  11  -2   6    1217     110                                                        3687   -2.96    6.66  1.0000
 -11   2  -6    1151     180                                                        3560   -2.96   -6.66  1.0000
  11  -2   7    2237     105                                                        2556    1.05   -0.59  1.0000
 -11   2  -7    2577     158                                                        2895    1.05    0.59  1.0000
  11  -2   8    2851     111                                                        1766   -0.72    3.99  1.0000
 -11   2  -8    3008     133                                                        1943   -0.72   -3.99  1.0000
  11  -2   9    1023     145                                                        2063    1.52   -5.46  1.0000
 -11   2  -9    1043     143                                                        2038    1.52    5.46  1.0000
  11  -2  10    9621     285                                                        9927    0.04   -1.96  1.0000
 -11   2 -10    9506     280                                                        9766    0.04    1.96  1.0000
  11  -2  11    1064     160                                                        1362   -0.83   -0.84  1.0000
 -11   2 -11    1163     167                                                        1465   -0.83    0.84  1.0000
  11  -2  12    8182     276                                                        8766   -1.16   -0.65  1.0000
 -11   2 -12    8653     298                                                        9236   -1.16    0.65  1.0000
  11  -2  13    1000     169                                                        1186   -0.45   -1.42  1.0000
 -11   2 -13    1170     178                                                        1351   -0.45    1.42  1.0000
  11  -2  14     525     189                                                         897    1.24   -1.53  1.0000
 -11   2 -14     417     183                                                         757    1.24    1.53  1.0000
  11  -2  15    1024     166                                                         805   -1.28   -1.23  1.0000
 -11   2 -15    1056     165                                                         817   -1.28    1.23  1.0000
  11  -2  16     351     162                                                         394   -0.76   -0.79  1.0000
 -11   2 -16     444     197                                                         489   -0.76    0.79  1.0000
  11  -2  17     335     282                                                         509    1.08   -0.25  1.0000
 -11   2 -17     357     244                                                         537    1.08    0.25  1.0000
  11  -2  18      29     252                                                           8   -0.82   -0.99  1.0000
 -11   2 -18      25     266                                                        -221   -0.82    0.99  1.0000
  11  -1   0    8436     262                                                       10680   -3.04    2.58  1.0000
  11  -1   1   40305     566                                                       38280   -1.31    4.65  1.0000
 -11   1  -1   37359     470                                                       35870   -1.31   -4.65  1.0000
  11  -1   2  101850    1448                                                      138900    3.90  -15.83  1.0000
 -11   1  -2   96539    1464                                                      132300    3.90   15.83  1.0000
  11  -1   3   98909    1068                                                       91670    8.92    1.23  1.0000
 -11   1  -3   91623    1034                                                       84450    8.92   -1.23  1.0000
  11  -1   4   28695     780                                                       53280  -12.51   11.13  1.0000
 -11   1  -4   30411     767                                                       56270  -12.51  -11.13  1.0000
  11  -1   5   14683     372                                                       16990    7.29   -5.79  1.0000
 -11   1  -5   12676     340                                                       14380    7.29    5.79  1.0000
  11  -1   6   35395     574                                                       32560    7.82    5.18  1.0000
 -11   1  -6   36663     598                                                       34390    7.82   -5.18  1.0000
  11  -1   7    6683     328                                                       10960   -7.16   -1.26  1.0000
 -11   1  -7    8287     349                                                       12540   -7.16    1.26  1.0000
  11  -1   8   34736     510                                                       36180   -1.84   -3.12  1.0000
 -11   1  -8   35717     510                                                       36870   -1.84    3.12  1.0000
  11  -1   9    5416     180                                                        3643    0.48    3.42  1.0000
 -11   1  -9    4439     191                                                        2866    0.48   -3.42  1.0000
  11  -1  10   30060     517                                                       30570   -0.38    0.04  1.0000
 -11   1 -10   31314     589                                                       31830   -0.38   -0.04  1.0000
  11  -1  11   11994     311                                                       11270   -1.38   -1.20  1.0000
 -11   1 -11   12875     348                                                       12100   -1.38    1.20  1.0000
  11  -1  12    7027     266                                                        7584   -0.54    1.93  1.0000
 -11   1 -12    6537     274                                                        7177   -0.54   -1.93  1.0000
  11  -1  13    4200     230                                                        4757    0.31    1.71  1.0000
 -11   1 -13    5068     270                                                        5730    0.31   -1.71  1.0000
  11  -1  14    2809     253                                                        2939    0.44   -0.99  1.0000
 -11   1 -14    2538     252                                                        2616    0.44    0.99  1.0000
  11  -1  15    1189     184                                                        1333   -0.96    0.13  1.0000
 -11   1 -15     960     175                                                        1112   -0.96   -0.13  1.0000
  11  -1  16    1655     182                                                        1430   -0.70    1.58  1.0000
 -11   1 -16    1857     202                                                        1667   -0.70   -1.58  1.0000
  11  -1  17     359     184                                                         363    0.55   -1.54  1.0000
 -11   1 -17     358     238                                                         312    0.55    1.54  1.0000
  11  -1  18     704     285                                                         815   -0.47   -0.21  1.0000
 -11   1 -18     504     274                                                         597   -0.47    0.21  1.0000
  11   0   0     326     186                                                        2411   -1.53  -13.25  1.0000
  11   0   1     856     125                                                        1430   -2.26    1.54  1.0000
  11   0   2   22894     341                                                       21180    1.54   -1.75  1.0000
  11   0   3    1848     148                                                        1191   -2.20    0.01  1.0000
  11   0   4    7591     197                                                        4172    5.95   -1.25  1.0000
  11   0   5    1370     157                                                        2219   -2.59    1.82  1.0000
  11   0   6   22780     455                                                       21070    1.61   -2.20  1.0000
  11   0   7    5507     325                                                       11830   -8.88    0.71  1.0000
  11   0   8    3339     200                                                        3603   -0.49   -0.98  1.0000
  11   0   9      61      90                                                         333   -2.76    0.51  1.0000
  11   0  10     153     110                                                         623    3.29    0.27  1.0000
  11   0  11     164     131                                                         217    0.51    0.20  1.0000
  11   0  12     330     130                                                         194   -1.16   -0.41  1.0000
  11   0  13     242     147                                                          99   -1.44   -0.01  1.0000
  11   0  14     682     217                                                        1311   -2.58   -0.13  1.0000
  11   0  15     563     178                                                         378    1.16   -0.42  1.0000
  11   0  16    2411     246                                                        2600   -0.49    0.25  1.0000
  11   0  17     481     272                                                         430    0.30    0.60  1.0000
  12  -6   0  232420    3976                                                      282100   12.54    1.35  1.0000
  12  -6   1  109678    1373                                                      130300    7.64    0.17  1.0000
  12  -6   2   80304     928                                                       83320    1.34    0.21  1.0000
  12  -6   3  134512    2314                                                      184700   16.13    1.15  1.0000
  12  -6   4   52639     518                                                       31310  -13.47   -0.32  1.0000
  12  -6   5  222441    2476                                                      219600   -0.81    1.09  1.0000
  12  -6   6   12058     366                                                       19900    8.06   -0.09  1.0000
  12  -6   7     443      99                                                         180   -1.82   -0.86  1.0000
  12  -6   8   37496     618                                                       40420    1.84    0.88  1.0000
  12  -6   9   23258     433                                                       26070    2.33   -0.54  1.0000
  12  -6  10   52965     735                                                       54360    0.80   -0.81  1.0000
  12  -6  11   14095     374                                                       14300    0.30   -2.10  1.0000
  12  -6  12   19632     461                                                       20040    0.41   -0.92  1.0000
  12  -6  13     782     155                                                         964    0.86   -0.22  1.0000
  12  -6  14    2687     195                                                        2378   -0.88    0.63  1.0000
  12  -6  15   11499     397                                                       11150   -0.43    0.09  1.0000
  12  -6  16     774     163                                                         553   -1.05   -0.39  1.0000
  12  -6  17    2590     294                                                        3219    1.51   -0.11  1.0000
  12  -6  18     433     285                                                         918    2.48   -0.32  1.0000
  12  -5   0    1845     134                                                        2799   -2.54    2.63  1.0000
  12  -5   1    3991     159                                                        5771   -2.82   -2.23  1.0000
 -12   5  -1    3474     169                                                        5155   -2.82    2.23  1.0000
  12  -5   2    1636     134                                                        2795   -4.11    0.65  1.0000
 -12   5  -2    1233     143                                                        2226   -4.11   -0.65  1.0000
  12  -5   3   24745     283                                                       15870   -7.65  -10.58  1.0000
 -12   5  -3   25293     402                                                       16460   -7.65   10.58  1.0000
  12  -5   4    2477     164                                                        6023   -3.83  -15.40  1.0000
 -12   5  -4    2295     175                                                        5828   -3.83   15.40  1.0000
  12  -5   5    2048     121                                                        2131   -3.46   -3.47  1.0000
 -12   5  -5    2440     144                                                        2586   -3.46    3.47  1.0000
  12  -5   6    6308     221                                                        9440   -4.03  -11.17  1.0000
 -12   5  -6    6951     234                                                       10410   -4.03   11.17  1.0000
  12  -5   7   12919     420                                                       16890    1.80   -3.81  1.0000
 -12   5  -7   12684     383                                                       16620    1.80    3.81  1.0000
  12  -5   8    1563     146                                                        1694   -5.85   -1.24  1.0000
 -12   5  -8    1355     131                                                        1449   -5.85    1.24  1.0000
  12  -5   9   26219     434                                                       26260    0.04   -0.01  1.0000
 -12   5  -9   26539     443                                                       26580    0.04    0.01  1.0000
  12  -5  10    2108     171                                                        2670    1.41   -0.63  1.0000
 -12   5 -10    2035     192                                                        2587    1.41    0.63  1.0000
  12  -5  11    3934     189                                                        2917   -1.36   -2.12  1.0000
 -12   5 -11    3260     183                                                        2343   -1.36    2.12  1.0000
  12  -5  12    3137     213                                                        2833   -0.72    1.23  1.0000
 -12   5 -12    3511     196                                                        3190   -0.72   -1.23  1.0000
  12  -5  13    3602     202                                                        3467    0.43   -0.75  1.0000
 -12   5 -13    2748     192                                                        2631    0.43    0.75  1.0000
  12  -5  14    1168     160                                                        1064    0.31   -0.25  1.0000
 -12   5 -14    1012     160                                                         915    0.31    0.25  1.0000
  12  -5  15      95     152                                                         220   -0.81    1.05  1.0000
 -12   5 -15     134     182                                                         278   -0.81   -1.05  1.0000
  12  -5  16     528     171                                                         375    0.80   -3.10  1.0000
 -12   5 -16     625     171                                                         473    0.80    3.10  1.0000
  12  -5  17     119     179                                                         201    1.05   -0.01  1.0000
 -12   5 -17       5     178                                                          19    1.05    0.01  1.0000
  12  -5  18     375     274                                                         396    0.05   -0.16  1.0000
 -12   5 -18     960     303                                                         994    0.05    0.16  1.0000
  12  -4   0    4398     208                                                        9367    7.73   -3.32  1.0000
  12  -4   1    7410     161                                                        5421   -2.21    7.61  1.0000
 -12   4  -1    7478     180                                                        5505   -2.21   -7.61  1.0000
  12  -4   2   19969     510                                                       40150    4.44  -15.15  1.0000
 -12   4  -2   20052     606                                                       40270    4.44   15.15  1.0000
  12  -4   3    6612     156                                                        5286    2.87   -1.98  1.0000
 -12   4  -3    6899     191                                                        5536    2.87    1.98  1.0000
  12  -4   4   12453     156                                                        6623  -10.05   -1.99  1.0000
 -12   4  -4   12263     196                                                        6469  -10.05    1.99  1.0000
  12  -4   5   29819     490                                                       39300   12.51   -8.54  1.0000
 -12   4  -5   30220     604                                                       39780   12.51    8.54  1.0000
  12  -4   6    3375     119                                                        2568    1.83   -0.84  1.0000
 -12   4  -6    3072     132                                                        2304    1.83    0.84  1.0000
  12  -4   7    1352     104                                                         865   -1.20   -1.57  1.0000
 -12   4  -7    1514     126                                                         997   -1.20    1.57  1.0000
  12  -4   8   17030     314                                                       14190    3.54   -0.71  1.0000
 -12   4  -8   16707     293                                                       13890    3.54    0.71  1.0000
  12  -4   9   10219     290                                                       11170    2.49   -1.43  1.0000
 -12   4  -9   10494     296                                                       11470    2.49    1.43  1.0000
  12  -4  10    4690     189                                                        4436   -1.98   -0.04  1.0000
 -12   4 -10    4487     202                                                        4236   -1.98    0.04  1.0000
  12  -4  11    7036     244                                                        7627   -0.00    1.36  1.0000
 -12   4 -11    7001     253                                                        7588   -0.00   -1.36  1.0000
  12  -4  12    9740     275                                                        9142   -1.82    1.46  1.0000
 -12   4 -12    9592     282                                                        9000   -1.82   -1.46  1.0000
  12  -4  13     296     168                                                         417   -0.76    0.42  1.0000
 -12   4 -13     783     179                                                         974   -0.76   -0.42  1.0000
  12  -4  14    1378     176                                                        1172    0.56    0.56  1.0000
 -12   4 -14    1150     165                                                         962    0.56   -0.56  1.0000
  12  -4  15     772     157                                                         574    2.18   -0.20  1.0000
 -12   4 -15    1161     167                                                         928    2.18    0.20  1.0000
  12  -4  16     101     176                                                         430    2.67   -0.68  1.0000
 -12   4 -16      37     149                                                         280    2.67    0.68  1.0000
  12  -4  17     476     239                                                         794   -1.62    0.28  1.0000
 -12   4 -17     654     212                                                        1019   -1.62   -0.28  1.0000
  12  -4  18     535     290                                                         478   -0.49   -0.74  1.0000
 -12   4 -18     324     274                                                         278   -0.49    0.74  1.0000
  12  -3   0    8144     244                                                       12450    5.33    1.28  1.0000
  12  -3   1   70613    1048                                                       85600    6.65    3.33  1.0000
 -12   3  -1   68645    1013                                                       82660    6.65   -3.33  1.0000
  12  -3   2  156512    1375                                                      141400   -6.80  -15.74  1.0000
 -12   3  -2  156989    1669                                                      145400   -6.80   15.74  1.0000
  12  -3   3   59725     582                                                       50000   -7.07    3.69  1.0000
 -12   3  -3   56316     635                                                       45820   -7.07   -3.69  1.0000
  12  -3   4   76492     851                                                       82110    2.82    4.72  1.0000
 -12   3  -4   78638    1031                                                       83170    2.82   -4.72  1.0000
  12  -3   5   28806     470                                                       34700    4.31   -0.87  1.0000
 -12   3  -5   27940     539                                                       33920    4.31    0.87  1.0000
  12  -3   6   72373     758                                                       59720   -5.90    4.35  1.0000
 -12   3  -6   75428     891                                                       61840   -5.90   -4.35  1.0000
  12  -3   7   25805     412                                                       28800   -0.32    6.75  1.0000
 -12   3  -7   26108     487                                                       28030   -0.32   -6.75  1.0000
  12  -3   8   40189     575                                                       40120   -1.13   -5.79  1.0000
 -12   3  -8   40609     617                                                       41470   -1.13    5.79  1.0000
  12  -3   9   21275     502                                                       20120   -3.02    4.80  1.0000
 -12   3  -9   21354     429                                                       19380   -3.02   -4.80  1.0000
  12  -3  10   37158     632                                                       41350    3.04   -2.04  1.0000
 -12   3 -10   35835     604                                                       40290    3.04    2.04  1.0000
  12  -3  11   16631     328                                                       13860   -2.78    1.06  1.0000
 -12   3 -11   17717     372                                                       14780   -2.78   -1.06  1.0000
  12  -3  12   13161     335                                                       13010   -0.31    0.62  1.0000
 -12   3 -12   12350     361                                                       12130   -0.31   -0.62  1.0000
  12  -3  13    5338     258                                                        6173    1.04    2.00  1.0000
 -12   3 -13    5281     273                                                        5913    1.04   -2.00  1.0000
  12  -3  14    6072     253                                                        4882   -2.22    0.49  1.0000
 -12   3 -14    5857     258                                                        4620   -2.22   -0.49  1.0000
  12  -3  15    2408     198                                                        2271   -0.26    0.34  1.0000
 -12   3 -15    3181     212                                                        3010   -0.26   -0.34  1.0000
  12  -3  16    4226     259                                                        4028   -0.64    1.51  1.0000
 -12   3 -16    4517     271                                                        4204   -0.64   -1.51  1.0000
  12  -3  17    2181     366                                                        2472    0.95    0.58  1.0000
 -12   3 -17    1814     400                                                        2022    0.95   -0.58  1.0000
  12  -3  18    1580     352                                                        1993    1.26   -0.20  1.0000
 -12   3 -18    1946     352                                                        2409    1.26    0.20  1.0000
  12  -2   0     601     107                                                         178    5.76   -5.89  1.0000
  12  -2   1   10877     236                                                        8066   -2.40    4.16  1.0000
 -12   2  -1   11270     226                                                        8395   -2.40   -4.16  1.0000
  12  -2   2    7756     200                                                        9660    2.53    1.80  1.0000
 -12   2  -2    7874     236                                                        9754    2.53   -1.80  1.0000
  12  -2   3   11276     245                                                       14580   10.23    4.30  1.0000
 -12   2  -3   10422     289                                                       13570   10.23   -4.30  1.0000
  12  -2   4    2659     195                                                        4562    2.18   -6.00  1.0000
 -12   2  -4    2610     197                                                        4580    2.18    6.00  1.0000
  12  -2   5    1470     154                                                        1501   -1.34   10.85  1.0000
 -12   2  -5    1699     149                                                        1741   -1.34  -10.85  1.0000
  12  -2   6   11027     416                                                       15270    6.41    1.22  1.0000
 -12   2  -6   10803     478                                                       14930    6.41   -1.22  1.0000
  12  -2   7    2406     206                                                        3111   -7.65   -1.34  1.0000
 -12   2  -7    2628     218                                                        3365   -7.65    1.34  1.0000
  12  -2   8   14761     284                                                       15090   -1.14   -0.85  1.0000
 -12   2  -8   14607     358                                                       14940   -1.14    0.85  1.0000
  12  -2   9    5075     162                                                        4449    0.77    0.94  1.0000
 -12   2  -9    5978     190                                                        5298    0.77   -0.94  1.0000
  12  -2  10    1332     126                                                        1074    1.20   -0.72  1.0000
 -12   2 -10    1004     130                                                         789    1.20    0.72  1.0000
  12  -2  11    1000     132                                                         939    0.24    0.74  1.0000
 -12   2 -11    1091     142                                                        1022    0.24   -0.74  1.0000
  12  -2  12     348     132                                                         358    0.07   -0.32  1.0000
 -12   2 -12     641     168                                                         657    0.07    0.32  1.0000
  12  -2  13    1258     165                                                        1450   -0.89   -0.51  1.0000
 -12   2 -13    1387     185                                                        1593   -0.89    0.51  1.0000
  12  -2  14    1864     231                                                        2439    0.50    1.70  1.0000
 -12   2 -14    1356     228                                                        1848    0.50   -1.70  1.0000
  12  -2  15      78     141                                                         170    0.42   -1.40  1.0000
 -12   2 -15      22     144                                                          74    0.42    1.40  1.0000
  12  -2  16     155     178                                                         157   -0.09    0.11  1.0000
 -12   2 -16     163     189                                                         164   -0.09   -0.11  1.0000
  12  -2  17     361     313                                                         458    0.58   -0.22  1.0000
 -12   2 -17      66     306                                                         111    0.58    0.22  1.0000
  12  -1   0    5758     184                                                        6620    1.39    1.02  1.0000
  12  -1   1   22214     422                                                       23900    3.89   -9.05  1.0000
 -12   1  -1   22054     417                                                       23580    3.89    9.05  1.0000
  12  -1   2    7370     195                                                        7931   -1.66    1.68  1.0000
 -12   1  -2    7352     228                                                        7952   -1.66   -1.68  1.0000
  12  -1   3    7183     227                                                       14310   10.26   -2.27  1.0000
 -12   1  -3    7096     313                                                       14260   10.26    2.27  1.0000
  12  -1   4    2342     172                                                        3297    2.67   -4.82  1.0000
 -12   1  -4    2322     184                                                        3229    2.67    4.82  1.0000
  12  -1   5    3836     206                                                        5113   -3.05    6.87  1.0000
 -12   1  -5    4304     215                                                        5761   -3.05   -6.87  1.0000
  12  -1   6    6131     273                                                        7703   -0.68   -3.58  1.0000
 -12   1  -6    6189     252                                                        7747   -0.68    3.58  1.0000
  12  -1   7    2267     173                                                        2067    0.58    1.50  1.0000
 -12   1  -7    2247     172                                                        2064    0.58   -1.50  1.0000
  12  -1   8    2438     213                                                        3206    1.85    0.41  1.0000
 -12   1  -8    2369     207                                                        3124    1.85   -0.41  1.0000
  12  -1   9    9519     198                                                        7965    0.68   -2.99  1.0000
 -12   1  -9   10304     302                                                        8670    0.68    2.99  1.0000
  12  -1  10     608     117                                                         492   -0.40   -0.52  1.0000
 -12   1 -10     638     110                                                         520   -0.40    0.52  1.0000
  12  -1  11    6424     260                                                        5128    2.39    0.89  1.0000
 -12   1 -11    6320     255                                                        5046    2.39   -0.89  1.0000
  12  -1  12     856     146                                                         851    1.44   -1.47  1.0000
 -12   1 -12    1341     164                                                        1341    1.44    1.47  1.0000
  12  -1  13    2566     181                                                        2626   -0.12   -0.09  1.0000
 -12   1 -13    2291     229                                                        2348   -0.12    0.09  1.0000
  12  -1  14     969     170                                                        1274    0.95   -1.95  1.0000
 -12   1 -14    1104     181                                                        1425    0.95    1.95  1.0000
  12  -1  15     908     160                                                         728   -1.56   -0.79  1.0000
 -12   1 -15     602     184                                                         450   -1.56    0.79  1.0000
  12  -1  16      91     161                                                          93   -1.96    0.30  1.0000
 -12   1 -16     137     171                                                         165   -1.96   -0.30  1.0000
  12  -1  17      64     398                                                         107    0.34    0.67  1.0000
 -12   1 -17     378     276                                                         479    0.34   -0.67  1.0000
  12   0   0   31801     811                                                       44970    8.64   -7.21  1.0000
  12   0   1   24550     427                                                       27470    2.41   -1.45  1.0000
  12   0   2   18926     437                                                       31240   10.03    0.63  1.0000
  12   0   3   33666     424                                                       29810   -2.97    2.08  1.0000
  12   0   4   33790     498                                                       29780   -2.86   -0.53  1.0000
  12   0   5   52048     883                                                       51920   -0.12    0.75  1.0000
  12   0   6   55898     898                                                       64880    4.67    0.48  1.0000
  12   0   7   40223     681                                                       40830    0.43   -1.04  1.0000
  12   0   8   51383     775                                                       50240   -0.62   -0.83  1.0000
  12   0   9   11346     405                                                       15300    4.40    0.21  1.0000
  12   0  10   16857     357                                                       18040    1.19   -0.86  1.0000
  12   0  11    4204     179                                                        4132   -0.20    0.55  1.0000
  12   0  12   21186     445                                                       22640    1.21    0.87  1.0000
  12   0  13    6327     280                                                        6349    0.06   -0.33  1.0000
  12   0  14    2334     188                                                        1567   -2.22   -0.33  1.0000
  12   0  15     908     172                                                         929   -0.01    0.60  1.0000
  12   0  16    1475     309                                                        1379   -0.34    0.09  1.0000
  12   0  17    3863     438                                                        4184    0.66   -0.25  1.0000
  13  -6   0    4138     146                                                        3485   -1.35   -0.17  1.0000
  13  -6   1    4933     207                                                        8690    1.40   -8.47  1.0000
 -13   6  -1    5315     217                                                        9403    1.40    8.47  1.0000
  13  -6   2    8583     227                                                        9100   -0.78   -1.67  1.0000
 -13   6  -2    9385     232                                                        9962   -0.78    1.67  1.0000
  13  -6   3    4959     208                                                        9084   -5.14   -3.96  1.0000
 -13   6  -3    5194     221                                                        9367   -5.14    3.96  1.0000
  13  -6   4    2022     117                                                        1541   -2.31    0.57  1.0000
 -13   6  -4    2065     124                                                        1544   -2.31   -0.57  1.0000
  13  -6   5   14104     316                                                       17740   -1.60    3.34  1.0000
 -13   6  -5   12865     312                                                       16350   -1.60   -3.34  1.0000
  13  -6   6     724     110                                                        1204   -2.05    1.16  1.0000
 -13   6  -6     847     141                                                        1329   -2.05   -1.16  1.0000
  13  -6   7    3165     148                                                        1774   -4.06    2.33  1.0000
 -13   6  -7    3184     134                                                        1808   -4.06   -2.33  1.0000
  13  -6   8   11823     252                                                        9689   -2.68    1.10  1.0000
 -13   6  -8   11063     238                                                        8969   -2.68   -1.10  1.0000
  13  -6   9    8783     285                                                       12450   -1.43   -4.45  1.0000
 -13   6  -9    9206     318                                                       12950   -1.43    4.45  1.0000
  13  -6  10    2391     141                                                        1587   -1.14    3.82  1.0000
 -13   6 -10    2898     161                                                        1953   -1.14   -3.82  1.0000
  13  -6  11     397     131                                                         374   -0.45    0.71  1.0000
 -13   6 -11     274     133                                                         242   -0.45   -0.71  1.0000
  13  -6  12    4433     218                                                        3499   -0.91   -1.82  1.0000
 -13   6 -12    3843     205                                                        2986   -0.91    1.82  1.0000
  13  -6  13     637     142                                                         477   -1.16    1.19  1.0000
 -13   6 -13     549     139                                                         380   -1.16   -1.19  1.0000
  13  -6  14    2308     211                                                        3102    0.85    4.23  1.0000
 -13   6 -14    2584     214                                                        3371    0.85   -4.23  1.0000
  13  -6  15     636     177                                                         498   -0.04   -0.92  1.0000
 -13   6 -15     101     181                                                          50   -0.04    0.92  1.0000
  13  -6  16     217     194                                                         318    0.49    4.09  1.0000
 -13   6 -16     289     188                                                         396    0.49   -4.09  1.0000
  13  -6  17      49     172                                                         134   -0.55   -1.28  1.0000
 -13   6 -17     285     184                                                         470   -0.55    1.28  1.0000
  13  -5   0   95653    1172                                                      108000   -4.98    1.45  1.0000
  13  -5   1   15362     257                                                       14230   10.03    6.04  1.0000
 -13   5  -1   17450     323                                                       16900   10.03   -6.04  1.0000
  13  -5   2   25856     557                                                       43180  -12.18   -4.49  1.0000
 -13   5  -2   28001     630                                                       45380  -12.18    4.49  1.0000
  13  -5   3   26753     478                                                       35190   -6.41   -4.16  1.0000
 -13   5  -3   28798     581                                                       36970   -6.41    4.16  1.0000
  13  -5   4    8461     162                                                        6141    0.75   -7.98  1.0000
 -13   5  -4    9501     210                                                        6506    0.75    7.98  1.0000
  13  -5   5    9236     218                                                       10350   -3.60    2.84  1.0000
 -13   5  -5    7767     218                                                        9074   -3.60   -2.84  1.0000
  13  -5   6   14192     328                                                       18090    1.68   10.96  1.0000
 -13   5  -6   14594     389                                                       19240    1.68  -10.96  1.0000
  13  -5   7     765     126                                                         989   -1.03    1.54  1.0000
 -13   5  -7     888     122                                                        1173   -1.03   -1.54  1.0000
  13  -5   8   18468     360                                                       17990   -0.06   -0.79  1.0000
 -13   5  -8   20969     401                                                       20420   -0.06    0.79  1.0000
  13  -5   9    8661     295                                                        8036    1.58    1.52  1.0000
 -13   5  -9    7410     230                                                        6886    1.58   -1.52  1.0000
  13  -5  10   28994     542                                                       30370    1.30   -6.49  1.0000
 -13   5 -10   27934     525                                                       28840    1.30    6.49  1.0000
  13  -5  11     526     124                                                         359   -0.98    0.95  1.0000
 -13   5 -11     851     140                                                         699   -0.98   -0.95  1.0000
  13  -5  12   10634     344                                                       12020   -1.57   -0.57  1.0000
 -13   5 -12   10728     335                                                       12120   -1.57    0.57  1.0000
  13  -5  13    1102     150                                                         833    2.16    1.53  1.0000
 -13   5 -13     936     167                                                         759    2.16   -1.53  1.0000
  13  -5  14    2296     193                                                        2350   -0.17   -0.42  1.0000
 -13   5 -14    2509     218                                                        2547   -0.17    0.42  1.0000
  13  -5  15    2009     202                                                        2417   -1.32   -0.25  1.0000
 -13   5 -15    2329     218                                                        2741   -1.32    0.25  1.0000
  13  -5  16    1182     197                                                        1047    0.26    2.79  1.0000
 -13   5 -16    1370     204                                                        1340    0.26   -2.79  1.0000
  13  -5  17     146     191                                                         378    2.71    1.45  1.0000
 -13   5 -17      66     225                                                         105    2.71   -1.45  1.0000
  13  -4   0    5691     186                                                        5985    0.45    0.96  1.0000
  13  -4   1    4221     171                                                        6083   -0.90   -5.94  1.0000
 -13   4  -1    4489     200                                                        6546   -0.90    5.94  1.0000
  13  -4   2   30432     462                                                       35510    7.71    0.99  1.0000
 -13   4  -2   29141     550                                                       34210    7.71   -0.99  1.0000
  13  -4   3    2777     141                                                        4236    1.06   -3.65  1.0000
 -13   4  -3    3034     193                                                        4604    1.06    3.65  1.0000
  13  -4   4    1739      99                                                        1937   -0.99   -5.72  1.0000
 -13   4  -4    1272     129                                                        1554   -0.99    5.72  1.0000
  13  -4   5    1259     100                                                        2145   -8.46    4.28  1.0000
 -13   4  -5    1130     154                                                        1994   -8.46   -4.28  1.0000
  13  -4   6     552      75                                                         980    6.07   -8.48  1.0000
 -13   4  -6     577     114                                                         782    6.07    8.48  1.0000
  13  -4   7    3486     119                                                        2412   -5.44   -6.95  1.0000
 -13   4  -7    3344     142                                                        2516   -5.44    6.95  1.0000
  13  -4   8     462      93                                                         378   -0.96    0.43  1.0000
 -13   4  -8     198     116                                                         140   -0.96   -0.43  1.0000
  13  -4   9     278     140                                                         160    0.88   -1.41  1.0000
 -13   4  -9     408     113                                                         286    0.88    1.41  1.0000
  13  -4  10    4089     206                                                        4367    1.54    4.47  1.0000
 -13   4 -10    3989     197                                                        4141    1.54   -4.47  1.0000
  13  -4  11    1346     153                                                        2019   -0.46   -2.19  1.0000
 -13   4 -11    1085     170                                                        1702   -0.46    2.19  1.0000
  13  -4  12    4984     236                                                        6123    1.79    1.23  1.0000
 -13   4 -12    5555     249                                                        6766    1.79   -1.23  1.0000
  13  -4  13    1550     165                                                        1584   -0.23    1.76  1.0000
 -13   4 -13    1767     178                                                        1772   -0.23   -1.76  1.0000
  13  -4  14     278     166                                                         377    2.04   -0.03  1.0000
 -13   4 -14     115     170                                                         181    2.04    0.03  1.0000
  13  -4  15    2274     198                                                        2225    0.70   -0.63  1.0000
 -13   4 -15    2523     207                                                        2482    0.70    0.63  1.0000
  13  -4  16      35     170                                                        -110   -1.00    1.15  1.0000
 -13   4 -16     327     187                                                         165   -1.00   -1.15  1.0000
  13  -4  17     516     253                                                         418    1.00   -2.26  1.0000
 -13   4 -17      92     378                                                        -505    1.00    2.26  1.0000
  13  -3   0     363     100                                                         267   -8.86    0.57  1.0000
  13  -3   1    5126     230                                                        9797    8.75   -1.81  1.0000
 -13   3  -1    4680     242                                                        9399    8.75    1.81  1.0000
  13  -3   2   64599     824                                                       74840    4.99    2.59  1.0000
 -13   3  -2   64195     939                                                       74480    4.99   -2.59  1.0000
  13  -3   3    9258     190                                                        7401    4.24   -3.20  1.0000
 -13   3  -3    8263     216                                                        6563    4.24    3.20  1.0000
  13  -3   4    4347     187                                                        5848   -2.22    4.30  1.0000
 -13   3  -4    4529     194                                                        5984   -2.22   -4.30  1.0000
  13  -3   5    1346      88                                                        1326    1.43   -0.99  1.0000
 -13   3  -5    1200     143                                                        1222    1.43    0.99  1.0000
  13  -3   6    1647     176                                                        1867   -1.34   -2.51  1.0000
 -13   3  -6    1392     166                                                        1679   -1.34    2.51  1.0000
  13  -3   7     901      84                                                         922    1.30    0.24  1.0000
 -13   3  -7    1044     149                                                        1053    1.30   -0.24  1.0000
  13  -3   8   15934     434                                                       15950   -0.94   -0.47  1.0000
 -13   3  -8   17030     457                                                       17060   -0.94    0.47  1.0000
  13  -3   9    4009     138                                                        3463    1.40    0.43  1.0000
 -13   3  -9    4528     171                                                        3959    1.40   -0.43  1.0000
  13  -3  10   27161     530                                                       27250    0.34    0.68  1.0000
 -13   3 -10   26989     545                                                       27060    0.34   -0.68  1.0000
  13  -3  11    2790     200                                                        3462    2.54   -0.09  1.0000
 -13   3 -11    3543     204                                                        4270    2.54    0.09  1.0000
  13  -3  12    9878     280                                                        9367   -1.78    0.96  1.0000
 -13   3 -12    9189     279                                                        8661   -1.78   -0.96  1.0000
  13  -3  13    2261     206                                                        1948    0.15   -1.29  1.0000
 -13   3 -13    1946     204                                                        1669    0.15    1.29  1.0000
  13  -3  14    2539     198                                                        2074   -0.84   -1.09  1.0000
 -13   3 -14    2640     192                                                        2164   -0.84    1.09  1.0000
  13  -3  15     154     154                                                          88    0.18   -0.76  1.0000
 -13   3 -15     777     163                                                         620    0.18    0.76  1.0000
  13  -3  16     453     205                                                         418    1.84    0.00  1.0000
 -13   3 -16     475     203                                                         441    1.84   -0.00  1.0000
  13  -3  17       4     234                                                        -199    0.26    0.44  1.0000
 -13   3 -17     326     257                                                         285    0.26   -0.44  1.0000
  13  -2   0    2116     108                                                         923   16.17   -6.61  1.0000
  13  -2   1   12953     288                                                       14400    0.93    4.93  1.0000
 -13   2  -1   14408     339                                                       16330    0.93   -4.93  1.0000
  13  -2   2    5757     171                                                        7140    2.85  -10.46  1.0000
 -13   2  -2    5528     203                                                        6045    2.85   10.46  1.0000
  13  -2   3    8545     213                                                       11820   -6.17   -4.38  1.0000
 -13   2  -3    9290     295                                                       12150   -6.17    4.38  1.0000
  13  -2   4   13371     215                                                        6423    9.40    6.41  1.0000
 -13   2  -4   12632     250                                                        6490    9.40   -6.41  1.0000
  13  -2   5   18331     424                                                       20800   -2.45    1.95  1.0000
 -13   2  -5   18259     529                                                       20930   -2.45   -1.95  1.0000
  13  -2   6    1156     152                                                        1523   -1.30   -0.68  1.0000
 -13   2  -6    1125     152                                                        1418   -1.30    0.68  1.0000
  13  -2   7   23696     461                                                       23550   -0.13    1.46  1.0000
 -13   2  -7   23199     452                                                       23170   -0.13   -1.46  1.0000
  13  -2   8    2425     199                                                        2356   -0.46    3.73  1.0000
 -13   2  -8    1559     168                                                        1723   -0.46   -3.73  1.0000
  13  -2   9   14600     283                                                       13980    0.43   -0.81  1.0000
 -13   2  -9   14937     400                                                       14270    0.43    0.81  1.0000
  13  -2  10     927     111                                                         742    0.70    0.61  1.0000
 -13   2 -10     862     106                                                         723    0.70   -0.61  1.0000
  13  -2  11    9097     314                                                       10350   -1.60   -0.35  1.0000
 -13   2 -11    8930     303                                                       10160   -1.60    0.35  1.0000
  13  -2  12    1267     146                                                         838    1.69    0.47  1.0000
 -13   2 -12    1115     179                                                         704    1.69   -0.47  1.0000
  13  -2  13    2799     224                                                        2508   -0.35    3.43  1.0000
 -13   2 -13    2042     209                                                        1905   -0.35   -3.43  1.0000
  13  -2  14     372     161                                                         712   -2.09    0.28  1.0000
 -13   2 -14     442     171                                                         838   -2.09   -0.28  1.0000
  13  -2  15     656     187                                                         598    0.88    1.54  1.0000
 -13   2 -15     703     188                                                         695    0.88   -1.54  1.0000
  13  -2  16     362     318                                                         578   -1.46    0.06  1.0000
 -13   2 -16     894     333                                                        1200   -1.46   -0.06  1.0000
  13  -2  17     932     297                                                         823    0.97   -1.26  1.0000
 -13   2 -17     393     315                                                         286    0.97    1.26  1.0000
  13  -1   0    1144     156                                                        4028    7.58    0.78  1.0000
  13  -1   1    6656     262                                                        9837    5.00    1.38  1.0000
 -13   1  -1    6220     256                                                        9359    5.00   -1.38  1.0000
  13  -1   2    5429     153                                                        5041   -2.43    0.66  1.0000
 -13   1  -2    5833     189                                                        5430   -2.43   -0.66  1.0000
  13  -1   3    2668     132                                                        5185   -8.19    6.02  1.0000
 -13   1  -3    2564     171                                                        5074   -8.19   -6.02  1.0000
  13  -1   4    3450     206                                                        4408    2.99   -0.72  1.0000
 -13   1  -4    3705     239                                                        4765    2.99    0.72  1.0000
  13  -1   5     657     193                                                        3093    0.54   -7.71  1.0000
 -13   1  -5    1072     194                                                        3937    0.54    7.71  1.0000
  13  -1   6    6293     244                                                        6765   -5.21    7.88  1.0000
 -13   1  -6    6105     236                                                        6349   -5.21   -7.88  1.0000
  13  -1   7    3695     200                                                        3596   -2.22    0.55  1.0000
 -13   1  -7    2960     183                                                        2845   -2.22   -0.55  1.0000
  13  -1   8     380     161                                                         806   -1.98   -4.61  1.0000
 -13   1  -8     365     149                                                         833   -1.98    4.61  1.0000
  13  -1   9    4168     243                                                        3419   -5.94    0.50  1.0000
 -13   1  -9    4237     256                                                        3460   -5.94   -0.50  1.0000
  13  -1  10    2262     194                                                        1620    1.68   -1.23  1.0000
 -13   1 -10    2166     205                                                        1530    1.68    1.23  1.0000
  13  -1  11    1707     133                                                        1630   -1.29    0.02  1.0000
 -13   1 -11    1372     119                                                        1296   -1.29   -0.02  1.0000
  13  -1  12     211     135                                                         361   -1.32    0.84  1.0000
 -13   1 -12      37     116                                                          -1   -1.32   -0.84  1.0000
  13  -1  13      18     133                                                         134   -1.30   -1.94  1.0000
 -13   1 -13      49     138                                                         245   -1.30    1.94  1.0000
  13  -1  14     407     160                                                         450    0.25    0.55  1.0000
 -13   1 -14     394     150                                                         427    0.25   -0.55  1.0000
  13  -1  15      54     149                                                         -78   -0.68   -1.75  1.0000
 -13   1 -15      12     142                                                          98   -0.68    1.75  1.0000
  13  -1  16     639     265                                                         569   -0.44    0.29  1.0000
 -13   1 -16     861     262                                                         774   -0.44   -0.29  1.0000
  13  -1  17     137     294                                                         104   -0.33   -0.24  1.0000
 -13   1 -17     178     296                                                         142   -0.33    0.24  1.0000
  13   0   0     381     149                                                         322    0.43    0.15  1.0000
  13   0   1   43936     575                                                       41000   -1.82   -0.46  1.0000
  13   0   2    9772     218                                                        9339   -0.60   -2.21  1.0000
  13   0   3     194      77                                                         220    7.20    0.28  1.0000
  13   0   4    8809     255                                                        6288   -3.75   -1.42  1.0000
  13   0   5     368     155                                                        1627   -5.33    1.09  1.0000
  13   0   6    1059     149                                                         819   15.67   -0.53  1.0000
  13   0   7    1723     144                                                         757   -3.58   -0.30  1.0000
  13   0   8      77     136                                                         153   -0.59   -1.17  1.0000
  13   0   9   10968     422                                                       11130    0.20   -0.65  1.0000
  13   0  10     227     160                                                         362   -1.00    0.19  1.0000
  13   0  11   17266     481                                                       19570    2.17    0.42  1.0000
  13   0  12       1     108                                                          82    2.13    0.25  1.0000
  13   0  13      73     153                                                         104    0.44   -0.07  1.0000
  13   0  14      63     139                                                         180   -0.19   -1.81  1.0000
  13   0  15     642     166                                                         783   -0.68   -0.15  1.0000
  13   0  16     136     255                                                         552   -3.04   -0.25  1.0000
  13   0  17     106     369                                                         -43    2.64   -0.07  1.0000
  14  -7   0   37135     815                                                       44800   -4.87    0.13  1.0000
  14  -7   1   83647     962                                                       80750    1.32   -0.66  1.0000
  14  -7   2   14470     322                                                       17740   -3.32    0.21  1.0000
  14  -7   3     168     124                                                        1849   -7.88   -0.06  1.0000
  14  -7   4    2153     136                                                        2914   -1.97    0.20  1.0000
  14  -7   5   20140     451                                                       25810   -4.83    0.94  1.0000
  14  -7   6    1395     143                                                        2340    2.69   -0.98  1.0000
  14  -7   7    1100     124                                                        1388   -1.05   -0.08  1.0000
  14  -7   8     469     107                                                         262    1.31    0.53  1.0000
  14  -7   9   24435     472                                                       21660    2.36   -0.28  1.0000
  14  -7  10     904     144                                                        1356    1.61   -0.92  1.0000
  14  -7  11   37137     777                                                       42940   -3.72    0.07  1.0000
  14  -7  12    1348     160                                                         936    1.54    0.42  1.0000
  14  -7  13    1400     160                                                         820    2.25    0.12  1.0000
  14  -7  14    2981     208                                                        3082   -0.25    0.22  1.0000
  14  -7  15    1720     181                                                        1447    0.92   -0.35  1.0000
  14  -7  16      36     182                                                         149    1.58   -0.21  1.0000
  14  -7  17     802     356                                                         897   -0.43    0.31  1.0000
  14  -6   0    2425     123                                                        1479    2.86    1.75  1.0000
  14  -6   1    1151     152                                                        2572   -5.41   -3.01  1.0000
 -14   6  -1     890     131                                                        2233   -5.41    3.01  1.0000
  14  -6   2   26448     472                                                       36280   -3.35   -7.18  1.0000
 -14   6  -2   25082     549                                                       34520   -3.35    7.18  1.0000
  14  -6   3    7979     267                                                       14300   -7.74    5.90  1.0000
 -14   6  -3    7901     304                                                       14580   -7.74   -5.90  1.0000
  14  -6   4    3653     118                                                        1815   -8.72    5.27  1.0000
 -14   6  -4    3337     134                                                        1772   -8.72   -5.27  1.0000
  14  -6   5     550     102                                                         106    0.75   -7.75  1.0000
 -14   6  -5     611     106                                                         123    0.75    7.75  1.0000
  14  -6   6     475     121                                                         528   -9.06   -6.44  1.0000
 -14   6  -6     349     123                                                         632   -9.06    6.44  1.0000
  14  -6   7    6916     226                                                        7218   -4.65   -4.37  1.0000
 -14   6  -7    7739     250                                                        7879   -4.65    4.37  1.0000
  14  -6   8    6665     209                                                        5978    0.92   -0.73  1.0000
 -14   6  -8    6224     216                                                        5549    0.92    0.73  1.0000
  14  -6   9     803     132                                                        1080   -1.08    1.36  1.0000
 -14   6  -9    1042     142                                                        1405   -1.08   -1.36  1.0000
  14  -6  10    2972     173                                                        3053    1.68    3.89  1.0000
 -14   6 -10    2634     196                                                        2799    1.68   -3.89  1.0000
  14  -6  11     452     153                                                         535    0.55   -0.04  1.0000
 -14   6 -11     517     140                                                         612    0.55    0.04  1.0000
  14  -6  12    4902     213                                                        4819    0.06    2.94  1.0000
 -14   6 -12    4852     216                                                        4841    0.06   -2.94  1.0000
  14  -6  13    4347     219                                                        3958    0.21    1.00  1.0000
 -14   6 -13    4007     246                                                        3646    0.21   -1.00  1.0000
  14  -6  14     341     151                                                         565   -0.10   -1.99  1.0000
 -14   6 -14     411     167                                                         635   -0.10    1.99  1.0000
  14  -6  15     694     163                                                         523    1.02   -0.16  1.0000
 -14   6 -15     832     175                                                         637    1.02    0.16  1.0000
  14  -6  16      20     193                                                          53   -2.31   -1.55  1.0000
 -14   6 -16      59     177                                                         325   -2.31    1.55  1.0000
  14  -6  17     471     261                                                         611   -0.21   -0.88  1.0000
 -14   6 -17      74     329                                                         128   -0.21    0.88  1.0000
  14  -5   0   27838     469                                                       29720   -1.43    0.19  1.0000
  14  -5   1    1254     134                                                        2558    5.28    7.80  1.0000
 -14   5  -1    1560     153                                                        3233    5.28   -7.80  1.0000
  14  -5   2     805     130                                                        1855    8.41   -4.53  1.0000
 -14   5  -2     668     140                                                        1642    8.41    4.53  1.0000
  14  -5   3     404     116                                                        1603    5.75   -2.97  1.0000
 -14   5  -3     291     131                                                        1441    5.75    2.97  1.0000
  14  -5   4     609      89                                                         494    4.37    4.77  1.0000
 -14   5  -4     802     120                                                         970    4.37   -4.77  1.0000
  14  -5   5     991      96                                                        1016   -0.43    0.18  1.0000
 -14   5  -5     889     137                                                         924   -0.43   -0.18  1.0000
  14  -5   6      93      89                                                         293   -1.19   -4.88  1.0000
 -14   5  -6     114     109                                                         327   -1.19    4.88  1.0000
  14  -5   7    8429     233                                                        9814    0.42    3.29  1.0000
 -14   5  -7    8809     258                                                       10290    0.42   -3.29  1.0000
  14  -5   8    3873     182                                                        4530   -3.96   -1.44  1.0000
 -14   5  -8    4057     195                                                        4635   -3.96    1.44  1.0000
  14  -5   9     294     123                                                         549   -0.20    1.67  1.0000
 -14   5  -9     382     131                                                         670   -0.20   -1.67  1.0000
  14  -5  10    8056     256                                                        7301    1.12    0.30  1.0000
 -14   5 -10    8228     365                                                        7474    1.12   -0.30  1.0000
  14  -5  11     700     130                                                         752    0.00    0.34  1.0000
 -14   5 -11     745     136                                                         802    0.00   -0.34  1.0000
  14  -5  12     940     137                                                         885   -0.44    0.78  1.0000
 -14   5 -12     884     139                                                         848   -0.44   -0.78  1.0000
  14  -5  13    1631     163                                                        1542    0.44   -0.19  1.0000
 -14   5 -13    1768     175                                                        1668    0.44    0.19  1.0000
  14  -5  14     882     149                                                         839   -0.97    2.04  1.0000
 -14   5 -14     467     194                                                         443   -0.97   -2.04  1.0000
  14  -5  15    1092     185                                                        1169   -0.56    0.31  1.0000
 -14   5 -15     961     168                                                        1041   -0.56   -0.31  1.0000
  14  -5  16     295     182                                                         278    0.09    0.10  1.0000
 -14   5 -16     379     185                                                         360    0.09   -0.10  1.0000
  14  -5  17      30     255                                                        -229   -1.21    0.72  1.0000
 -14   5 -17     189     249                                                          68   -1.21   -0.72  1.0000
  14  -4   0    3081     107                                                         674   20.32   -1.88  1.0000
  14  -4   1   27090     445                                                       33030   -4.28   -1.20  1.0000
 -14   4  -1   25310     516                                                       31110   -4.28    1.20  1.0000
  14  -4   2   41752     618                                                       42090   -4.70   -9.99  1.0000
 -14   4  -2   47047     689                                                       46410   -4.70    9.99  1.0000
  14  -4   3   22502     390                                                       27640   -4.15   -0.95  1.0000
 -14   4  -3   23198     457                                                       28300   -4.15    0.95  1.0000
  14  -4   4     480      78                                                         135    1.71   -8.04  1.0000
 -14   4  -4     833     117                                                          15    1.71    8.04  1.0000
  14  -4   5    4093     170                                                        3875   -0.54    1.49  1.0000
 -14   4  -5    3672     195                                                        3581   -0.54   -1.49  1.0000
  14  -4   6   16439     343                                                       17910   -0.89    8.85  1.0000
 -14   4  -6   15167     402                                                       17290   -0.89   -8.85  1.0000
  14  -4   7    4170     176                                                        5026   -2.24    0.38  1.0000
 -14   4  -7    3427     227                                                        4297   -2.24   -0.38  1.0000
  14  -4   8    4315     128                                                        2378    2.93    5.67  1.0000
 -14   4  -8    3424     132                                                        1975    2.93   -5.67  1.0000
  14  -4   9   15948     312                                                       16870   -0.97   -0.21  1.0000
 -14   4  -9   15945     371                                                       16840   -0.97    0.21  1.0000
  14  -4  10     443     137                                                         881   -0.25   -2.27  1.0000
 -14   4 -10     146     117                                                         422   -0.25    2.27  1.0000
  14  -4  11    6923     254                                                        7099   -1.66    3.38  1.0000
 -14   4 -11    5971     239                                                        6316   -1.66   -3.38  1.0000
  14  -4  12     487     128                                                         437    1.07   -2.38  1.0000
 -14   4 -12     884     145                                                         700    1.07    2.38  1.0000
  14  -4  13    3520     213                                                        4269   -1.10    1.75  1.0000
 -14   4 -13    3557     246                                                        4366   -1.10   -1.75  1.0000
  14  -4  14    1170     167                                                        1494   -0.95    0.91  1.0000
 -14   4 -14    1663     192                                                        2074   -0.95   -0.91  1.0000
  14  -4  15    1206     179                                                        1090   -0.04   -1.20  1.0000
 -14   4 -15    1135     164                                                         988   -0.04    1.20  1.0000
  14  -4  16    1039     349                                                        1272   -0.55    2.45  1.0000
 -14   4 -16     688     261                                                         936   -0.55   -2.45  1.0000
  14  -4  17     426     262                                                         214    2.05    0.09  1.0000
 -14   4 -17     192     261                                                          66    2.05   -0.09  1.0000
  14  -3   0     702     132                                                        2259    5.36    2.57  1.0000
  14  -3   1   11689     221                                                       10400    1.35    9.77  1.0000
 -14   3  -1   10839     244                                                       10110    1.35   -9.77  1.0000
  14  -3   2    4358     145                                                        3882    1.50   -2.73  1.0000
 -14   3  -2    4600     202                                                        3944    1.50    2.73  1.0000
  14  -3   3   10450     186                                                        7496    0.90    5.39  1.0000
 -14   3  -3    9929     229                                                        7223    0.90   -5.39  1.0000
  14  -3   4    2375     183                                                        5119   -5.79   -1.26  1.0000
 -14   3  -4    2741     213                                                        5592   -5.79    1.26  1.0000
  14  -3   5    4430     271                                                        7422   -4.43   -2.38  1.0000
 -14   3  -5    4159     257                                                        7075   -4.43    2.38  1.0000
  14  -3   6   24270     478                                                       23280    4.58    4.84  1.0000
 -14   3  -6   25250     558                                                       24480    4.58   -4.84  1.0000
  14  -3   7    2146     227                                                        3530   -6.86    0.70  1.0000
 -14   3  -7    2839     222                                                        4310   -6.86   -0.70  1.0000
  14  -3   8    9588     306                                                        9630   -1.12   -2.28  1.0000
 -14   3  -8    9108     293                                                        9055   -1.12    2.28  1.0000
  14  -3   9    4352     157                                                        4608   -1.28    0.68  1.0000
 -14   3  -9    5073     265                                                        5357   -1.28   -0.68  1.0000
  14  -3  10     563     103                                                         461   -0.31   -2.38  1.0000
 -14   3 -10     457      94                                                         274   -0.31    2.38  1.0000
  14  -3  11      18      97                                                          28    0.47    0.25  1.0000
 -14   3 -11      20     121                                                          37    0.47   -0.25  1.0000
  14  -3  12    1886     163                                                        1866   -0.80    1.20  1.0000
 -14   3 -12    2180     230                                                        2204   -0.80   -1.20  1.0000
  14  -3  13    1132     145                                                        1024   -0.47    0.20  1.0000
 -14   3 -13     798     168                                                         704   -0.47   -0.20  1.0000
  14  -3  14    1410     162                                                        1182    2.29   -1.14  1.0000
 -14   3 -14    1699     179                                                        1426    2.29    1.14  1.0000
  14  -3  15     778     231                                                         977    0.98   -1.80  1.0000
 -14   3 -15     905     181                                                        1104    0.98    1.80  1.0000
  14  -3  16    1866     355                                                        1650    0.69    0.02  1.0000
 -14   3 -16     485     368                                                         376    0.69   -0.02  1.0000
  14  -3  17     197     268                                                          25    2.28   -0.41  1.0000
 -14   3 -17     545     247                                                         205    2.28    0.41  1.0000
  14  -2   0      19     100                                                         158   -2.07   -0.52  1.0000
  14  -2   1    2073     121                                                        1631    0.06   -1.43  1.0000
 -14   2  -1    2196     124                                                        1735    0.06    1.43  1.0000
  14  -2   2   12070     260                                                       14180    3.27   -3.08  1.0000
 -14   2  -2   10862     287                                                       12840    3.27    3.08  1.0000
  14  -2   3    6682     200                                                       10020   -5.08    0.87  1.0000
 -14   2  -3    6621     271                                                       10010   -5.08   -0.87  1.0000
  14  -2   4    4428     252                                                        6305   -5.19    6.25  1.0000
 -14   2  -4    4058     247                                                        6086   -5.19   -6.25  1.0000
  14  -2   5    2987     181                                                        2899   -2.24   10.82  1.0000
 -14   2  -5    2651     173                                                        2765   -2.24  -10.82  1.0000
  14  -2   6    1232     161                                                        1317    6.48   -4.46  1.0000
 -14   2  -6    1010     159                                                         897    6.48    4.46  1.0000
  14  -2   7    1404     169                                                        1082   -4.68   -0.07  1.0000
 -14   2  -7    1614     168                                                        1290   -4.68    0.07  1.0000
  14  -2   8    4364     246                                                        4560   -0.51   -0.09  1.0000
 -14   2  -8    4886     234                                                        5087   -0.51    0.09  1.0000
  14  -2   9    2887     223                                                        2664   -4.01    0.61  1.0000
 -14   2  -9    3265     227                                                        3056   -4.01   -0.61  1.0000
  14  -2  10   10019     323                                                        8965    0.93   -1.57  1.0000
 -14   2 -10   10226     321                                                        9142    0.93    1.57  1.0000
  14  -2  11     725     130                                                         763    0.74    2.14  1.0000
 -14   2 -11     657     179                                                         721    0.74   -2.14  1.0000
  14  -2  12    3879     191                                                        4152   -0.06   -1.01  1.0000
 -14   2 -12    3973     181                                                        4236   -0.06    1.01  1.0000
  14  -2  13    1450     172                                                        1713    1.11   -0.39  1.0000
 -14   2 -13    1422     192                                                        1688    1.11    0.39  1.0000
  14  -2  14     875     159                                                         613   -1.94    0.25  1.0000
 -14   2 -14    1324     152                                                         993   -1.94   -0.25  1.0000
  14  -2  15      12     169                                                          19    0.66   -0.35  1.0000
 -14   2 -15     411     251                                                         482    0.66    0.35  1.0000
  14  -2  16      60     360                                                        -195   -1.14    1.62  1.0000
 -14   2 -16     201     252                                                         116   -1.14   -1.62  1.0000
  14  -2  17     153     250                                                         352    1.78   -0.17  1.0000
 -14   2 -17     130     248                                                         327    1.78    0.17  1.0000
  14  -1   0   10179     185                                                        5915    7.01   -4.63  1.0000
  14  -1   1   12082     319                                                       17810   -8.51    6.05  1.0000
 -14   1  -1   14547     352                                                       20790   -8.51   -6.05  1.0000
  14  -1   2    7573     191                                                        5959    1.77   -2.39  1.0000
 -14   1  -2    8807     220                                                        6948    1.77    2.39  1.0000
  14  -1   3   16850     285                                                       17340   -0.71   -1.65  1.0000
 -14   1  -3   17614     381                                                       17960   -0.71    1.65  1.0000
  14  -1   4    8746     233                                                        6580    3.41    0.81  1.0000
 -14   1  -4    8773     239                                                        6729    3.41   -0.81  1.0000
  14  -1   5   19638     408                                                       19560   -0.93   -3.84  1.0000
 -14   1  -5   20604     413                                                       20230   -0.93    3.84  1.0000
  14  -1   6   16015     389                                                       15640    0.37    1.31  1.0000
 -14   1  -6   15736     404                                                       15460    0.37   -1.31  1.0000
  14  -1   7    7562     308                                                        8807   -1.65   -0.73  1.0000
 -14   1  -7    7776     304                                                        9006   -1.65    0.73  1.0000
  14  -1   8    9091     362                                                        8798    0.33    0.26  1.0000
 -14   1  -8    8523     373                                                        8248    0.33   -0.26  1.0000
  14  -1   9    2238     193                                                        2133    2.95   -1.53  1.0000
 -14   1  -9    1491     195                                                        1299    2.95    1.53  1.0000
  14  -1  10    4595     274                                                        4459    0.10    0.91  1.0000
 -14   1 -10    4499     260                                                        4411    0.10   -0.91  1.0000
  14  -1  11     396     184                                                         943    2.36   -2.05  1.0000
 -14   1 -11     391     182                                                         815    2.36    2.05  1.0000
  14  -1  12    1953     259                                                        2155   -0.51   -1.29  1.0000
 -14   1 -12    2004     243                                                        2153   -0.51    1.29  1.0000
  14  -1  13     598     133                                                         744   -1.27    0.83  1.0000
 -14   1 -13     446     118                                                         616   -1.27   -0.83  1.0000
  14  -1  14     329     128                                                         373   -0.43   -0.07  1.0000
 -14   1 -14     232     151                                                         260   -0.43    0.07  1.0000
  14  -1  15     511     261                                                         651   -0.43    0.74  1.0000
 -14   1 -15     753     317                                                         932   -0.43   -0.74  1.0000
  14  -1  16    1189     293                                                         974    0.63   -0.76  1.0000
 -14   1 -16     237     266                                                         140    0.63    0.76  1.0000
  14   0   0   15625     385                                                       12830    3.00    2.26  1.0000
  14   0   1    1891     147                                                        2538   -1.79    0.41  1.0000
  14   0   2    2298     127                                                         920    4.65   -0.55  1.0000
  14   0   3    1577     132                                                        3392   -4.77    0.12  1.0000
  14   0   4    9794     180                                                        2878   11.61    0.81  1.0000
  14   0   5   10540     330                                                       12750   -2.62   -0.36  1.0000
  14   0   6    3783     260                                                        6365   -4.69    0.02  1.0000
  14   0   7    4694     215                                                        3205    3.05    0.04  1.0000
  14   0   8     830     194                                                         177    4.01    0.08  1.0000
  14   0   9    1688     224                                                        2319   -1.77   -0.55  1.0000
  14   0  10    1274     195                                                        1681    1.35   -0.28  1.0000
  14   0  11      64     168                                                         282   -2.28    0.18  1.0000
  14   0  12     753     224                                                        1067    1.35    0.20  1.0000
  14   0  13      60     176                                                          35   -0.56   -0.44  1.0000
  14   0  14    1343     200                                                        1747   -1.31    0.99  1.0000
  14   0  15    1136     277                                                         876    1.07   -0.25  1.0000
  14   0  16     394     272                                                         696   -1.67   -0.17  1.0000
  15  -7   0    2440     171                                                        3771    1.05    5.57  1.0000
  15  -7   1    1522     149                                                        2453    3.47    7.42  1.0000
 -15   7  -1    1510     161                                                        2390    3.47   -7.42  1.0000
  15  -7   2    1188     130                                                        1235    0.60   -4.32  1.0000
 -15   7  -2    1078     124                                                        1143    0.60    4.32  1.0000
  15  -7   3      35     103                                                           7    0.78   -0.51  1.0000
 -15   7  -3     163     124                                                          95    0.78    0.51  1.0000
  15  -7   4     474     113                                                        1410   -1.40   -5.20  1.0000
 -15   7  -4     429     123                                                        1339   -1.40    5.20  1.0000
  15  -7   5     605     120                                                        1463   -3.54    1.21  1.0000
 -15   7  -5     637     131                                                        1504   -3.54   -1.21  1.0000
  15  -7   6     734     119                                                         575   -1.88    1.13  1.0000
 -15   7  -6     837     108                                                         657   -1.88   -1.13  1.0000
  15  -7   7    6485     194                                                        4673   -1.08   -4.18  1.0000
 -15   7  -7    6058     181                                                        4330   -1.08    4.18  1.0000
  15  -7   8     107     117                                                         -38   -2.23    1.44  1.0000
 -15   7  -8     124     116                                                         220   -2.23   -1.44  1.0000
  15  -7   9    2709     158                                                        2516    1.04    1.46  1.0000
 -15   7  -9    2824     170                                                        2618    1.04   -1.46  1.0000
  15  -7  10    2606     182                                                        2770    0.75   -0.87  1.0000
 -15   7 -10    2948     189                                                        3131    0.75    0.87  1.0000
  15  -7  11    2372     166                                                        2080    1.60   -0.78  1.0000
 -15   7 -11    2527     184                                                        2232    1.60    0.78  1.0000
  15  -7  12     320     138                                                         229   -0.40   -3.48  1.0000
 -15   7 -12     623     141                                                         612   -0.40    3.48  1.0000
  15  -7  13     705     159                                                         975    1.41    0.25  1.0000
 -15   7 -13     468     164                                                         687    1.41   -0.25  1.0000
  15  -7  14      59     146                                                         198    0.62    2.44  1.0000
 -15   7 -14      83     143                                                         244    0.62   -2.44  1.0000
  15  -7  15      72     169                                                         206   -2.85    0.70  1.0000
 -15   7 -15      70     171                                                         212   -2.85   -0.70  1.0000
  15  -7  16     126     207                                                         144   -1.23    0.64  1.0000
 -15   7 -16     322     192                                                         367   -1.23   -0.64  1.0000
  15  -6   0  131685    1776                                                      153300    7.40   -3.16  1.0000
  15  -6   2   70162     821                                                       66400   -1.82    1.00  1.0000
 -15   6  -2   69242     865                                                       65360   -1.82   -1.00  1.0000
  15  -6   3   25237     342                                                       22730   -2.31   -4.98  1.0000
 -15   6  -3   25095     512                                                       23400   -2.31    4.98  1.0000
  15  -6   4    5320     163                                                        3948   -1.51   -3.53  1.0000
 -15   6  -4    3606     165                                                        2799   -1.51    3.53  1.0000
  15  -6   5    1514     112                                                         862   -2.15   -1.26  1.0000
 -15   6  -5     981     123                                                         472   -2.15    1.26  1.0000
  15  -6   6    3194     166                                                        3967    2.15    1.01  1.0000
 -15   6  -6    5034     209                                                        5788    2.15   -1.01  1.0000
  15  -6   7    5483     186                                                        3656   -4.65    2.52  1.0000
 -15   6  -7    4317     150                                                        2336   -4.65   -2.52  1.0000
  15  -6   8    3619     190                                                        5588    4.61    1.64  1.0000
 -15   6  -8    5137     227                                                        6965    4.61   -1.64  1.0000
  15  -6   9   18679     386                                                       19150    0.38    0.41  1.0000
 -15   6  -9   18123     501                                                       18540    0.38   -0.41  1.0000
  15  -6  10    1352     140                                                        1093    0.61   -2.09  1.0000
 -15   6 -10     343     132                                                         301    0.61    2.09  1.0000
  15  -6  12   12781     333                                                       13450    0.55    1.75  1.0000
 -15   6 -12   12645     337                                                       13150    0.55   -1.75  1.0000
  15  -6  13   10958     324                                                       10100   -1.13   -0.23  1.0000
 -15   6 -13   12157     346                                                       11290   -1.13    0.23  1.0000
  15  -6  15    3230     265                                                        3295   -0.39   -2.48  1.0000
 -15   6 -15    2659     255                                                        2862   -0.39    2.48  1.0000
  15  -6  16     687     273                                                         948    0.87    1.51  1.0000
 -15   6 -16    1136     310                                                        1358    0.87   -1.51  1.0000
  15  -6  17     147     569                                                         198    0.32    1.12  1.0000
 -15   6 -17     633     664                                                         665    0.32   -1.12  1.0000
  15  -5   0    7163     215                                                        8060   -1.15    2.61  1.0000
  15  -5   1    3423     172                                                        4311    4.92   -0.92  1.0000
 -15   5  -1    3329     180                                                        4253    4.92    0.92  1.0000
  15  -5   2     151     105                                                         558   -1.85   -2.63  1.0000
 -15   5  -2     142     147                                                         535   -1.85    2.63  1.0000
  15  -5   3    4464     133                                                        2173   -6.36   -0.99  1.0000
 -15   5  -3    4317     157                                                        2111   -6.36    0.99  1.0000
  15  -5   4    9673     207                                                        7880   -3.16    1.07  1.0000
 -15   5  -4    9947     247                                                        8141   -3.16   -1.07  1.0000
  15  -5   5    2315     125                                                        2342   -2.09   -1.71  1.0000
 -15   5  -5    2487     161                                                        2535   -2.09    1.71  1.0000
  15  -5   6   11841     200                                                        9424   -5.32   -1.26  1.0000
 -15   5  -6   12076     294                                                        9670   -5.32    1.26  1.0000
  15  -5   7    3323     125                                                        4091   -1.44   -0.75  1.0000
 -15   5  -7    3700     232                                                        4510   -1.44    0.75  1.0000
  15  -5   8    2950     132                                                        2875   -0.34    2.85  1.0000
 -15   5  -8    2666     150                                                        2561   -0.34   -2.85  1.0000
  15  -5   9     603      97                                                         448   -0.21    1.11  1.0000
 -15   5  -9     429     129                                                         296   -0.21   -1.11  1.0000
  15  -5  10     528     121                                                         401    0.28   -0.81  1.0000
 -15   5 -10     454     129                                                         339    0.28    0.81  1.0000
  15  -5  11     426     136                                                         590    0.23    1.65  1.0000
 -15   5 -11     345     137                                                         486    0.23   -1.65  1.0000
  15  -5  12    1230     138                                                         889   -1.29    0.52  1.0000
 -15   5 -12     871     140                                                         589   -1.29   -0.52  1.0000
  15  -5  13     769     145                                                         974    2.03    1.58  1.0000
 -15   5 -13     631     156                                                         807    2.03   -1.58  1.0000
  15  -5  14     266     159                                                         406    1.19   -0.57  1.0000
 -15   5 -14     298     146                                                         445    1.19    0.57  1.0000
  15  -5  15     839     199                                                         687   -0.16    0.69  1.0000
 -15   5 -15     433     206                                                         326   -0.16   -0.69  1.0000
  15  -5  16     383     278                                                         527    0.64   -1.06  1.0000
 -15   5 -16      97     250                                                         171    0.64    1.06  1.0000
  15  -5  17     243     313                                                         396    0.20   -1.32  1.0000
 -15   5 -17     500     400                                                         715    0.20    1.32  1.0000
  15  -4   0     400     116                                                         574   -1.01   -0.10  1.0000
  15  -4   1    1614     124                                                        1640   -0.11    5.80  1.0000
 -15   4  -1    1681     145                                                        1751   -0.11   -5.80  1.0000
  15  -4   2    8254     219                                                        8318    0.13   -0.96  1.0000
 -15   4  -2    8865     327                                                        8926    0.13    0.96  1.0000
  15  -4   3     510      90                                                         440   -8.78    3.28  1.0000
 -15   4  -3     530     126                                                         408   -8.78   -3.28  1.0000
  15  -4   4    2406     126                                                        3068    1.52   11.15  1.0000
 -15   4  -4    2385     201                                                        3076    1.52  -11.15  1.0000
  15  -4   5     436     118                                                         813    1.28    2.12  1.0000
 -15   4  -5     275     153                                                         581    1.28   -2.12  1.0000
  15  -4   6    1520     154                                                        1014   -1.90    1.90  1.0000
 -15   4  -6    1505     162                                                        1004   -1.90   -1.90  1.0000
  15  -4   7    1331     155                                                        1000   -3.77    7.19  1.0000
 -15   4  -7    1370     147                                                        1074   -3.77   -7.19  1.0000
  15  -4   8    2546     175                                                        1494   -2.21   -4.70  1.0000
 -15   4  -8    2269     162                                                        1267   -2.21    4.70  1.0000
  15  -4   9     557      99                                                         657   -2.14    2.10  1.0000
 -15   4  -9     601     163                                                         711   -2.14   -2.10  1.0000
  15  -4  10     446     102                                                         295    1.28    2.01  1.0000
 -15   4 -10     493     111                                                         341    1.28   -2.01  1.0000
  15  -4  11    2568     168                                                        2403    0.32   -0.52  1.0000
 -15   4 -11    2757     205                                                        2586    0.32    0.52  1.0000
  15  -4  12    1547     163                                                        1876   -2.30    1.88  1.0000
 -15   4 -12    1538     221                                                        1873   -2.30   -1.88  1.0000
  15  -4  13     375     140                                                         678    0.96   -1.70  1.0000
 -15   4 -13     223     139                                                         461    0.96    1.70  1.0000
  15  -4  14     164     151                                                         334   -0.84    1.13  1.0000
 -15   4 -14     153     142                                                         318   -0.84   -1.13  1.0000
  15  -4  15      78     273                                                         213    1.53   -0.02  1.0000
 -15   4 -15      28     183                                                         121    1.53    0.02  1.0000
  15  -4  16     174     271                                                         269    0.34    0.83  1.0000
 -15   4 -16      10     242                                                          38    0.34   -0.83  1.0000
  15  -3   0   46596     768                                                       59060    7.03   -3.19  1.0000
  15  -3   1   11627     219                                                        8795   -4.28   -0.14  1.0000
 -15   3  -1   13074     283                                                       10390   -4.28    0.14  1.0000
  15  -3   2   15687     319                                                       15420   -0.32    0.11  1.0000
 -15   3  -2   15271     399                                                       14980   -0.32   -0.11  1.0000
  15  -3   3   39937     494                                                       39480   -1.05   -4.51  1.0000
 -15   3  -3   41368     684                                                       41630   -1.05    4.51  1.0000
  15  -3   4   30315     647                                                       40270    6.97    0.75  1.0000
 -15   3  -4   30410     667                                                       40050    6.97   -0.75  1.0000
  15  -3   5   39445     740                                                       34270   -3.81    1.37  1.0000
 -15   3  -5   37741     584                                                       32410   -3.81   -1.37  1.0000
  15  -3   6   22053     453                                                       18540   -3.26    1.61  1.0000
 -15   3  -6   22543     408                                                       18780   -3.26   -1.61  1.0000
  15  -3   7   33719     650                                                       38440    3.17   -2.37  1.0000
 -15   3  -7   32518     630                                                       37460    3.17    2.37  1.0000
  15  -3   8    8988     328                                                        8944   -2.18    5.04  1.0000
 -15   3  -8    9203     338                                                        8568   -2.18   -5.04  1.0000
  15  -3   9   25786     582                                                       27850    1.63   -0.17  1.0000
 -15   3  -9   25465     592                                                       27540    1.63    0.17  1.0000
  15  -3  10    7131     297                                                        7333    0.20   -0.55  1.0000
 -15   3 -10    7985     314                                                        8250    0.20    0.55  1.0000
  15  -3  11    3892     158                                                        4089    0.53   -1.30  1.0000
 -15   3 -11    3360     279                                                        3657    0.53    1.30  1.0000
  15  -3  12     273     124                                                         195    2.19   -2.50  1.0000
 -15   3 -12     110     116                                                         258    2.19    2.50  1.0000
  15  -3  13    7441     283                                                        6865   -0.83    0.67  1.0000
 -15   3 -13    7106     269                                                        6503   -0.83   -0.67  1.0000
  15  -3  14    1629     174                                                        1799    0.43   -1.90  1.0000
 -15   3 -14    1188     161                                                        1445    0.43    1.90  1.0000
  15  -3  15    4031     480                                                        3734   -0.65   -0.73  1.0000
 -15   3 -15    4272     394                                                        4016   -0.65    0.73  1.0000
  15  -3  16    1694     396                                                        2009    0.91   -0.32  1.0000
 -15   3 -16    3196     435                                                        3633    0.91    0.32  1.0000
  15  -2   0    3532     222                                                        5587    3.34    3.85  1.0000
  15  -2   1    3164     160                                                        3038   -2.30   -1.07  1.0000
 -15   2  -1    3007     168                                                        2906   -2.30    1.07  1.0000
  15  -2   2    3086     138                                                        3001    0.17   -1.73  1.0000
 -15   2  -2    3212     231                                                        3167    0.17    1.73  1.0000
  15  -2   3    1979      95                                                        1102   -0.39    5.23  1.0000
 -15   2  -3    2191     132                                                        1202   -0.39   -5.23  1.0000
  15  -2   4    3599     214                                                        4303    1.30    0.63  1.0000
 -15   2  -4    3200     216                                                        3867    1.30   -0.63  1.0000
  15  -2   5    9860     265                                                        6602   -4.69   -0.93  1.0000
 -15   2  -5   10384     264                                                        7057   -4.69    0.93  1.0000
  15  -2   6    3538     228                                                        3975    1.25    0.08  1.0000
 -15   2  -6    3779     211                                                        4218    1.25   -0.08  1.0000
  15  -2   7    5026     236                                                        5163   -3.68   -1.84  1.0000
 -15   2  -7    5045     238                                                        5201   -3.68    1.84  1.0000
  15  -2   8    1288     193                                                        1567    1.26   -4.03  1.0000
 -15   2  -8    1260     194                                                        1602    1.26    4.03  1.0000
  15  -2   9     846     180                                                         672    1.12    0.28  1.0000
 -15   2  -9    1531     209                                                        1301    1.12   -0.28  1.0000
  15  -2  10     549     187                                                         727   -1.96   -0.25  1.0000
 -15   2 -10     716     196                                                         915   -1.96    0.25  1.0000
  15  -2  11    1022     179                                                         913    0.51    1.44  1.0000
 -15   2 -11     788     179                                                         677    0.51   -1.44  1.0000
  15  -2  12    1314     227                                                        1046    0.28    1.13  1.0000
 -15   2 -12    1892     233                                                        1565    0.28   -1.13  1.0000
  15  -2  13     153     107                                                         404   -1.92    0.69  1.0000
 -15   2 -13      56     120                                                         226   -1.92   -0.69  1.0000
  15  -2  14     108     147                                                         189    0.52   -1.30  1.0000
 -15   2 -14     216     175                                                         341    0.52    1.30  1.0000
  15  -2  15     643     313                                                         700    0.47   -1.41  1.0000
 -15   2 -15     801     266                                                         879    0.47    1.41  1.0000
  15  -2  16      79     322                                                         136    0.73    0.54  1.0000
 -15   2 -16      38     277                                                          76    0.73   -0.54  1.0000
  15  -1   0    6927     198                                                        4916    3.59   -2.34  1.0000
  15  -1   1   13495     290                                                       12090    2.91    0.50  1.0000
 -15   1  -1   13270     302                                                       11900    2.91   -0.50  1.0000
  15  -1   2     597     119                                                        1055   -2.10    0.47  1.0000
 -15   1  -2     959     152                                                        1533   -2.10   -0.47  1.0000
  15  -1   3    4314     103                                                        1980   -6.07   -5.69  1.0000
 -15   1  -3    4530     146                                                        2119   -6.07    5.69  1.0000
  15  -1   4    2641     197                                                        2801    0.05    0.39  1.0000
 -15   1  -4    3105     199                                                        3279    0.05   -0.39  1.0000
  15  -1   5     176     148                                                         382   -3.16    3.28  1.0000
 -15   1  -5     209     144                                                         472   -3.16   -3.28  1.0000
  15  -1   6      73     157                                                         631    2.78   -5.14  1.0000
 -15   1  -6      89     152                                                         642    2.78    5.14  1.0000
  15  -1   7     475     172                                                         420    0.40   -0.13  1.0000
 -15   1  -7     614     168                                                         549    0.40    0.13  1.0000
  15  -1   8     205     155                                                         473   -1.35    2.04  1.0000
 -15   1  -8     181     165                                                         434   -1.35   -2.04  1.0000
  15  -1   9    2174     252                                                        3092   -1.92   -1.78  1.0000
 -15   1  -9    2584     250                                                        3566   -1.92    1.78  1.0000
  15  -1  10    1354     201                                                        1900    1.90   -1.83  1.0000
 -15   1 -10    1233     199                                                        1735    1.90    1.83  1.0000
  15  -1  11    4435     267                                                        4035    0.71    0.56  1.0000
 -15   1 -11    3312     318                                                        2970    0.71   -0.56  1.0000
  15  -1  12    1358     253                                                        1756    1.97   -0.99  1.0000
 -15   1 -12    1417     209                                                        1827    1.97    0.99  1.0000
  15  -1  13     304     187                                                         326   -0.37   -0.58  1.0000
 -15   1 -13     199     168                                                         212   -0.37    0.58  1.0000
  15  -1  14     218     217                                                         363   -1.84   -0.01  1.0000
 -15   1 -14     213     185                                                         352   -1.84    0.01  1.0000
  15  -1  15     179     260                                                         303    0.62    0.88  1.0000
 -15   1 -15     224     258                                                         361    0.62   -0.88  1.0000
  15  -1  16      54     304                                                        -101   -1.82    0.49  1.0000
 -15   1 -16     633     261                                                         500   -1.82   -0.49  1.0000
  15   0   0      98     183                                                         539    1.64    3.47  1.0000
  15   0   1     254     110                                                          97   -3.23    1.08  1.0000
  15   0   2   12682     362                                                       14850    2.43   -0.80  1.0000
  15   0   3   43985     738                                                       37910   -3.89    0.53  1.0000
  15   0   4   52274     905                                                       53680    0.81   -0.85  1.0000
  15   0   5   38217     761                                                       41250    1.97   -0.33  1.0000
  15   0   6   30014     678                                                       37010    4.83    1.55  1.0000
  15   0   7   29682     630                                                       26700   -2.26   -0.50  1.0000
  15   0   8   11756     388                                                       14330    2.90   -0.06  1.0000
  15   0   9    5501     279                                                        6085    1.00   -0.22  1.0000
  15   0  10    7875     316                                                        7848   -0.03   -0.22  1.0000
  15   0  11      58     170                                                         176    1.88   -1.04  1.0000
  15   0  12    2136     213                                                        1874   -0.79    0.28  1.0000
  15   0  13     103     183                                                         167   -1.05   -0.22  1.0000
  15   0  14     196     264                                                         531    2.42   -0.43  1.0000
  15   0  15    1229     281                                                         965   -1.22    0.97  1.0000
  15   0  16    2453     436                                                        2478    0.07   -0.22  1.0000
  16  -8   0   17604     620                                                       20620   -2.73   -1.11  1.0000
  16  -8   1   59694     836                                                       69740   -5.03   -1.33  1.0000
  16  -8   2   21738     332                                                       18070    3.33    0.47  1.0000
  16  -8   3    7624     229                                                        8922   -1.82   -0.29  1.0000
  16  -8   4    3759     154                                                        3120    1.37    0.57  1.0000
  16  -8   5    2175     159                                                        2374    0.56    0.32  1.0000
  16  -8   6      86     101                                                         195   -5.83   -0.29  1.0000
  16  -8   7     184     136                                                          60    1.40    0.62  1.0000
  16  -8   8     229     113                                                         300    0.65    0.74  1.0000
  16  -8   9   13200     397                                                       14450   -1.35   -0.39  1.0000
  16  -8  10    3524     196                                                        4573    2.13    0.36  1.0000
  16  -8  11   14756     391                                                       17650   -2.93    0.49  1.0000
  16  -8  12    4456     245                                                        4284    0.32    0.56  1.0000
  16  -8  13    1590     188                                                        1106    1.68    0.78  1.0000
  16  -8  14    2474     217                                                        3435   -2.27   -0.19  1.0000
  16  -8  15     123     168                                                         221   -0.41   -1.35  1.0000
  16  -8  16      59     422                                                         277   -2.32    0.52  1.0000
  16  -7   0    1795     192                                                        4309    5.79    2.27  1.0000
  16  -7   1    4016     175                                                        3678    0.42   -6.77  1.0000
 -16   7  -1    3812     183                                                        3685    0.42    6.77  1.0000
  16  -7   2   10989     238                                                        9577   -1.94    0.11  1.0000
 -16   7  -2   11227     239                                                        9771   -1.94   -0.11  1.0000
  16  -7   3     814     117                                                        1334  -11.16   -3.73  1.0000
 -16   7  -3     637     124                                                        1012  -11.16    3.73  1.0000
  16  -7   4    5867     154                                                        4091    1.78   -3.46  1.0000
 -16   7  -4    5932     186                                                        4159    1.78    3.46  1.0000
  16  -7   5    3798     165                                                        3337   -1.30   -0.34  1.0000
 -16   7  -5    3288     178                                                        2842   -1.30    0.34  1.0000
  16  -7   6      57     112                                                          91   -1.22    0.14  1.0000
 -16   7  -6      41     119                                                          81   -1.22   -0.14  1.0000
  16  -7   7    3265     161                                                        2757   -1.91    2.37  1.0000
 -16   7  -7    3497     198                                                        2897   -1.91   -2.37  1.0000
  16  -7   8    4561     211                                                        5404    3.75   -0.14  1.0000
 -16   7  -8    5096     217                                                        5952    3.75    0.14  1.0000
  16  -7   9    1473     161                                                        1511    0.30   -2.01  1.0000
 -16   7  -9    1287     155                                                        1375    0.30    2.01  1.0000
  16  -7  10     270     118                                                         303   -0.18   -0.32  1.0000
 -16   7 -10     346     138                                                         390   -0.18    0.32  1.0000
  16  -7  11    1076     144                                                         970    0.34    2.15  1.0000
 -16   7 -11     807     132                                                         672    0.34   -2.15  1.0000
  16  -7  12    1726     165                                                        1723   -0.44    0.01  1.0000
 -16   7 -12    1367     171                                                        1364   -0.44   -0.01  1.0000
  16  -7  13     736     171                                                         698   -0.18   -0.05  1.0000
 -16   7 -13     742     151                                                         704   -0.18    0.05  1.0000
  16  -7  14     668     161                                                         890    1.16    0.46  1.0000
 -16   7 -14     619     172                                                         841    1.16   -0.46  1.0000
  16  -7  15    1359     231                                                        1702   -0.21    1.70  1.0000
 -16   7 -15    1494     252                                                        1840   -0.21   -1.70  1.0000
  16  -7  16     166     315                                                         258   -0.55    0.78  1.0000
 -16   7 -16     602     654                                                         773   -0.55   -0.78  1.0000
  16  -6   0    8385     297                                                       15140    7.85    2.80  1.0000
  16  -6   1    1535     143                                                        2299    0.44   11.68  1.0000
 -16   6  -1    2045     171                                                        2852    0.44  -11.68  1.0000
  16  -6   2     932     129                                                        1600    3.12   -6.04  1.0000
 -16   6  -2     801     145                                                        1640    3.12    6.04  1.0000
  16  -6   3    3577     153                                                        3560   -0.29    1.65  1.0000
 -16   6  -3    3398     182                                                        3323   -0.29   -1.65  1.0000
  16  -6   4     821     125                                                        1059    2.34    0.62  1.0000
 -16   6  -4     535     132                                                         739    2.34   -0.62  1.0000
  16  -6   5    1634     128                                                        1375   -1.24    0.46  1.0000
 -16   6  -5    1302     152                                                        1047   -1.24   -0.46  1.0000
  16  -6   6    3850     132                                                        2645   -2.38    1.37  1.0000
 -16   6  -6    3723     180                                                        2548   -2.38   -1.37  1.0000
  16  -6   7    3190     155                                                        3705    1.09   -0.70  1.0000
 -16   6  -7    3635     216                                                        4175    1.09    0.70  1.0000
  16  -6   8    4495     182                                                        3934   -3.75    1.59  1.0000
 -16   6  -8    5067     238                                                        4458   -3.75   -1.59  1.0000
  16  -6   9    1503     170                                                        2042    1.70    0.24  1.0000
 -16   6  -9    1431     151                                                        1947    1.70   -0.24  1.0000
  16  -6  10     281     112                                                         180    1.37   -1.07  1.0000
 -16   6 -10      46     125                                                         -38    1.37    1.07  1.0000
  16  -6  11    2031     168                                                        1897   -0.40   -2.03  1.0000
 -16   6 -11    1998     166                                                        1909   -0.40    2.03  1.0000
  16  -6  12     476     130                                                         458   -0.03   -0.11  1.0000
 -16   6 -12     232     138                                                         219   -0.03    0.11  1.0000
  16  -6  13     402     142                                                         612    1.33   -0.72  1.0000
 -16   6 -13     353     143                                                         563    1.33    0.72  1.0000
  16  -6  14     373     171                                                         411   -0.66    0.32  1.0000
 -16   6 -14     429     178                                                         469   -0.66   -0.32  1.0000
  16  -6  15     466     323                                                         538    0.68   -1.07  1.0000
 -16   6 -15    1199     253                                                        1345    0.68    1.07  1.0000
  16  -6  16     119     310                                                         278   -1.63    1.92  1.0000
 -16   6 -16      97     291                                                        -108   -1.63   -1.92  1.0000
  16  -5   0   31115     364                                                       21120    8.28   -3.06  1.0000
  16  -5   1   10959     285                                                       13380   -3.05   -3.75  1.0000
 -16   5  -1   11617     296                                                       13780   -3.05    3.75  1.0000
  16  -5   2   13165     250                                                       12640    3.09   -1.91  1.0000
 -16   5  -2   12218     283                                                       11520    3.09    1.91  1.0000
  16  -5   3    2743     165                                                        4345   -3.43    0.65  1.0000
 -16   5  -3    2995     202                                                        4629   -3.43   -0.65  1.0000
  16  -5   4    2954     126                                                        2302    0.92    3.27  1.0000
 -16   5  -4    2398     158                                                        1998    0.92   -3.27  1.0000
  16  -5   5     515     108                                                        1355   -3.48    2.79  1.0000
 -16   5  -5     594     163                                                        1620   -3.48   -2.79  1.0000
  16  -5   6     808     100                                                         557    2.64    1.01  1.0000
 -16   5  -6    1044     151                                                         848    2.64   -1.01  1.0000
  16  -5   7    4706     188                                                        6288   -2.88   -2.46  1.0000
 -16   5  -7    5304     278                                                        6809   -2.88    2.46  1.0000
  16  -5   8    3026     159                                                        3494    2.21    2.86  1.0000
 -16   5  -8    3945     285                                                        4590    2.21   -2.86  1.0000
  16  -5   9    2542     137                                                        2114    0.63    1.36  1.0000
 -16   5  -9    2174     182                                                        1830    0.63   -1.36  1.0000
  16  -5  10    4509     202                                                        5169   -0.78    1.15  1.0000
 -16   5 -10    4624     213                                                        5317   -0.78   -1.15  1.0000
  16  -5  11    4102     178                                                        3418    1.66    0.14  1.0000
 -16   5 -11    4530     194                                                        3844    1.66   -0.14  1.0000
  16  -5  12     288     126                                                         509    1.12   -2.01  1.0000
 -16   5 -12      64     180                                                         125    1.12    2.01  1.0000
  16  -5  13    2559     199                                                        3434   -2.05    0.12  1.0000
 -16   5 -13    2731     237                                                        3629   -2.05   -0.12  1.0000
  16  -5  14     359     185                                                         611   -0.06   -2.19  1.0000
 -16   5 -14     406     182                                                         640   -0.06    2.19  1.0000
  16  -5  15     603     301                                                        1315   -0.66   -3.43  1.0000
 -16   5 -15     711     298                                                        1441   -0.66    3.43  1.0000
  16  -5  16       9     264                                                         -78   -0.03    0.75  1.0000
 -16   5 -16     492     259                                                         611   -0.03   -0.75  1.0000
  16  -4   0     497     123                                                        1188    2.62    2.86  1.0000
  16  -4   1   10935     201                                                        7070   -6.34    8.63  1.0000
 -16   4  -1   11546     233                                                        7269   -6.34   -8.63  1.0000
  16  -4   2     810     113                                                         794   -1.47   -1.38  1.0000
 -16   4  -2    1024     133                                                        1057   -1.47    1.38  1.0000
  16  -4   3    8514     238                                                        9863   -1.57    2.28  1.0000
 -16   4  -3    7759     300                                                        9031   -1.57   -2.28  1.0000
  16  -4   4     152      79                                                         438    2.21    1.67  1.0000
 -16   4  -4      96     119                                                         353    2.21   -1.67  1.0000
  16  -4   5    2460     148                                                        4230   -6.64    2.53  1.0000
 -16   4  -5    1901     202                                                        3510   -6.64   -2.53  1.0000
  16  -4   6      79     138                                                          32   -1.69   -3.19  1.0000
 -16   4  -6      36     131                                                         286   -1.69    3.19  1.0000
  16  -4   7    1580     173                                                         935   -4.23    2.30  1.0000
 -16   4  -7    1666     163                                                         981   -4.23   -2.30  1.0000
  16  -4   8    1071     206                                                        1158   -0.12    0.83  1.0000
 -16   4  -8     803     151                                                         860   -0.12   -0.83  1.0000
  16  -4   9    3766     239                                                        3615   -1.36   -0.41  1.0000
 -16   4  -9    3977     303                                                        3837   -1.36    0.41  1.0000
  16  -4  10     232     180                                                         478    1.03   -1.42  1.0000
 -16   4 -10     488     163                                                         823    1.03    1.42  1.0000
  16  -4  11     538     106                                                         850    0.53    1.45  1.0000
 -16   4 -11     348     156                                                         604    0.53   -1.45  1.0000
  16  -4  12    1724     141                                                        1524   -0.57   -0.33  1.0000
 -16   4 -12    1429     198                                                        1246   -0.57    0.33  1.0000
  16  -4  13     976     197                                                        1011   -0.96    0.72  1.0000
 -16   4 -13     789     166                                                         809   -0.96   -0.72  1.0000
  16  -4  14    1717     239                                                        1780    0.39   -0.03  1.0000
 -16   4 -14    1649     239                                                        1714    0.39    0.03  1.0000
  16  -4  15     383     271                                                         424    1.99   -1.09  1.0000
 -16   4 -15     694     252                                                         809    1.99    1.09  1.0000
  16  -4  16     227     267                                                         214    0.15   -0.15  1.0000
 -16   4 -16     797     397                                                         775    0.15    0.15  1.0000
  16  -3   0   15599     370                                                       21080    5.20   -1.31  1.0000
  16  -3   1    2961     133                                                        2083   -1.66    1.91  1.0000
 -16   3  -1    2822     144                                                        1941   -1.66   -1.91  1.0000
  16  -3   2    2366     146                                                        1474   -0.48   -3.15  1.0000
 -16   3  -2    2124     138                                                        1317   -0.48    3.15  1.0000
  16  -3   3    1131     101                                                        1029   -8.82   -0.51  1.0000
 -16   3  -3     872     122                                                         679   -8.82    0.51  1.0000
  16  -3   4      18      96                                                          69   -1.05    1.28  1.0000
 -16   3  -4      83     108                                                         149   -1.05   -1.28  1.0000
  16  -3   5    2009     200                                                        2398    1.11   -4.22  1.0000
 -16   3  -5    1683     182                                                        2156    1.11    4.22  1.0000
  16  -3   6    1275     175                                                        1799   -1.99    3.29  1.0000
 -16   3  -6     958     161                                                        1343   -1.99   -3.29  1.0000
  16  -3   7    2069     186                                                        1865   -1.55   -0.03  1.0000
 -16   3  -7    2597     221                                                        2386   -1.55    0.03  1.0000
  16  -3   8    3764     260                                                        5049    2.52   -0.82  1.0000
 -16   3  -8    3635     251                                                        4879    2.52    0.82  1.0000
  16  -3   9    4257     250                                                        4237   -0.51    0.02  1.0000
 -16   3  -9    5199     258                                                        5178   -0.51   -0.02  1.0000
  16  -3  10    2813     229                                                        2990    0.40   -0.18  1.0000
 -16   3 -10    3332     277                                                        3527    0.40    0.18  1.0000
  16  -3  11    2292     357                                                        2392   -0.23    0.23  1.0000
 -16   3 -11    1082     218                                                        1152   -0.23   -0.23  1.0000
  16  -3  12    1739     201                                                        1602   -0.57    0.12  1.0000
 -16   3 -12    1827     192                                                        1680   -0.57   -0.12  1.0000
  16  -3  13    2192     226                                                        1866    1.19   -1.17  1.0000
 -16   3 -13    2746     253                                                        2390    1.19    1.17  1.0000
  16  -3  14     101     216                                                         163   -0.37    0.95  1.0000
 -16   3 -14      56     203                                                          97   -0.37   -0.95  1.0000
  16  -3  15     261     294                                                         665    2.32    0.85  1.0000
 -16   3 -15      93     535                                                        -131    2.32   -0.85  1.0000
  16  -3  16      52     273                                                         183   -0.87    1.41  1.0000
 -16   3 -16     332     312                                                         599   -0.87   -1.41  1.0000
  16  -2   0    1267     128                                                         689    2.67    2.57  1.0000
  16  -2   1    3826     181                                                        3880   -2.59    6.55  1.0000
 -16   2  -1    3598     185                                                        4127   -2.59   -6.55  1.0000
  16  -2   2    2123     167                                                        3214    1.14   -3.16  1.0000
 -16   2  -2    1503     158                                                        2395    1.14    3.16  1.0000
  16  -2   3   13808     321                                                       18660   -5.27   -1.26  1.0000
 -16   2  -3   13680     416                                                       18640   -5.27    1.26  1.0000
  16  -2   4   12745     283                                                        9407    7.56   -3.31  1.0000
 -16   2  -4   12933     313                                                        9234    7.56    3.31  1.0000
  16  -2   5    6050     334                                                        9530   -3.31   -4.03  1.0000
 -16   2  -5    4455     282                                                        7429   -3.31    4.03  1.0000
  16  -2   6    7123     256                                                        5371    3.04   -1.35  1.0000
 -16   2  -6    6350     227                                                        4618    3.04    1.35  1.0000
  16  -2   7    6865     321                                                        6888    1.05    2.42  1.0000
 -16   2  -7    6719     273                                                        6873    1.05   -2.42  1.0000
  16  -2   8    1899     195                                                        1592   -0.23   -3.48  1.0000
 -16   2  -8    2419     207                                                        1933   -0.23    3.48  1.0000
  16  -2   9    7065     349                                                        8144   -1.62    0.12  1.0000
 -16   2  -9    7000     331                                                        8058   -1.62   -0.12  1.0000
  16  -2  10    2062     197                                                        1634    4.02    0.06  1.0000
 -16   2 -10    1841     217                                                        1445    4.02   -0.06  1.0000
  16  -2  11    1607     220                                                         982    2.06   -0.99  1.0000
 -16   2 -11    1701     199                                                        1047    2.06    0.99  1.0000
  16  -2  12      48     164                                                         130    1.00   -1.12  1.0000
 -16   2 -12     290     181                                                         490    1.00    1.12  1.0000
  16  -2  13     321     181                                                         407   -0.42    0.42  1.0000
 -16   2 -13     685     187                                                         805   -0.42   -0.42  1.0000
  16  -2  14     183     255                                                         218    0.76   -0.93  1.0000
 -16   2 -14     485     297                                                         534    0.76    0.93  1.0000
  16  -2  15     649     407                                                         645    0.50   -0.59  1.0000
 -16   2 -15     288     293                                                         270    0.50    0.59  1.0000
  16  -2  16     797     302                                                        1051   -0.43   -1.07  1.0000
 -16   2 -16     493     279                                                         690   -0.43    1.07  1.0000
  16  -1   0    1691     182                                                        4069    5.80    0.54  1.0000
  16  -1   1    3412     139                                                        1522   -5.85   -2.40  1.0000
 -16   1  -1    3298     138                                                        1410   -5.85    2.40  1.0000
  16  -1   2    2890     208                                                        4035   -0.61   -3.89  1.0000
 -16   1  -2    3084     221                                                        4316   -0.61    3.89  1.0000
  16  -1   3    2625     109                                                        1759   -0.53    2.36  1.0000
 -16   1  -3    2835     151                                                        1932   -0.53   -2.36  1.0000
  16  -1   4    2540     218                                                        3450    4.59    2.57  1.0000
 -16   1  -4    2756     221                                                        3598    4.59   -2.57  1.0000
  16  -1   5     164     161                                                         612    3.08   -0.36  1.0000
 -16   1  -5      46     173                                                         356    3.08    0.36  1.0000
  16  -1   6    1006     215                                                        2060    4.55    2.46  1.0000
 -16   1  -6    1167     267                                                        2349    4.55   -2.46  1.0000
  16  -1   7    2459     194                                                        1573    1.58   -3.05  1.0000
 -16   1  -7    2046     183                                                        1266    1.58    3.05  1.0000
  16  -1   8     421     156                                                         354    0.68    1.38  1.0000
 -16   1  -8     219     149                                                         144    0.68   -1.38  1.0000
  16  -1   9     504     176                                                         664    0.13    1.01  1.0000
 -16   1  -9     446     164                                                         590    0.13   -1.01  1.0000
  16  -1  10      37     157                                                         144   -1.90   -0.17  1.0000
 -16   1 -10      43     164                                                         182   -1.90    0.17  1.0000
  16  -1  11     981     215                                                        1470    1.73    0.57  1.0000
 -16   1 -11     731     204                                                        1163    1.73   -0.57  1.0000
  16  -1  12    1653     220                                                        1636   -1.34    0.53  1.0000
 -16   1 -12    1601     217                                                        1574   -1.34   -0.53  1.0000
  16  -1  13     551     191                                                         723    0.19    0.92  1.0000
 -16   1 -13     165     188                                                         262    0.19   -0.92  1.0000
  16  -1  14     108     266                                                         153    0.24    0.55  1.0000
 -16   1 -14      99     258                                                         139    0.24   -0.55  1.0000
  16  -1  15      32     272                                                         -90   -0.53   -1.36  1.0000
 -16   1 -15     238     238                                                         254   -0.53    1.36  1.0000
  16   0   0     587     201                                                        1832    4.74    0.48  1.0000
  16   0   1       2     112                                                        -193   -0.14    0.30  1.0000
  16   0   2     201     111                                                        -252   -3.63    0.13  1.0000
  16   0   3    1962     110                                                         989   -3.29   -0.25  1.0000
  16   0   4    1259     220                                                        3092    5.10    1.16  1.0000
  16   0   5     848     162                                                         261   -3.52    0.84  1.0000
  16   0   6    2791     218                                                        3474    1.58   -0.52  1.0000
  16   0   7    2011     180                                                        1401   -1.89   -0.24  1.0000
  16   0   8    1598     188                                                        1359   -0.89    0.85  1.0000
  16   0   9    2337     242                                                        2932    1.49    0.02  1.0000
  16   0  10     266     190                                                         -56    4.18    0.14  1.0000
  16   0  11     622     187                                                         333   -1.74   -1.00  1.0000
  16   0  12     129     174                                                        -156    2.91    0.22  1.0000
  16   0  13      37     211                                                         131   -1.39   -0.42  1.0000
  16   0  14      69     254                                                         223   -1.67    0.36  1.0000
  16   0  15      80     259                                                         195    1.30   -0.07  1.0000
  17  -8   0     900     118                                                         247   11.70    0.52  1.0000
  17  -8   1    5088     194                                                        5583    0.66    6.76  1.0000
 -17   8  -1    4593     214                                                        5316    0.66   -6.76  1.0000
  17  -8   2    1934     168                                                        3136   -1.15   -4.22  1.0000
 -17   8  -2    1592     154                                                        2565   -1.15    4.22  1.0000
  17  -8   3    2995     152                                                        2554    0.99    0.97  1.0000
 -17   8  -3    3037     151                                                        2626    0.99   -0.97  1.0000
  17  -8   4    3063     172                                                        3474   -0.90    0.24  1.0000
 -17   8  -4    3350     185                                                        3773   -0.90   -0.24  1.0000
  17  -8   5     894     134                                                        1050    0.04   -0.91  1.0000
 -17   8  -5     453     121                                                         548    0.04    0.91  1.0000
  17  -8   6    4894     203                                                        6029   -1.83    0.74  1.0000
 -17   8  -6    5615     225                                                        6829   -1.83   -0.74  1.0000
  17  -8   7    3266     175                                                        3585   -2.34   -4.83  1.0000
 -17   8  -7    3198     181                                                        3347   -2.34    4.83  1.0000
  17  -8   8    1380     157                                                        1623    1.39   -0.04  1.0000
 -17   8  -8    1004     151                                                        1228    1.39    0.04  1.0000
  17  -8   9     411     123                                                         658   -0.18    1.93  1.0000
 -17   8  -9     508     129                                                         808   -0.18   -1.93  1.0000
  17  -8  10     279     121                                                         194   -0.61   -0.46  1.0000
 -17   8 -10     223     119                                                         144   -0.61    0.46  1.0000
  17  -8  11    2092     174                                                        2518    0.04   -2.49  1.0000
 -17   8 -11    2056     197                                                        2428    0.04    2.49  1.0000
  17  -8  12       0     133                                                        -119   -0.12    0.02  1.0000
 -17   8 -12      50     135                                                          56   -0.12   -0.02  1.0000
  17  -8  13     574     157                                                         513    0.38   -0.54  1.0000
 -17   8 -13     690     143                                                         615    0.38    0.54  1.0000
  17  -8  14     546     184                                                         547    0.72   -1.48  1.0000
 -17   8 -14     850     180                                                         833    0.72    1.48  1.0000
  17  -8  15     387     296                                                         543   -0.54   -0.78  1.0000
 -17   8 -15     199     215                                                         311   -0.54    0.78  1.0000
  17  -7   0   23069     430                                                       23050    0.16   -2.46  1.0000
  17  -7   1   20696     370                                                       20930   -0.13   -0.61  1.0000
 -17   7  -1   20671     368                                                       20860   -0.13    0.61  1.0000
  17  -7   2    8662     230                                                        8224    0.39   -1.83  1.0000
 -17   7  -2    8414     236                                                        7859    0.39    1.83  1.0000
  17  -7   3   11490     278                                                       13370   -2.19   -0.51  1.0000
 -17   7  -3   10101     305                                                       11900   -2.19    0.51  1.0000
  17  -7   4    1046     114                                                         816    2.43    5.22  1.0000
 -17   7  -4    1158     140                                                        1228    2.43   -5.22  1.0000
  17  -7   5     305     148                                                         213    0.43   -4.16  1.0000
 -17   7  -5     749     134                                                         449    0.43    4.16  1.0000
  17  -7   6     327     103                                                         493   -1.03   -3.26  1.0000
 -17   7  -6     587     130                                                         638   -1.03    3.26  1.0000
  17  -7   7      86      94                                                         263    0.86    1.61  1.0000
 -17   7  -7      78     126                                                         251    0.86   -1.61  1.0000
  17  -7   8    7078     269                                                        8604    0.06   -2.64  1.0000
 -17   7  -8    6263     266                                                        7657    0.06    2.64  1.0000
  17  -7   9     465     116                                                         483   -0.55    0.30  1.0000
 -17   7  -9     562     145                                                         590   -0.55   -0.30  1.0000
  17  -7  10    5583     200                                                        4467    2.25   -0.48  1.0000
 -17   7 -10    5238     243                                                        4117    2.25    0.48  1.0000
  17  -7  11    1647     147                                                        1360   -0.76    2.10  1.0000
 -17   7 -11     906     151                                                         732   -0.76   -2.10  1.0000
  17  -7  12    5695     264                                                        6544   -1.26    0.61  1.0000
 -17   7 -12    6030     279                                                        6899   -1.26   -0.61  1.0000
  17  -7  13    2147     190                                                        2165    0.10   -0.59  1.0000
 -17   7 -13    1926     190                                                        1920    0.10    0.59  1.0000
  17  -7  14    2030     285                                                        1820    0.53   -1.32  1.0000
 -17   7 -14    2248     230                                                        1985    0.53    1.32  1.0000
  17  -7  15     799     309                                                        1382   -2.38   -2.84  1.0000
 -17   7 -15     617     421                                                        1006   -2.38    2.84  1.0000
  17  -6   0    3074     160                                                        3001    0.17    1.59  1.0000
  17  -6   1   13465     316                                                       15790   -2.79    2.44  1.0000
 -17   6  -1   13863     335                                                       16360   -2.79   -2.44  1.0000
  17  -6   2    2951     155                                                        3365   -0.90    0.37  1.0000
 -17   6  -2    2816     168                                                        3229   -0.90   -0.37  1.0000
  17  -6   3    2410     157                                                        3283   -0.95   -3.32  1.0000
 -17   6  -3    2328     196                                                        3062   -0.95    3.32  1.0000
  17  -6   4    1348     149                                                        1687   -1.08   -1.91  1.0000
 -17   6  -4    1350     159                                                        1598   -1.08    1.91  1.0000
  17  -6   5    2984     145                                                        2882    0.99   -1.10  1.0000
 -17   6  -5    2812     195                                                        2665    0.99    1.10  1.0000
  17  -6   6    1770     102                                                        1605   -1.90   -0.62  1.0000
 -17   6  -6    2042     176                                                        1857   -1.90    0.62  1.0000
  17  -6   7     720     115                                                         819   -0.53    0.29  1.0000
 -17   6  -7     731     168                                                         845   -0.53   -0.29  1.0000
  17  -6   8     789     113                                                         557    5.73   -0.68  1.0000
 -17   6  -8    1040     166                                                         776    5.73    0.68  1.0000
  17  -6   9    2115     152                                                        2223   -0.08    1.08  1.0000
 -17   6  -9    1492     189                                                        1609   -0.08   -1.08  1.0000
  17  -6  10       8      97                                                         104   -1.65   -0.95  1.0000
 -17   6 -10      29     117                                                         134   -1.65    0.95  1.0000
  17  -6  11     176     120                                                         134    0.44    0.02  1.0000
 -17   6 -11     152     133                                                         114    0.44   -0.02  1.0000
  17  -6  12    1195     133                                                        1141   -0.77    0.77  1.0000
 -17   6 -12    1136     152                                                        1099   -0.77   -0.77  1.0000
  17  -6  13    1390     185                                                        1231    0.80   -0.70  1.0000
 -17   6 -13     907     160                                                         760    0.80    0.70  1.0000
  17  -6  14     251     245                                                         164    0.43    0.70  1.0000
 -17   6 -14     419     186                                                         309    0.43   -0.70  1.0000
  17  -6  15     559     312                                                         542    0.08    0.87  1.0000
 -17   6 -15     403     291                                                         402    0.08   -0.87  1.0000
  17  -6  16     593     590                                                         582    0.01    0.12  1.0000
 -17   6 -16       0     623                                                        -121    0.01   -0.12  1.0000
  17  -5   0     664     109                                                          57    8.53    0.39  1.0000
  17  -5   1     707     122                                                        1044   -2.37    1.14  1.0000
 -17   5  -1     540     152                                                         884   -2.37   -1.14  1.0000
  17  -5   2    1846     136                                                        2390   -4.22   -0.46  1.0000
 -17   5  -2    1185     157                                                        1622   -4.22    0.46  1.0000
  17  -5   3    3812     160                                                        3186   -2.47    1.23  1.0000
 -17   5  -3    3319     166                                                        2733   -2.47   -1.23  1.0000
  17  -5   4    2169     108                                                        1351    1.32    2.24  1.0000
 -17   5  -4    1899     140                                                        1151    1.32   -2.24  1.0000
  17  -5   5    3092     176                                                        3481    0.60   -2.81  1.0000
 -17   5  -5    3183     189                                                        3502    0.60    2.81  1.0000
  17  -5   6    6390     209                                                        7476   -0.74    2.63  1.0000
 -17   5  -6    6373     283                                                        7511   -0.74   -2.63  1.0000
  17  -5   7    7164     276                                                        6764    0.87    1.43  1.0000
 -17   5  -7    7083     300                                                        6725    0.87   -1.43  1.0000
  17  -5   8    2874     263                                                        3078   -0.88    0.47  1.0000
 -17   5  -8    3188     221                                                        3402   -0.88   -0.47  1.0000
  17  -5   9     980     183                                                         592    2.31    1.36  1.0000
 -17   5  -9     667     160                                                         373    2.31   -1.36  1.0000
  17  -5  10     201     170                                                         535    1.09   -2.34  1.0000
 -17   5 -10     101     151                                                         332    1.09    2.34  1.0000
  17  -5  11     508     113                                                         480   -0.81    1.87  1.0000
 -17   5 -11     312     169                                                         298   -0.81   -1.87  1.0000
  17  -5  12     382     132                                                         360   -0.55   -0.23  1.0000
 -17   5 -12     484     175                                                         455   -0.55    0.23  1.0000
  17  -5  13    1870     255                                                        2185   -0.51   -0.79  1.0000
 -17   5 -13    1565     217                                                        1850   -0.51    0.79  1.0000
  17  -5  14    1481     306                                                        1596    0.43   -0.39  1.0000
 -17   5 -14    1207     246                                                        1311    0.43    0.39  1.0000
  17  -5  15      32     320                                                        -193    1.27    0.67  1.0000
 -17   5 -15     363     240                                                         181    1.27   -0.67  1.0000
 -17   5 -16      89     619                                                        -193    2.22   -0.97  1.0000
  17  -4   0    7565     212                                                        6474    1.70   -0.44  1.0000
  17  -4   1    1325     124                                                        1149    1.93    1.51  1.0000
 -17   4  -1    1071     178                                                        1009    1.93   -1.51  1.0000
  17  -4   2    6206     199                                                        6555   -0.54   -0.18  1.0000
 -17   4  -2    6200     228                                                        6540   -0.54    0.18  1.0000
  17  -4   3    6851     214                                                        7782   -3.79   -2.56  1.0000
 -17   4  -3    8200     290                                                        8995   -3.79    2.56  1.0000
  17  -4   4   13429     227                                                       12120    1.77    0.08  1.0000
 -17   4  -4   13796     308                                                       12520    1.77   -0.08  1.0000
  17  -4   5    3820     235                                                        4937   -2.08    1.02  1.0000
 -17   4  -5    4143     250                                                        5346   -2.08   -1.02  1.0000
  17  -4   6    4190     240                                                        4115    0.70   -1.08  1.0000
 -17   4  -6    4366     254                                                        4225    0.70    1.08  1.0000
  17  -4   7    4164     276                                                        4383   -0.58    1.38  1.0000
 -17   4  -7    4166     235                                                        4470   -0.58   -1.38  1.0000
  17  -4   8    1597     190                                                        1266   -0.89    3.69  1.0000
 -17   4  -8    1368     174                                                        1249   -0.89   -3.69  1.0000
  17  -4   9    3612     293                                                        4172   -0.42   -1.15  1.0000
 -17   4  -9    3558     236                                                        4099   -0.42    1.15  1.0000
  17  -4  10     319     186                                                         666   -0.12   -2.57  1.0000
 -17   4 -10     454     184                                                         808   -0.12    2.57  1.0000
  17  -4  11     241     168                                                         205    5.28   -2.41  1.0000
 -17   4 -11     171     180                                                         403    5.28    2.41  1.0000
  17  -4  12     457     178                                                         716    0.41   -3.48  1.0000
 -17   4 -12     320     172                                                         396    0.41    3.48  1.0000
  17  -4  13     302     182                                                         261    0.31   -0.04  1.0000
 -17   4 -13     576     179                                                         519    0.31    0.04  1.0000
  17  -4  14     764     439                                                         575    0.58   -1.17  1.0000
 -17   4 -14    1429     321                                                        1146    0.58    1.17  1.0000
  17  -4  15     755     295                                                        1070   -1.21   -1.89  1.0000
 -17   4 -15     812     272                                                        1077   -1.21    1.89  1.0000
  17  -3   0    6138     193                                                        2830    6.46   -0.07  1.0000
  17  -3   1    4831     213                                                        5119   -3.75    2.93  1.0000
 -17   3  -1    3954     228                                                        4380   -3.75   -2.93  1.0000
  17  -3   2   12859     336                                                       13910   -1.52   -2.82  1.0000
 -17   3  -2   13227     362                                                       14120   -1.52    2.82  1.0000
  17  -3   3     819     109                                                        1123   -1.26   -0.16  1.0000
 -17   3  -3     691     137                                                         961   -1.26    0.16  1.0000
  17  -3   4    3688     146                                                        2731    1.25    5.06  1.0000
 -17   3  -4    3124     146                                                        2427    1.25   -5.06  1.0000
  17  -3   5    1262     176                                                        1000    1.48    2.20  1.0000
 -17   3  -5    1196     157                                                        1026    1.48   -2.20  1.0000
  17  -3   6    2238     177                                                        1268    3.00    0.58  1.0000
 -17   3  -6    2531     181                                                        1477    3.00   -0.58  1.0000
  17  -3   7      71     155                                                         271   -3.42    0.64  1.0000
 -17   3  -7     165     153                                                         379   -3.42   -0.64  1.0000
  17  -3   8    1915     248                                                        2194    0.30   -2.43  1.0000
 -17   3  -8    1670     199                                                        1839    0.30    2.43  1.0000
  17  -3   9     594     181                                                         636   -0.28   -0.11  1.0000
 -17   3  -9     657     182                                                         694   -0.28    0.11  1.0000
  17  -3  10     275     227                                                         533   -0.78    1.53  1.0000
 -17   3 -10     400     219                                                         699   -0.78   -1.53  1.0000
  17  -3  11     470     170                                                         300    0.85    0.73  1.0000
 -17   3 -11     458     164                                                         292    0.85   -0.73  1.0000
  17  -3  12     592     185                                                         824   -0.96    0.64  1.0000
 -17   3 -12     893     190                                                        1179   -0.96   -0.64  1.0000
  17  -3  13     315     205                                                         422   -1.00    0.59  1.0000
 -17   3 -13     284     179                                                         404   -1.00   -0.59  1.0000
  17  -3  14    1390     405                                                         842    1.64    1.46  1.0000
 -17   3 -14    1359     289                                                         830    1.64   -1.46  1.0000
  17  -3  15      59     276                                                         122   -0.48   -0.81  1.0000
 -17   3 -15     165     257                                                         258   -0.48    0.81  1.0000
  17  -2   0     607     136                                                        1332    3.03   -0.20  1.0000
  17  -2   1    1362     134                                                        1064   -0.13    1.25  1.0000
 -17   2  -1    1309     163                                                        1026   -0.13   -1.25  1.0000
  17  -2   2    2871     166                                                        2523   -1.94    0.51  1.0000
 -17   2  -2    2838     176                                                        2487   -1.94   -0.51  1.0000
  17  -2   3    1367     133                                                        3149   -1.56   -4.66  1.0000
 -17   2  -3    1305     183                                                        3053   -1.56    4.66  1.0000
  17  -2   4    1864     172                                                        1808    4.74   -5.24  1.0000
 -17   2  -4    1872     190                                                        1743    4.74    5.24  1.0000
  17  -2   5    1290     198                                                        1723   -1.46    0.06  1.0000
 -17   2  -5    1728     264                                                        2229   -1.46   -0.06  1.0000
  17  -2   6    2630     241                                                        3323   -1.39   -1.40  1.0000
 -17   2  -6    2902     240                                                        3605   -1.39    1.40  1.0000
  17  -2   7    1719     194                                                        1488    0.38   -1.04  1.0000
 -17   2  -7    1551     178                                                        1318    0.38    1.04  1.0000
  17  -2   8    3012     236                                                        2748    0.32    1.14  1.0000
 -17   2  -8    3101     249                                                        2851    0.32   -1.14  1.0000
  17  -2   9    1121     181                                                         949    2.75   -0.89  1.0000
 -17   2  -9    1623     211                                                        1429    2.75    0.89  1.0000
  17  -2  10      67     202                                                        -100    1.66    1.27  1.0000
 -17   2 -10     147     180                                                         103    1.66   -1.27  1.0000
  17  -2  11    1720     236                                                        1866    0.72    0.37  1.0000
 -17   2 -11    1803     222                                                        1960    0.72   -0.37  1.0000
  17  -2  12     663     200                                                         567    1.31   -2.64  1.0000
 -17   2 -12     723     178                                                         591    1.31    2.64  1.0000
  17  -2  13     454     223                                                         408   -1.98   -0.71  1.0000
 -17   2 -13     506     254                                                         452   -1.98    0.71  1.0000
  17  -2  14     212     372                                                         548   -0.64   -2.18  1.0000
 -17   2 -14       1     296                                                          59   -0.64    2.18  1.0000
  17  -2  15     396     300                                                         137    1.96    1.41  1.0000
 -17   2 -15      89     311                                                         -22    1.96   -1.41  1.0000
  17  -1   0      38     111                                                         197   -3.68    3.65  1.0000
  17  -1   1    3419     203                                                        4124   -0.90    1.30  1.0000
 -17   1  -1    3992     212                                                        4774   -0.90   -1.30  1.0000
  17  -1   2    1105     151                                                         632    2.55   -0.89  1.0000
 -17   1  -2     649     127                                                         248    2.55    0.89  1.0000
  17  -1   3   15936     283                                                       14110    0.40   -2.02  1.0000
 -17   1  -3   17868     333                                                       15910    0.40    2.02  1.0000
  17  -1   4    9402     304                                                        7831    5.12    1.27  1.0000
 -17   1  -4   11024     306                                                        9469    5.12   -1.27  1.0000
  17  -1   5    5996     322                                                        6951   -1.92   -1.69  1.0000
 -17   1  -5    6507     294                                                        7397   -1.92    1.69  1.0000
  17  -1   6    2072     202                                                        2497   -1.61   -1.63  1.0000
 -17   1  -6    2609     211                                                        3006   -1.61    1.63  1.0000
  17  -1   7    5708     276                                                        6045   -0.54    0.90  1.0000
 -17   1  -7    5304     271                                                        5668   -0.54   -0.90  1.0000
  17  -1   8    3822     258                                                        4028    4.95   -3.20  1.0000
 -17   1  -8    3492     248                                                        3582    4.95    3.20  1.0000
  17  -1   9     121     154                                                          32   -0.16    2.16  1.0000
 -17   1  -9      71     151                                                         -77   -0.16   -2.16  1.0000
  17  -1  10    2383     276                                                        1830    1.03    1.25  1.0000
 -17   1 -10    2464     209                                                        1919    1.03   -1.25  1.0000
  17  -1  11    2522     290                                                        2486    1.38   -0.05  1.0000
 -17   1 -11    2491     248                                                        2453    1.38    0.05  1.0000
  17  -1  12     292     178                                                         400    0.47    1.79  1.0000
 -17   1 -12      95     188                                                         174    0.47   -1.79  1.0000
  17  -1  13     255     230                                                         343   -0.63    0.90  1.0000
 -17   1 -13      94     236                                                         163   -0.63   -0.90  1.0000
  17  -1  14     148     262                                                         148    0.91    0.41  1.0000
 -17   1 -14      63     246                                                          60    0.91   -0.41  1.0000
  17  -1  15     473     268                                                         370    0.40   -0.51  1.0000
 -17   1 -15     605     271                                                         488    0.40    0.51  1.0000
  17   0   0    4546     272                                                        4513    0.26   -1.50  1.0000
  17   0   1    2300     187                                                        3703   -3.30    1.57  1.0000
  17   0   2      34     126                                                          28   -2.78    0.34  1.0000
  17   0   3    2689     164                                                        4020   -2.98    0.56  1.0000
  17   0   4    1360     193                                                         638    3.00   -0.18  1.0000
  17   0   5     565     162                                                         578   -0.08    0.17  1.0000
  17   0   6     936     171                                                        1132   -0.70    1.40  1.0000
  17   0   7    1419     190                                                        1336    0.33   -0.55  1.0000
  17   0   8     179     174                                                         520   -2.46    0.35  1.0000
  17   0   9       9     184                                                          51   -2.44   -0.46  1.0000
  17   0  10    2106     241                                                        2817   -1.85    0.64  1.0000
  17   0  11     904     217                                                        1030   -0.50   -0.27  1.0000
  17   0  12     568     199                                                         796   -1.13    0.20  1.0000
  17   0  13    1459     297                                                        1371    0.30   -0.02  1.0000
  17   0  14     282     285                                                         220    0.63   -0.62  1.0000
  18  -9   0  102808    1610                                                       98990   -1.58    1.19  1.0000
  18  -9   1   68665     926                                                       71840    1.53    0.14  1.0000
  18  -9   2   29873     557                                                       32570    1.99   -0.73  1.0000
  18  -9   3   26895     409                                                       23350   -2.89    0.22  1.0000
  18  -9   4    6069     232                                                        7037    1.55   -0.08  1.0000
  18  -9   5    2589     145                                                        1868   -1.86   -1.08  1.0000
  18  -9   6     698     144                                                         797   -0.40    0.41  1.0000
  18  -9   7    1947     178                                                        2017   -0.13    0.44  1.0000
  18  -9   8    6677     307                                                        8405    2.60   -0.63  1.0000
  18  -9   9    2216     163                                                        2400    0.49    0.07  1.0000
  18  -9  10    9843     288                                                       10300    0.59   -0.14  1.0000
  18  -9  11    5685     219                                                        3983   -3.15   -0.21  1.0000
  18  -9  12   10406     491                                                       11190    0.95    0.39  1.0000
  18  -9  13    3596     238                                                        3580   -0.04    0.12  1.0000
  18  -9  14    4379     355                                                        5391    1.86   -0.07  1.0000
  18  -8   0     569     148                                                        1852    4.86    1.03  1.0000
  18  -8   1     977     142                                                        1154   -2.04   -1.76  1.0000
 -18   8  -1    1009     140                                                        1198   -2.04    1.76  1.0000
  18  -8   2    3145     171                                                        3227    3.27   -0.57  1.0000
 -18   8  -2    3342     185                                                        3432    3.27    0.57  1.0000
  18  -8   3    5886     202                                                        4880   -2.03    0.44  1.0000
 -18   8  -3    4828     202                                                        3925   -2.03   -0.44  1.0000
  18  -8   4     485     128                                                         852   -0.77   -2.28  1.0000
 -18   8  -4     401     151                                                         738   -0.77    2.28  1.0000
  18  -8   5    1373     129                                                        1106    0.64    0.77  1.0000
 -18   8  -5    1348     143                                                        1084    0.64   -0.77  1.0000
  18  -8   6    1441     125                                                        1046    1.09   -4.13  1.0000
 -18   8  -6    1697     178                                                        1329    1.09    4.13  1.0000
  18  -8   7    2466     167                                                        2596    2.81    0.06  1.0000
 -18   8  -7    2075     190                                                        2188    2.81   -0.06  1.0000
  18  -8   8     720     125                                                         765    1.34   -1.18  1.0000
 -18   8  -8     585     139                                                         626    1.34    1.18  1.0000
  18  -8   9    2060     174                                                        2346    1.09   -0.02  1.0000
 -18   8  -9    1912     174                                                        2191    1.09    0.02  1.0000
  18  -8  10     640     138                                                         640   -2.11    0.45  1.0000
 -18   8 -10     927     154                                                         941   -2.11   -0.45  1.0000
  18  -8  11     739     150                                                         887    1.00   -0.15  1.0000
 -18   8 -11     693     164                                                         835    1.00    0.15  1.0000
  18  -8  12     362     137                                                         480   -0.68    1.43  1.0000
 -18   8 -12     127     167                                                         184   -0.68   -1.43  1.0000
  18  -8  13     703     165                                                         597    0.65    1.60  1.0000
 -18   8 -13     725     155                                                         617    0.65   -1.60  1.0000
  18  -8  14     792     242                                                         445   -0.24    1.79  1.0000
 -18   8 -14     586     206                                                         294   -0.24   -1.79  1.0000
  18  -8  15    1212     629                                                        1088    1.77    0.60  1.0000
 -18   8 -15     955     635                                                         840    1.77   -0.60  1.0000
  18  -7   0     632     125                                                         274   10.65   -1.04  1.0000
  18  -7   1     764     122                                                         388   -2.29   -0.67  1.0000
 -18   7  -1     999     124                                                         561   -2.29    0.67  1.0000
  18  -7   2    2396     168                                                        3041   -1.90    0.31  1.0000
 -18   7  -2    2327     169                                                        2967   -1.90   -0.31  1.0000
  18  -7   3    2698     179                                                        2604    0.05   -0.25  1.0000
 -18   7  -3    2385     160                                                        2296    0.05    0.25  1.0000
  18  -7   4     702     136                                                        1555    5.52   -1.45  1.0000
 -18   7  -4     559     175                                                        1321    5.52    1.45  1.0000
  18  -7   5    1535     153                                                        2035   -1.74    0.31  1.0000
 -18   7  -5    1043     153                                                        1462   -1.74   -0.31  1.0000
  18  -7   6     839     111                                                         438   -2.21   -0.72  1.0000
 -18   7  -6    1015     158                                                         566   -2.21    0.72  1.0000
  18  -7   7    1353     136                                                        1243   -0.95   -2.45  1.0000
 -18   7  -7    1608     188                                                        1507   -0.95    2.45  1.0000
  18  -7   8     421     124                                                         549   -0.11    5.90  1.0000
 -18   7  -8     621     156                                                         939   -0.11   -5.90  1.0000
  18  -7   9      21     108                                                         111   -1.08   -1.23  1.0000
 -18   7  -9      41     142                                                         -13   -1.08    1.23  1.0000
  18  -7  10       8     112                                                         109    1.27   -2.10  1.0000
 -18   7 -10      91     130                                                         -77    1.27    2.10  1.0000
  18  -7  11     239     116                                                         358   -0.90   -1.46  1.0000
 -18   7 -11     385     144                                                         543   -0.90    1.46  1.0000
  18  -7  12     779     135                                                         471    0.43   -2.08  1.0000
 -18   7 -12     970     174                                                         629    0.43    2.08  1.0000
  18  -7  13     557     179                                                         502   -1.23    0.18  1.0000
 -18   7 -13     651     161                                                         592   -1.23   -0.18  1.0000
  18  -7  14     110     271                                                         133    0.50    0.05  1.0000
 -18   7 -14     254     258                                                         291    0.50   -0.05  1.0000
  18  -7  15     926     344                                                         821   -0.10   -0.59  1.0000
 -18   7 -15       6     572                                                        -564   -0.10    0.59  1.0000
  18  -6   0   31209     599                                                       36330    3.59   -0.35  1.0000
  18  -6   1   16794     357                                                       18500    1.59    0.52  1.0000
 -18   6  -1   16744     358                                                       18400    1.59   -0.52  1.0000
  18  -6   2   31462     525                                                       33110    0.93   -2.42  1.0000
 -18   6  -2   32084     538                                                       34010    0.93    2.42  1.0000
  18  -6   3   23845     343                                                       18860   -4.27   -1.52  1.0000
 -18   6  -3   22199     396                                                       17550   -4.27    1.52  1.0000
  18  -6   4    6818     235                                                        8712    1.85   -3.22  1.0000
 -18   6  -4    5920     262                                                        7942    1.85    3.22  1.0000
  18  -6   5    1335     127                                                        1945    2.01   -0.02  1.0000
 -18   6  -5    1915     211                                                        2566    2.01    0.02  1.0000
  18  -6   6    6350     210                                                        6898    0.66    0.69  1.0000
 -18   6  -6    6484     279                                                        6990    0.66   -0.69  1.0000
  18  -6   7     887     130                                                        1417    1.15    4.37  1.0000
 -18   6  -7    1188     187                                                        1442    1.15   -4.37  1.0000
  18  -6   8    8744     231                                                        7226   -1.18   -2.22  1.0000
 -18   6  -8    7541     285                                                        6245   -1.18    2.22  1.0000
  18  -6   9    2886     154                                                        3190    0.87   -0.96  1.0000
 -18   6  -9    2365     215                                                        2720    0.87    0.96  1.0000
  18  -6  10    4901     234                                                        5348    0.83   -0.22  1.0000
 -18   6 -10    5393     286                                                        5883    0.83    0.22  1.0000
  18  -6  11    2682     213                                                        3370    1.85   -1.25  1.0000
 -18   6 -11    2229     222                                                        2944    1.85    1.25  1.0000
  18  -6  12    6433     279                                                        6012   -1.50   -1.50  1.0000
 -18   6 -12    7487     324                                                        7148   -1.50    1.50  1.0000
  18  -6  13    1899     268                                                        2206    1.32   -1.65  1.0000
 -18   6 -13    1804     267                                                        2203    1.32    1.65  1.0000
  18  -6  14    2508     423                                                        2879    0.59   -1.18  1.0000
 -18   6 -14    3061     422                                                        3513    0.59    1.18  1.0000
  18  -6  15    1256     379                                                        1306   -0.04   -2.40  1.0000
 -18   6 -15    1075     356                                                        1246   -0.04    2.40  1.0000
  18  -5   0    2199     204                                                        4586    5.34   -0.43  1.0000
  18  -5   1     870     142                                                        1087   -4.23    9.73  1.0000
 -18   5  -1    1038     144                                                        1324   -4.23   -9.73  1.0000
  18  -5   2    7981     236                                                        8409    0.53   -1.34  1.0000
 -18   5  -2    7607     282                                                        8046    0.53    1.34  1.0000
  18  -5   3    1270     147                                                        1602   -2.81    0.24  1.0000
 -18   5  -3    1453     167                                                        1796   -2.81   -0.24  1.0000
  18  -5   4     948     124                                                        1793    3.91    2.30  1.0000
 -18   5  -4     922     157                                                        1698    3.91   -2.30  1.0000
  18  -5   5     323     113                                                         442   -1.31    2.57  1.0000
 -18   5  -5     306     138                                                         398   -1.31   -2.57  1.0000
  18  -5   6    1071     155                                                         677   -1.48    0.87  1.0000
 -18   5  -6    1055     160                                                         664   -1.48   -0.87  1.0000
  18  -5   7    3410     241                                                        3429    0.26    0.11  1.0000
 -18   5  -7    2655     242                                                        2671    0.26   -0.11  1.0000
  18  -5   8     252     184                                                         472    0.42   -2.26  1.0000
 -18   5  -8     156     179                                                         344    0.42    2.26  1.0000
  18  -5   9    1479     211                                                        1243   -1.50   -0.32  1.0000
 -18   5  -9    1558     179                                                        1313   -1.50    0.32  1.0000
  18  -5  10     731     204                                                         502    1.83    1.90  1.0000
 -18   5 -10     952     190                                                         677    1.83   -1.90  1.0000
  18  -5  11     159     187                                                         137   -0.12    0.22  1.0000
 -18   5 -11     573     211                                                         531   -0.12   -0.22  1.0000
  18  -5  12      57     190                                                          50    0.53    2.78  1.0000
 -18   5 -12      99     163                                                         191    0.53   -2.78  1.0000
  18  -5  13    1590     288                                                        1987   -1.56   -0.66  1.0000
 -18   5 -13     875     251                                                        1168   -1.56    0.66  1.0000
  18  -5  14     340     255                                                         443    1.04   -0.05  1.0000
 -18   5 -14     222     243                                                         303    1.04    0.05  1.0000
  18  -5  15     243     329                                                         329    0.55   -0.56  1.0000
 -18   5 -15     978     332                                                        1147    0.55    0.56  1.0000
  18  -4   0    3362     156                                                        1627    4.53    0.33  1.0000
  18  -4   1     647     168                                                        1627   -2.78   -3.38  1.0000
 -18   4  -1     591     159                                                        1521   -2.78    3.38  1.0000
  18  -4   2    7414     200                                                        6538   -2.59   -0.79  1.0000
 -18   4  -2    7900     245                                                        6999   -2.59    0.79  1.0000
  18  -4   3    2481     153                                                        2870   -0.97   -0.11  1.0000
 -18   4  -3    2219     195                                                        2586   -0.97    0.11  1.0000
  18  -4   4    2755     139                                                        2742    3.45   -1.14  1.0000
 -18   4  -4    2441     176                                                        2413    3.45    1.14  1.0000
  18  -4   5     724     151                                                         621   -0.69   -0.32  1.0000
 -18   4  -5     645     152                                                         548   -0.69    0.32  1.0000
  18  -4   6     738     181                                                         725   -1.34   -1.44  1.0000
 -18   4  -6     596     153                                                         574   -1.34    1.44  1.0000
  18  -4   7    2597     204                                                        2239   -0.16   -1.41  1.0000
 -18   4  -7    2566     210                                                        2209   -0.16    1.41  1.0000
  18  -4   8     312     207                                                         708    1.60   -1.70  1.0000
 -18   4  -8     329     175                                                         734    1.60    1.70  1.0000
  18  -4   9     363     174                                                         557    3.57    2.24  1.0000
 -18   4  -9     330     182                                                         499    3.57   -2.24  1.0000
  18  -4  10    1166     204                                                        1215   -0.15    0.46  1.0000
 -18   4 -10    1066     186                                                        1114   -0.15   -0.46  1.0000
  18  -4  11     889     190                                                         960   -0.83    0.84  1.0000
 -18   4 -11     911     184                                                         987   -0.83   -0.84  1.0000
  18  -4  12    1205     199                                                        1069    0.29   -0.65  1.0000
 -18   4 -12    1073     186                                                         944    0.29    0.65  1.0000
  18  -4  13     314     275                                                         261   -1.41    1.09  1.0000
 -18   4 -13     239     215                                                         189   -1.41   -1.09  1.0000
  18  -4  14     354     263                                                         292   -1.54   -1.99  1.0000
 -18   4 -14     591     262                                                         539   -1.54    1.99  1.0000
  18  -4  15     177     286                                                         639    3.14    0.30  1.0000
 -18   4 -15     290     408                                                         842    3.14   -0.30  1.0000
  18  -3   0    3850     228                                                        4649    0.99    2.81  1.0000
  18  -3   1   15665     296                                                       13330   -2.51    1.87  1.0000
 -18   3  -1   17263     371                                                       14630   -2.51   -1.87  1.0000
  18  -3   2    3903     159                                                        3191   -1.34   -0.86  1.0000
 -18   3  -2    3221     178                                                        2560   -1.34    0.86  1.0000
  18  -3   3   10185     235                                                        9948   -0.56   -1.47  1.0000
 -18   3  -3   10896     317                                                       10800   -0.56    1.47  1.0000
  18  -3   4    7951     345                                                       11470    4.57    0.54  1.0000
 -18   3  -4    7986     432                                                       11480    4.57   -0.54  1.0000
  18  -3   5   11431     347                                                        9459   -2.46   -0.33  1.0000
 -18   3  -5   12380     374                                                       10350   -2.46    0.33  1.0000
  18  -3   6   12709     336                                                       10570   -2.22   -3.37  1.0000
 -18   3  -6   12027     360                                                       10230   -2.22    3.37  1.0000
  18  -3   7   16842     470                                                       17170    0.30   -0.26  1.0000
 -18   3  -7   16526     461                                                       16870    0.30    0.26  1.0000
  18  -3   8    3266     279                                                        2439   -1.99    1.33  1.0000
 -18   3  -8    4015     238                                                        3008   -1.99   -1.33  1.0000
  18  -3   9    1224     201                                                        1091   -0.42   -0.80  1.0000
 -18   3  -9    1219     225                                                        1133   -0.42    0.80  1.0000
  18  -3  10    1111     212                                                        1666    1.82   -0.80  1.0000
 -18   3 -10    1314     207                                                        1936    1.82    0.80  1.0000
  18  -3  11    2068     236                                                        2664    1.63   -0.80  1.0000
 -18   3 -11    2051     227                                                        2699    1.63    0.80  1.0000
  18  -3  12     799     201                                                         928    0.54    0.21  1.0000
 -18   3 -12     903     193                                                        1044    0.54   -0.21  1.0000
  18  -3  13    2284     357                                                        1972   -0.86    1.20  1.0000
 -18   3 -13    2537     305                                                        2146   -0.86   -1.20  1.0000
  18  -3  14    1033     344                                                        1074    0.19    0.31  1.0000
 -18   3 -14     682     282                                                         701    0.19   -0.31  1.0000
  18  -2   0      31     123                                                         383    3.66   -1.23  1.0000
  18  -2   1    1158     137                                                        1135   -2.36    1.48  1.0000
 -18   2  -1     953     147                                                         890   -2.36   -1.48  1.0000
  18  -2   2    1184     127                                                         964   -0.57   -2.65  1.0000
 -18   2  -2    1089     144                                                         913   -0.57    2.65  1.0000
  18  -2   3    4113     164                                                        4250   -2.42    3.02  1.0000
 -18   2  -3    3794     206                                                        3867   -2.42   -3.02  1.0000
  18  -2   4    1111     176                                                        1267    1.03   -0.37  1.0000
 -18   2  -4    1535     208                                                        1735    1.03    0.37  1.0000
  18  -2   5     235     150                                                         320    0.73    0.13  1.0000
 -18   2  -5     267     148                                                         351    0.73   -0.13  1.0000
  18  -2   6    2983     232                                                        3071   -0.02    0.77  1.0000
 -18   2  -6    3058     221                                                        3134   -0.02   -0.77  1.0000
  18  -2   7     336     173                                                          66   -2.91    3.96  1.0000
 -18   2  -7     505     156                                                         307   -2.91   -3.96  1.0000
  18  -2   8     241     180                                                         392    2.36    1.48  1.0000
 -18   2  -8     121     169                                                         153    2.36   -1.48  1.0000
  18  -2   9     150     192                                                         251   -2.21    0.36  1.0000
 -18   2  -9      59     163                                                          60   -2.21   -0.36  1.0000
  18  -2  10     472     180                                                         302   -2.28    0.64  1.0000
 -18   2 -10     839     171                                                         632   -2.28   -0.64  1.0000
  18  -2  11     585     184                                                         722   -1.00   -0.74  1.0000
 -18   2 -11     793     182                                                         953   -1.00    0.74  1.0000
  18  -2  12      73     195                                                         172   -0.61   -1.18  1.0000
 -18   2 -12      68     196                                                         164   -0.61    1.18  1.0000
  18  -2  13       4     285                                                        -251    0.01    0.54  1.0000
 -18   2 -13     602     266                                                         509    0.01   -0.54  1.0000
  18  -2  14     487     289                                                         705    0.92    1.17  1.0000
 -18   2 -14     617     310                                                         852    0.92   -1.17  1.0000
  18  -1   0      14     124                                                         354    0.37    4.32  1.0000
  18  -1   1    2886     178                                                        3122   -0.74    0.77  1.0000
 -18   1  -1    3156     181                                                        3406   -0.74   -0.77  1.0000
  18  -1   2     854     141                                                        1016   -1.21    0.09  1.0000
 -18   1  -2     753     145                                                         913   -1.21   -0.09  1.0000
  18  -1   3     394     121                                                         525   -2.10   -2.31  1.0000
 -18   1  -3     729     140                                                         922   -2.10    2.31  1.0000
  18  -1   4     730     180                                                         445    0.31   -2.40  1.0000
 -18   1  -4     780     174                                                         466    0.31    2.40  1.0000
  18  -1   5     293     162                                                         367   -1.20    1.24  1.0000
 -18   1  -5     333     161                                                         431   -1.20   -1.24  1.0000
  18  -1   6      46     152                                                          87    0.96    1.42  1.0000
 -18   1  -6      66     152                                                         126    0.96   -1.42  1.0000
  18  -1   7     434     163                                                         300    2.53    0.01  1.0000
 -18   1  -7     649     165                                                         506    2.53   -0.01  1.0000
  18  -1   8      24     181                                                          33   -1.11    0.50  1.0000
 -18   1  -8     344     207                                                         435   -1.11   -0.50  1.0000
  18  -1   9     146     179                                                          93    2.39   -1.09  1.0000
 -18   1  -9     400     187                                                         398    2.39    1.09  1.0000
  18  -1  10     144     180                                                          57    0.97    2.96  1.0000
 -18   1 -10     500     188                                                         575    0.97   -2.96  1.0000
  18  -1  11     575     176                                                         403    0.22    1.25  1.0000
 -18   1 -11      57     195                                                          10    0.22   -1.25  1.0000
  18  -1  12      33     203                                                          79   -0.67   -1.07  1.0000
 -18   1 -12     259     231                                                         381   -0.67    1.07  1.0000
  18  -1  13     122     270                                                         299   -0.74   -1.43  1.0000
 -18   1 -13      20     259                                                         115   -0.74    1.43  1.0000
  18  -1  14     121     316                                                         360    1.57   -1.33  1.0000
 -18   1 -14     229     296                                                         534    1.57    1.33  1.0000
  18   0   0   10663     462                                                       13700    3.56   -0.41  1.0000
  18   0   1    1575     139                                                         914   -2.35   -0.88  1.0000
  18   0   2    3273     211                                                        3908    1.43   -1.10  1.0000
  18   0   3    5215     177                                                        4382   -1.50   -0.79  1.0000
  18   0   4    3881     267                                                        4809    1.79    0.34  1.0000
  18   0   5   10031     338                                                       10050    0.04   -0.39  1.0000
  18   0   6    2627     254                                                        4414    3.92   -0.36  1.0000
  18   0   7    5501     279                                                        4629   -1.56   -0.24  1.0000
  18   0   8     964     242                                                        1443    1.84   -0.63  1.0000
  18   0   9    2870     266                                                        2453   -1.06    0.16  1.0000
  18   0  10    4625     387                                                        5569    1.71   -0.16  1.0000
  18   0  11     981     206                                                        1161    0.73   -0.29  1.0000
  18   0  12     154     217                                                         343    1.61   -0.15  1.0000
  18   0  13    1446     322                                                        1242   -0.69   -0.70  1.0000
  18   0  14     231     580                                                         266    0.25    0.22  1.0000
  19  -9   0     231     131                                                         585    2.33    0.03  1.0000
  19  -9   1    4964     207                                                        5218   -1.34   -3.90  1.0000
 -19   9  -1    5063     210                                                        5453   -1.34    3.90  1.0000
  19  -9   2    5818     220                                                        5222   -0.18    2.08  1.0000
 -19   9  -2    5966     219                                                        5314   -0.18   -2.08  1.0000
  19  -9   3    1685     180                                                        2530   -0.86   -2.58  1.0000
 -19   9  -3    2022     191                                                        2947   -0.86    2.58  1.0000
  19  -9   4    3724     238                                                        4542    1.68   -2.46  1.0000
 -19   9  -4    3485     255                                                        4344    1.68    2.46  1.0000
  19  -9   5    3117     190                                                        3426    0.81    0.39  1.0000
 -19   9  -5    3367     189                                                        3672    0.81   -0.39  1.0000
  19  -9   6     376     118                                                         235   -1.25    2.16  1.0000
 -19   9  -6     289     133                                                         121   -1.25   -2.16  1.0000
  19  -9   7     130     126                                                         140    1.28   -3.30  1.0000
 -19   9  -7     101     134                                                         111    1.28    3.30  1.0000
  19  -9   8      82     116                                                         131   -0.12    1.00  1.0000
 -19   9  -8     174     127                                                         232   -0.12   -1.00  1.0000
  19  -9   9     292     118                                                         274   -1.22   -0.17  1.0000
 -19   9  -9     148     125                                                         133   -1.22    0.17  1.0000
  19  -9  10      78     125                                                         178    0.08   -2.82  1.0000
 -19   9 -10     123     144                                                         328    0.08    2.82  1.0000
  19  -9  11     247     136                                                         327   -1.22    1.52  1.0000
 -19   9 -11     252     146                                                         319   -1.22   -1.52  1.0000
  19  -9  12     532     146                                                         890    0.12   -2.75  1.0000
 -19   9 -12     342     146                                                         645    0.12    2.75  1.0000
  19  -9  13     159     290                                                         621    1.19   -2.93  1.0000
 -19   9 -13     195     209                                                         690    1.19    2.93  1.0000
  19  -9  14     111     636                                                         199    0.45   -1.09  1.0000
 -19   9 -14    1107     678                                                        1380    0.45    1.09  1.0000
  19  -8   0   11516     230                                                        7034    6.00    0.72  1.0000
  19  -8   1    2576     176                                                        2648    3.41    3.43  1.0000
 -19   8  -1    2791     171                                                        3004    3.41   -3.43  1.0000
  19  -8   2   14196     379                                                       14450   -1.69   -2.58  1.0000
 -19   8  -2   15238     335                                                       15370   -1.69    2.58  1.0000
  19  -8   3    3744     197                                                        3100    3.34   -5.29  1.0000
 -19   8  -3    4062     175                                                        3106    3.34    5.29  1.0000
  19  -8   4     970     133                                                         969   -0.88   -2.53  1.0000
 -19   8  -4     836     175                                                         731   -0.88    2.53  1.0000
  19  -8   5     849     137                                                         868    3.34   -4.27  1.0000
 -19   8  -5     764     144                                                         600    3.34    4.27  1.0000
  19  -8   6      69     127                                                          69    0.31   -0.14  1.0000
 -19   8  -6       2     135                                                        -183    0.31    0.14  1.0000
  19  -8   7     349     110                                                         514    1.24    1.07  1.0000
 -19   8  -7     130     148                                                         265    1.24   -1.07  1.0000
  19  -8   8    2902     149                                                        2609    1.42   -1.90  1.0000
 -19   8  -8    3132     203                                                        2755    1.42    1.90  1.0000
  19  -8   9     907     116                                                         992    0.50   -2.01  1.0000
 -19   8  -9     771     157                                                         778    0.50    2.01  1.0000
  19  -8  10    1435     156                                                        1361    0.66   -0.34  1.0000
 -19   8 -10    1497     181                                                        1406    0.66    0.34  1.0000
  19  -8  11     522     121                                                         441    0.43    0.19  1.0000
 -19   8 -11     297     144                                                         238    0.43   -0.19  1.0000
  19  -8  12    1346     192                                                        1545   -0.74   -0.24  1.0000
 -19   8 -12    1640     201                                                        1849   -0.74    0.24  1.0000
  19  -8  13      78     241                                                         420    0.88   -2.97  1.0000
 -19   8 -13      40     202                                                          34    0.88    2.97  1.0000
  19  -8  14     513     344                                                         165    1.91   -1.72  1.0000
 -19   8 -14     100     674                                                         -95    1.91    1.72  1.0000
  19  -7   0    2950     194                                                        3774    1.83   -1.16  1.0000
  19  -7   1   13291     330                                                       15430   -0.55    4.34  1.0000
 -19   7  -1   12332     356                                                       14290   -0.55   -4.34  1.0000
  19  -7   2    2075     165                                                        1571    3.25   -1.20  1.0000
 -19   7  -2    1315     146                                                         894    3.25    1.20  1.0000
  19  -7   3    4735     212                                                        5256    0.78    0.64  1.0000
 -19   7  -3    5071     242                                                        5599    0.78   -0.64  1.0000
  19  -7   4     839     130                                                        1191    0.18    1.44  1.0000
 -19   7  -4     878     167                                                        1234    0.18   -1.44  1.0000
  19  -7   5      50     109                                                         231   -1.11    2.97  1.0000
 -19   7  -5      57     155                                                         123   -1.11   -2.97  1.0000
  19  -7   6     938     130                                                        1164    0.65   -0.71  1.0000
 -19   7  -6     798     172                                                        1014    0.65    0.71  1.0000
  19  -7   7    3351     177                                                        3330   -0.49   -0.20  1.0000
 -19   7  -7    3720     229                                                        3703   -0.49    0.20  1.0000
  19  -7   8      92     111                                                         172    2.93   -2.51  1.0000
 -19   7  -8     108     150                                                          62    2.93    2.51  1.0000
  19  -7   9    1308     119                                                         801    1.27    2.08  1.0000
 -19   7  -9    1395     165                                                         867    1.27   -2.08  1.0000
  19  -7  10    1292     139                                                        1165   -2.26   -1.26  1.0000
 -19   7 -10    1228     171                                                        1126   -2.26    1.26  1.0000
  19  -7  11     904     153                                                        1433    0.18    2.22  1.0000
 -19   7 -11     795     197                                                        1283    0.18   -2.22  1.0000
  19  -7  12     149     156                                                         556    1.24    2.64  1.0000
 -19   7 -12     148     168                                                         549    1.24   -2.64  1.0000
  19  -7  13    1847     306                                                        1958   -1.11    1.22  1.0000
 -19   7 -13    1873     320                                                        1969   -1.11   -1.22  1.0000
  19  -7  14    1333     367                                                        1337   -0.33    0.15  1.0000
 -19   7 -14     937     379                                                         939   -0.33   -0.15  1.0000
  19  -6   0      53     131                                                          33    3.30   -0.27  1.0000
  19  -6   1    1600     156                                                         615   -1.51   -3.61  1.0000
 -19   6  -1    1506     136                                                         555   -1.51    3.61  1.0000
  19  -6   2     259     125                                                         493   -6.31    3.43  1.0000
 -19   6  -2     456     133                                                         650   -6.31   -3.43  1.0000
  19  -6   3    1045     132                                                        1386    0.99   -1.21  1.0000
 -19   6  -3    1254     178                                                        1654    0.99    1.21  1.0000
  19  -6   4    3902     158                                                        3215    1.11    7.34  1.0000
 -19   6  -4    3954     207                                                        3081    1.11   -7.34  1.0000
  19  -6   5    1396     118                                                        1516    0.07    1.82  1.0000
 -19   6  -5    1210     170                                                        1264    0.07   -1.82  1.0000
  19  -6   6    5102     197                                                        4511   -0.88    0.65  1.0000
 -19   6  -6    5672     278                                                        5048   -0.88   -0.65  1.0000
  19  -6   7     214     158                                                         232   -0.23   -1.08  1.0000
 -19   6  -7      19     147                                                         -51   -0.23    1.08  1.0000
  19  -6   8     129     164                                                         549    0.49    3.79  1.0000
 -19   6  -8     111     162                                                         435    0.49   -3.79  1.0000
  19  -6   9     793     193                                                        1000    0.73   -0.83  1.0000
 -19   6  -9     736     184                                                         947    0.73    0.83  1.0000
  19  -6  10      14     166                                                        -188   -0.78    0.55  1.0000
 -19   6 -10      14     144                                                         -72   -0.78   -0.55  1.0000
  19  -6  11     137     203                                                         254    1.00    0.47  1.0000
 -19   6 -11     120     171                                                         223    1.00   -0.47  1.0000
  19  -6  12     117     183                                                         129   -3.54   -0.66  1.0000
 -19   6 -12     203     209                                                         282   -3.54    0.66  1.0000
  19  -6  13      57     300                                                         452   -2.09    2.86  1.0000
 -19   6 -13     106     241                                                         580   -2.09   -2.86  1.0000
  19  -6  14     885     349                                                         983   -0.08    0.74  1.0000
 -19   6 -14     493     309                                                         559   -0.08   -0.74  1.0000
  19  -5   0       6     151                                                          31   -0.79   -0.09  1.0000
  19  -5   1   10556     314                                                       13040   -2.75    2.06  1.0000
 -19   5  -1    9867     335                                                       12350   -2.75   -2.06  1.0000
  19  -5   2     168     121                                                         359   -2.54   -1.16  1.0000
 -19   5  -2     371     156                                                         546   -2.54    1.16  1.0000
  19  -5   3    5474     214                                                        5005    0.59    0.83  1.0000
 -19   5  -3    4899     226                                                        4478    0.59   -0.83  1.0000
  19  -5   4     835     116                                                        1349   -0.37   -2.55  1.0000
 -19   5  -4     599     166                                                        1009   -0.37    2.55  1.0000
  19  -5   5    3507     185                                                        3468    0.49    0.80  1.0000
 -19   5  -5    3862     219                                                        3855    0.49   -0.80  1.0000
  19  -5   6    1634     207                                                        1705   -0.87    0.98  1.0000
 -19   5  -6    1164     211                                                        1259   -0.87   -0.98  1.0000
  19  -5   7     823     200                                                        1635   -2.58    1.74  1.0000
 -19   5  -7    1168     203                                                        2133   -2.58   -1.74  1.0000
  19  -5   8     584     170                                                         595    0.61   -0.54  1.0000
 -19   5  -8     985     175                                                         987    0.61    0.54  1.0000
  19  -5   9      28     172                                                          64   -0.63    0.53  1.0000
 -19   5  -9     441     209                                                         579   -0.63   -0.53  1.0000
  19  -5  10     231     194                                                         310    0.35   -2.06  1.0000
 -19   5 -10     664     195                                                         771    0.35    2.06  1.0000
  19  -5  11     712     208                                                         636    2.14   -1.98  1.0000
 -19   5 -11    1193     183                                                        1075    2.14    1.98  1.0000
  19  -5  12     871     209                                                         899   -0.91   -2.37  1.0000
 -19   5 -12    1384     234                                                        1370   -0.91    2.37  1.0000
  19  -5  13     783     284                                                         894   -0.61    0.23  1.0000
 -19   5 -13    1284     301                                                        1436   -0.61   -0.23  1.0000
  19  -5  14     552     276                                                         569    0.91    0.40  1.0000
 -19   5 -14     754     270                                                         781    0.91   -0.40  1.0000
  19  -4   0    7224     287                                                        8699    2.13   -0.85  1.0000
  19  -4   1     121     124                                                         -29    1.33    2.49  1.0000
 -19   4  -1      71     141                                                           9    1.33   -2.49  1.0000
  19  -4   2    3866     179                                                        3864    0.07    0.58  1.0000
 -19   4  -2    3900     245                                                        3881    0.07   -0.58  1.0000
  19  -4   3     111     117                                                          97   -1.45   -1.85  1.0000
 -19   4  -3     204     134                                                         258   -1.45    1.85  1.0000
  19  -4   4     358     119                                                         147    1.91   -0.91  1.0000
 -19   4  -4     978     168                                                         600    1.91    0.91  1.0000
  19  -4   5     388     164                                                         212   -2.55   -0.60  1.0000
 -19   4  -5     104     183                                                         -20   -2.55    0.60  1.0000
  19  -4   6     124     173                                                          83    0.44   -0.28  1.0000
 -19   4  -6     318     174                                                         250    0.44    0.28  1.0000
  19  -4   7     663     188                                                         511   -0.14    1.04  1.0000
 -19   4  -7     702     170                                                         538   -0.14   -1.04  1.0000
  19  -4   8     111     182                                                         131   -0.67   -0.81  1.0000
 -19   4  -8      13     166                                                           3   -0.67    0.81  1.0000
  19  -4   9     202     206                                                         367   -0.52   -1.34  1.0000
 -19   4  -9      98     165                                                         219   -0.52    1.34  1.0000
  19  -4  10    3316     266                                                        3748   -0.58    3.33  1.0000
 -19   4 -10    3150     245                                                        3508   -0.58   -3.33  1.0000
  19  -4  11     338     190                                                         769    1.14    2.26  1.0000
 -19   4 -11     224     178                                                         572    1.14   -2.26  1.0000
  19  -4  12     846     320                                                         680   -1.08    1.04  1.0000
 -19   4 -12     516     219                                                         371   -1.08   -1.04  1.0000
  19  -4  13    1967     340                                                        2200    0.72    0.14  1.0000
 -19   4 -13    1971     331                                                        2209    0.72   -0.14  1.0000
  19  -4  14     711     292                                                         841    1.13    0.94  1.0000
 -19   4 -14      56     402                                                          68    1.13   -0.94  1.0000
  19  -3   0     354     146                                                         429   -0.36    0.97  1.0000
  19  -3   1    1680     140                                                        1486   -0.74    1.80  1.0000
 -19   3  -1    1785     186                                                        1550   -0.74   -1.80  1.0000
  19  -3   2      57     119                                                         253   -0.70   -2.30  1.0000
 -19   3  -2      15     142                                                         134   -0.70    2.30  1.0000
  19  -3   3    2444     137                                                        2294   -1.29   -3.09  1.0000
 -19   3  -3    2478     184                                                        2405   -1.29    3.09  1.0000
  19  -3   4    2558     254                                                        2925   -0.17   -1.95  1.0000
 -19   3  -4    2868     252                                                        3299   -0.17    1.95  1.0000
  19  -3   5    2123     224                                                        2439   -0.14   -2.86  1.0000
 -19   3  -5    2544     222                                                        2956   -0.14    2.86  1.0000
  19  -3   6     672     183                                                         724   -0.04    1.50  1.0000
 -19   3  -6    1114     200                                                        1155   -0.04   -1.50  1.0000
  19  -3   7    1741     238                                                        1616   -0.57   -0.28  1.0000
 -19   3  -7    2028     270                                                        1903   -0.57    0.28  1.0000
  19  -3   8     945     181                                                         821   -0.10   -1.49  1.0000
 -19   3  -8     488     183                                                         418   -0.10    1.49  1.0000
  19  -3   9     161     174                                                         164   -0.59    2.22  1.0000
 -19   3  -9     353     160                                                         354   -0.59   -2.22  1.0000
  19  -3  10     251     188                                                         651    2.02    1.50  1.0000
 -19   3 -10     272     187                                                         671    2.02   -1.50  1.0000
  19  -3  11     360     178                                                         359    0.49   -0.00  1.0000
 -19   3 -11     232     175                                                         231    0.49    0.00  1.0000
  19  -3  12     101     255                                                         134   -0.82   -0.16  1.0000
 -19   3 -12      33     215                                                          45   -0.82    0.16  1.0000
  19  -3  13      95     290                                                        -209   -1.02   -2.28  1.0000
 -19   3 -13      14     283                                                          42   -1.02    2.28  1.0000
  19  -3  14     255     281                                                         487   -0.03   -1.64  1.0000
 -19   3 -14     252     307                                                         484   -0.03    1.64  1.0000
  19  -2   0    9755     286                                                        8261    2.03   -0.31  1.0000
  19  -2   1    2576     175                                                        2808   -0.36   -0.57  1.0000
 -19   2  -1    2089     195                                                        2299   -0.36    0.57  1.0000
  19  -2   2    4674     205                                                        6013   -2.14   -1.33  1.0000
 -19   2  -2    4236     265                                                        5536   -2.14    1.33  1.0000
  19  -2   3    1331     131                                                        1749   -1.25   -0.65  1.0000
 -19   2  -3    1204     173                                                        1610   -1.25    0.65  1.0000
  19  -2   4    2157     193                                                        1672    3.69    0.88  1.0000
 -19   2  -4    2177     207                                                        1693    3.69   -0.88  1.0000
  19  -2   5    3710     259                                                        4070   -1.30    0.89  1.0000
 -19   2  -5    3176     242                                                        3551   -1.30   -0.89  1.0000
  19  -2   6     415     181                                                         573    1.60   -2.74  1.0000
 -19   2  -6     660     170                                                         839    1.60    2.74  1.0000
  19  -2   7    1294     231                                                        1448   -0.44    0.69  1.0000
 -19   2  -7    1372     233                                                        1546   -0.44   -0.69  1.0000
  19  -2   8     428     195                                                         548   -0.91    0.56  1.0000
 -19   2  -8     936     181                                                        1109   -0.91   -0.56  1.0000
  19  -2   9    1015     192                                                         848    0.59   -0.39  1.0000
 -19   2  -9    1628     197                                                        1416    0.59    0.39  1.0000
  19  -2  10    1139     213                                                        1209   -1.05   -1.62  1.0000
 -19   2 -10    1285     212                                                        1304   -1.05    1.62  1.0000
  19  -2  11     769     190                                                         590    0.01   -1.27  1.0000
 -19   2 -11     900     215                                                         689    0.01    1.27  1.0000
  19  -2  12     495     260                                                         614   -0.30   -1.61  1.0000
 -19   2 -12     460     228                                                         535   -0.30    1.61  1.0000
  19  -2  13     948     296                                                         872    0.21    2.45  1.0000
 -19   2 -13     240     278                                                         186    0.21   -2.45  1.0000
  19  -1   0      11     133                                                          20   -1.69   -0.91  1.0000
  19  -1   1    2653     195                                                        2795    1.34    0.97  1.0000
 -19   1  -1    3050     213                                                        3177    1.34   -0.97  1.0000
  19  -1   2     522     132                                                         548   -0.22   -0.36  1.0000
 -19   1  -2     729     157                                                         764   -0.22    0.36  1.0000
  19  -1   3    2196     139                                                        2023    1.59    1.11  1.0000
 -19   1  -3    2147     159                                                        1962    1.59   -1.11  1.0000
  19  -1   4      64     156                                                         131    1.48    1.06  1.0000
 -19   1  -4     152     160                                                         276    1.48   -1.06  1.0000
  19  -1   5     627     181                                                         705    1.93    0.44  1.0000
 -19   1  -5     800     188                                                         878    1.93   -0.44  1.0000
  19  -1   6     113     182                                                         344   -2.01    0.38  1.0000
 -19   1  -6      26     164                                                         169   -2.01   -0.38  1.0000
  19  -1   7     186     216                                                         425   -1.88    2.06  1.0000
 -19   1  -7     218     244                                                         485   -1.88   -2.06  1.0000
  19  -1   8    1032     208                                                        1147    2.34   -0.66  1.0000
 -19   1  -8     975     194                                                        1108    2.34    0.66  1.0000
  19  -1   9    2339     225                                                        2339   -2.36    0.76  1.0000
 -19   1  -9    2494     253                                                        2485   -2.36   -0.76  1.0000
  19  -1  10    1391     215                                                        1139   -0.52   -0.77  1.0000
 -19   1 -10    1557     203                                                        1292   -0.52    0.77  1.0000
  19  -1  11    1220     240                                                         675   -1.89   -1.42  1.0000
 -19   1 -11     515     224                                                         186   -1.89    1.42  1.0000
  19  -1  12     559     243                                                         632    0.44    0.03  1.0000
 -19   1 -12     107     232                                                         141    0.44   -0.03  1.0000
  19  -1  13     714     338                                                         858    0.29   -0.70  1.0000
 -19   1 -13     734     293                                                         883    0.29    0.70  1.0000
  19   0   0      20     245                                                         368   -3.67    1.62  1.0000
  19   0   1      89     141                                                         165   -0.55    0.68  1.0000
  19   0   2     214     142                                                         422    1.55   -0.63  1.0000
  19   0   3     912     131                                                        1044    0.45    1.23  1.0000
  19   0   4     299     180                                                         452    1.00    0.24  1.0000
  19   0   5    1611     222                                                         997   -2.20   -0.06  1.0000
  19   0   6     912     207                                                         840   -0.36   -1.02  1.0000
  19   0   7     187     190                                                         635    2.97   -0.13  1.0000
  19   0   8      25     193                                                         198    2.37   -0.21  1.0000
  19   0   9       3     167                                                         140    2.75   -0.35  1.0000
  19   0  10     279     193                                                         495   -1.85    2.71  1.0000
  19   0  11      15     222                                                        -102    0.91    0.38  1.0000
  19   0  12      29     255                                                         152   -1.23    1.30  1.0000
  19   0  13      95     401                                                         139    0.52    0.04  1.0000
  20 -10   0   31145     605                                                       20280    8.73    0.98  1.0000
  20 -10   1   19964     388                                                       19370    0.55   -0.10  1.0000
  20 -10   2     378     151                                                         654   -1.52   -0.49  1.0000
  20 -10   3    3468     164                                                        1776    4.28    1.13  1.0000
  20 -10   4     235     144                                                          96    1.46   -0.10  1.0000
  20 -10   5     153     122                                                         168   -0.17    0.12  1.0000
  20 -10   6     431     150                                                         995   -2.80    1.04  1.0000
  20 -10   7      10     128                                                          55   -1.23    0.25  1.0000
  20 -10   8     585     138                                                         423    1.04   -0.53  1.0000
  20 -10   9      89     127                                                          79    0.13    0.14  1.0000
  20 -10  10    1329     162                                                        1618   -0.97   -0.05  1.0000
  20 -10  11    1015     163                                                         913    0.49   -0.53  1.0000
  20 -10  12     431     186                                                         375    0.43   -0.42  1.0000
  20 -10  13    1376     538                                                        1338    0.12    0.35  1.0000
  20  -9   0    4547     226                                                        5351   -1.21   -2.81  1.0000
  20  -9   1   12498     368                                                       13050   -0.89    2.04  1.0000
 -20   9  -1   12037     325                                                       12660   -0.89   -2.04  1.0000
  20  -9   2    2092     183                                                        1780    2.51   -1.98  1.0000
 -20   9  -2    1935     153                                                        1537    2.51    1.98  1.0000
  20  -9   3    5085     213                                                        4498    0.72   -1.15  1.0000
 -20   9  -3    5221     245                                                        4598    0.72    1.15  1.0000
  20  -9   4     771     146                                                        1244   -1.31   -1.42  1.0000
 -20   9  -4     459     158                                                         831   -1.31    1.42  1.0000
  20  -9   5     263     123                                                         223   -1.57   -0.48  1.0000
 -20   9  -5     235     130                                                         185   -1.57    0.48  1.0000
  20  -9   6     304     135                                                         681    1.80   -1.37  1.0000
 -20   9  -6      99     150                                                         328    1.80    1.37  1.0000
  20  -9   7     136     120                                                          57   -1.09    1.60  1.0000
 -20   9  -7     429     171                                                         378   -1.09   -1.60  1.0000
  20  -9   8     106     114                                                          20    1.12   -1.24  1.0000
 -20   9  -8      42     161                                                          -6    1.12    1.24  1.0000
  20  -9   9      86     119                                                         177   -1.01   -1.55  1.0000
 -20   9  -9     288     196                                                         417   -1.01    1.55  1.0000
  20  -9  10     423     125                                                         315    0.63    0.98  1.0000
 -20   9 -10     631     165                                                         523    0.63   -0.98  1.0000
  20  -9  11    1541     167                                                        1470    0.17   -0.96  1.0000
 -20   9 -11    1428     186                                                        1338    0.17    0.96  1.0000
  20  -9  12     813     214                                                         705    0.01    3.48  1.0000
 -20   9 -12    1087     195                                                        1071    0.01   -3.48  1.0000
  20  -9  13     815     341                                                        1060   -0.72    2.65  1.0000
 -20   9 -13    1536     719                                                        1971   -0.72   -2.65  1.0000
  20  -8   0     975     148                                                         918    0.23    1.10  1.0000
  20  -8   1    2813     280                                                        3709    0.51   -3.97  1.0000
 -20   8  -1    2368     194                                                        3096    0.51    3.97  1.0000
  20  -8   2     823     138                                                         660   -1.10    2.34  1.0000
 -20   8  -2     457     138                                                         369   -1.10   -2.34  1.0000
  20  -8   3    2746     191                                                        3729   -2.23    0.45  1.0000
 -20   8  -3    2724     217                                                        3687   -2.23   -0.45  1.0000
  20  -8   4    2889     165                                                        2095    0.82    2.48  1.0000
 -20   8  -4    2458     164                                                        1765    0.82   -2.48  1.0000
  20  -8   5    2160     145                                                        1742    1.24    2.40  1.0000
 -20   8  -5    1950     172                                                        1610    1.24   -2.40  1.0000
  20  -8   6     100     112                                                         209   -0.79    0.86  1.0000
 -20   8  -6     128     156                                                         251   -0.79   -0.86  1.0000
  20  -8   7      51     100                                                          85    2.58   -1.74  1.0000
 -20   8  -7     128     157                                                         252    2.58    1.74  1.0000
  20  -8   8       3     136                                                           2    0.00   -0.10  1.0000
 -20   8  -8       0     148                                                         -52    0.00    0.10  1.0000
  20  -8   9     479     178                                                         646    0.98    2.21  1.0000
 -20   8  -9     515     187                                                         718    0.98   -2.21  1.0000
  20  -8  10     199     152                                                         105    0.38   -1.14  1.0000
 -20   8 -10     283     157                                                         159    0.38    1.14  1.0000
  20  -8  11     503     193                                                         982   -2.03   -1.06  1.0000
 -20   8 -11     298     173                                                         678   -2.03    1.06  1.0000
  20  -8  12     282     179                                                         418   -0.95   -0.23  1.0000
 -20   8 -12      71     171                                                         148   -0.95    0.23  1.0000
  20  -8  13     572     327                                                         432   -0.14    0.80  1.0000
 -20   8 -13     680     280                                                         526   -0.14   -0.80  1.0000
  20  -7   0    7800     272                                                        5959    2.85    0.17  1.0000
  20  -7   1    2659     210                                                        2793   -3.13    1.01  1.0000
 -20   7  -1    2096     172                                                        2291   -3.13   -1.01  1.0000
  20  -7   2    7797     265                                                        8060    0.51   -2.50  1.0000
 -20   7  -2    7562     252                                                        7706    0.51    2.50  1.0000
  20  -7   3    2406     159                                                        1909    1.56    1.25  1.0000
 -20   7  -3    1989     182                                                        1605    1.56   -1.25  1.0000
  20  -7   4    1612     166                                                        1844    1.21   -3.32  1.0000
 -20   7  -4    1617     179                                                        1708    1.21    3.32  1.0000
  20  -7   5    1332     122                                                         963    1.09    0.97  1.0000
 -20   7  -5    1231     170                                                         870    1.09   -0.97  1.0000
  20  -7   6    1369     147                                                        1014    1.40    1.19  1.0000
 -20   7  -6    1627     182                                                        1306    1.40   -1.19  1.0000
  20  -7   7    1478     133                                                        1184    0.86    0.69  1.0000
 -20   7  -7    1899     194                                                        1583    0.86   -0.69  1.0000
  20  -7   8     824     106                                                         835    0.51    0.57  1.0000
 -20   7  -8     743     192                                                         768    0.51   -0.57  1.0000
  20  -7   9    1935     260                                                        1559    0.47   -1.50  1.0000
 -20   7  -9    2635     214                                                        2162    0.47    1.50  1.0000
  20  -7  10     977     244                                                         986    1.46    1.00  1.0000
 -20   7 -10    1125     185                                                        1163    1.46   -1.00  1.0000
  20  -7  11     412     187                                                         444   -0.09    0.27  1.0000
 -20   7 -11     343     162                                                         376   -0.09   -0.27  1.0000
  20  -7  12     298     220                                                         194    0.93   -0.30  1.0000
 -20   7 -12     707     236                                                         532    0.93    0.30  1.0000
  20  -7  13     105     304                                                         247    0.13   -1.93  1.0000
 -20   7 -13     125     343                                                         255    0.13    1.93  1.0000
  20  -7  14    1012     693                                                        1114    1.34   -1.05  1.0000
  20  -6   0   27445     476                                                       25050    1.92   -0.93  1.0000
  20  -6   1      16     126                                                         -51   -0.42    0.92  1.0000
 -20   6  -1     223     157                                                         222   -0.42   -0.92  1.0000
  20  -6   2    3751     200                                                        4032   -0.08    4.67  1.0000
 -20   6  -2    3522     218                                                        3956   -0.08   -4.67  1.0000
  20  -6   3    2042     156                                                        2131   -0.24   -0.07  1.0000
 -20   6  -3    1896     172                                                        1981   -0.24    0.07  1.0000
  20  -6   4     287     110                                                         390    1.35    1.32  1.0000
 -20   6  -4      71     139                                                         158    1.35   -1.32  1.0000
  20  -6   5     234     141                                                         537   -1.99    2.65  1.0000
 -20   6  -5      85     144                                                         323   -1.99   -2.65  1.0000
  20  -6   6     913     113                                                        1363   -1.16   -2.28  1.0000
 -20   6  -6    1317     196                                                        1776   -1.16    2.28  1.0000
  20  -6   7    1429     189                                                        1085    1.24    0.55  1.0000
 -20   6  -7     919     175                                                         662    1.24   -0.55  1.0000
  20  -6   8      19     157                                                          71   -2.29   -0.46  1.0000
 -20   6  -8     187     167                                                         372   -2.29    0.46  1.0000
  20  -6   9      98     170                                                         116    0.35    0.58  1.0000
 -20   6  -9     267     176                                                         310    0.35   -0.58  1.0000
  20  -6  10    2625     289                                                        3187   -1.00    1.70  1.0000
 -20   6 -10    1996     293                                                        2521   -1.00   -1.70  1.0000
  20  -6  11     688     203                                                         761    0.03    2.72  1.0000
 -20   6 -11     356     180                                                         423    0.03   -2.72  1.0000
  20  -6  12     895     265                                                         583    1.67    2.61  1.0000
 -20   6 -12     813     239                                                         558    1.67   -2.61  1.0000
  20  -6  13     852     295                                                         760    0.78   -1.46  1.0000
 -20   6 -13     348     360                                                         256    0.78    1.46  1.0000
  20  -6  14      12     384                                                          15   -0.78    0.01  1.0000
 -20   6 -14       9     654                                                        -185   -0.78   -0.01  1.0000
  20  -5   0      55     152                                                          16    2.67   -1.07  1.0000
  20  -5   1    1823     148                                                        1130   -2.97    1.15  1.0000
 -20   5  -1    2376     162                                                        1625   -2.97   -1.15  1.0000
  20  -5   2     695     145                                                        1244   -1.68   -1.56  1.0000
 -20   5  -2     796     182                                                        1371   -1.68    1.56  1.0000
  20  -5   3     594     160                                                        1261   -2.48   -1.52  1.0000
 -20   5  -3     308     153                                                         807   -2.48    1.52  1.0000
  20  -5   4    1514     120                                                        1406    0.18   -0.36  1.0000
 -20   5  -4    1676     174                                                        1560    0.18    0.36  1.0000
  20  -5   5    1394     185                                                        1544   -0.50   -0.03  1.0000
 -20   5  -5    1979     229                                                        2156   -0.50    0.03  1.0000
  20  -5   6    3466     257                                                        4649   -2.37    0.35  1.0000
 -20   5  -6    3579     286                                                        4776   -2.37   -0.35  1.0000
  20  -5   7    1529     221                                                        1637   -0.61    0.85  1.0000
 -20   5  -7    1732     240                                                        1867   -0.61   -0.85  1.0000
  20  -5   8     789     172                                                         686    0.57    0.42  1.0000
 -20   5  -8     514     177                                                         438    0.57   -0.42  1.0000
  20  -5   9     184     176                                                         275    0.07   -0.98  1.0000
 -20   5  -9     140     161                                                         213    0.07    0.98  1.0000
  20  -5  10      22     185                                                        -115   -0.17   -1.19  1.0000
 -20   5 -10     293     194                                                         311   -0.17    1.19  1.0000
  20  -5  11     119     195                                                          94   -0.34   -0.08  1.0000
 -20   5 -11     213     179                                                         178   -0.34    0.08  1.0000
  20  -5  12     287     236                                                         334   -1.13   -0.96  1.0000
 -20   5 -12     922     251                                                        1022   -1.13    0.96  1.0000
  20  -5  13     123     333                                                         -45   -1.92    2.09  1.0000
 -20   5 -13     535     268                                                         508   -1.92   -2.09  1.0000
  20  -4   0     302     170                                                        1010    3.65   -0.61  1.0000
  20  -4   1    3923     209                                                        4841   -2.17   -0.48  1.0000
 -20   4  -1    4787     246                                                        5739   -2.17    0.48  1.0000
  20  -4   2      38     113                                                         175   -1.99   -0.97  1.0000
 -20   4  -2     265     146                                                         470   -1.99    0.97  1.0000
  20  -4   3     556     131                                                         503    0.72   -0.15  1.0000
 -20   4  -3     590     152                                                         515    0.72    0.15  1.0000
  20  -4   4    2824     168                                                        2460    0.86   -0.32  1.0000
 -20   4  -4    3012     186                                                        2632    0.86    0.32  1.0000
  20  -4   5     131     156                                                          66    0.66    2.72  1.0000
 -20   4  -5     164     165                                                         196    0.66   -2.72  1.0000
  20  -4   6    5289     270                                                        5323   -0.17   -0.63  1.0000
 -20   4  -6    5604     278                                                        5615   -0.17    0.63  1.0000
  20  -4   7    1403     206                                                        1355    0.12    0.55  1.0000
 -20   4  -7    1580     228                                                        1553    0.12   -0.55  1.0000
  20  -4   8    2301     293                                                        2271   -0.53   -2.08  1.0000
 -20   4  -8    3171     235                                                        3078   -0.53    2.08  1.0000
  20  -4   9     433     196                                                         612    0.09   -2.86  1.0000
 -20   4  -9     402     173                                                         488    0.09    2.86  1.0000
  20  -4  10     360     186                                                         576   -1.46    0.33  1.0000
 -20   4 -10     151     172                                                         315   -1.46   -0.33  1.0000
  20  -4  11     100     214                                                         -72    0.38   -2.53  1.0000
 -20   4 -11     387     238                                                         171    0.38    2.53  1.0000
  20  -4  12     246     268                                                         426   -1.32   -0.94  1.0000
 -20   4 -12     280     230                                                         484   -1.32    0.94  1.0000
  20  -4  13      44     267                                                         270   -1.53    2.49  1.0000
 -20   4 -13     156     400                                                         554   -1.53   -2.49  1.0000
  20  -3   0     922     185                                                        1253    1.31    0.33  1.0000
  20  -3   1    4715     195                                                        4558    0.18   -0.41  1.0000
 -20   3  -1    5185     239                                                        5008    0.18    0.41  1.0000
  20  -3   2     441     120                                                         226    0.59    1.54  1.0000
 -20   3  -2      41     142                                                         -57    0.59   -1.54  1.0000
  20  -3   3    2425     139                                                        2055    0.48   -1.84  1.0000
 -20   3  -3    2565     188                                                        2128    0.48    1.84  1.0000
  20  -3   4     467     166                                                         511    0.45   -0.32  1.0000
 -20   3  -4     342     163                                                         377    0.45    0.32  1.0000
  20  -3   5    1560     195                                                        1725    0.43    1.99  1.0000
 -20   3  -5    1549     202                                                        1765    0.43   -1.99  1.0000
  20  -3   6    1217     203                                                        1483    0.77   -1.35  1.0000
 -20   3  -6     455     183                                                         601    0.77    1.35  1.0000
  20  -3   7     837     187                                                         937   -0.29   -0.93  1.0000
 -20   3  -7     973     195                                                        1049   -0.29    0.93  1.0000
  20  -3   8     100     165                                                         181   -0.53    1.12  1.0000
 -20   3  -8     389     169                                                         569   -0.53   -1.12  1.0000
  20  -3   9    1898     228                                                        2002   -0.38    0.27  1.0000
 -20   3  -9    1930     212                                                        2044   -0.38   -0.27  1.0000
  20  -3  10    1377     207                                                        1249    0.11    1.85  1.0000
 -20   3 -10    1458     222                                                        1374    0.11   -1.85  1.0000
  20  -3  11    1407     351                                                        1436   -0.11   -0.03  1.0000
 -20   3 -11    1507     305                                                        1535   -0.11    0.03  1.0000
  20  -3  12     360     300                                                         269    0.82   -0.23  1.0000
 -20   3 -12      26     289                                                           4    0.82    0.23  1.0000
  20  -3  13     540     341                                                         772   -1.13    0.69  1.0000
 -20   3 -13     962     346                                                        1280   -1.13   -0.69  1.0000
  20  -2   0    1192     199                                                         739   -1.99    1.51  1.0000
  20  -2   1    1434     154                                                        1528   -3.79   -0.30  1.0000
 -20   2  -1    1838     187                                                        1954   -3.79    0.30  1.0000
  20  -2   2     213     117                                                         357    4.27   -3.65  1.0000
 -20   2  -2     269     145                                                         315    4.27    3.65  1.0000
  20  -2   3    2218     144                                                        2031    0.80   -0.05  1.0000
 -20   2  -3    2789     194                                                        2584    0.80    0.05  1.0000
  20  -2   4      37     161                                                          10    0.42   -0.73  1.0000
 -20   2  -4     269     155                                                         183    0.42    0.73  1.0000
  20  -2   5    1053     201                                                        1317   -0.97    0.17  1.0000
 -20   2  -5    1222     186                                                        1506   -0.97   -0.17  1.0000
  20  -2   6     708     174                                                         966   -0.47   -1.55  1.0000
 -20   2  -6     511     200                                                         717   -0.47    1.55  1.0000
  20  -2   7    1108     189                                                         832    2.36   -1.39  1.0000
 -20   2  -7    1204     181                                                         895    2.36    1.39  1.0000
  20  -2   8       2     156                                                           2   -0.01   -0.07  1.0000
 -20   2  -8     379     163                                                         383   -0.01    0.07  1.0000
  20  -2   9     198     201                                                          88    1.66    1.21  1.0000
 -20   2  -9     332     188                                                         204    1.66   -1.21  1.0000
  20  -2  10     330     181                                                         371    0.23    4.98  1.0000
 -20   2 -10     358     206                                                         507    0.23   -4.98  1.0000
  20  -2  11       5     295                                                          33   -0.79    1.76  1.0000
 -20   2 -11     172     241                                                         411   -0.79   -1.76  1.0000
  20  -2  12     205     282                                                         184   -0.16    0.92  1.0000
 -20   2 -12     285     276                                                         273   -0.16   -0.92  1.0000
  20  -2  13      28     293                                                        -143   -0.14   -1.35  1.0000
 -20   2 -13     163     267                                                          75   -0.14    1.35  1.0000
  20  -1   0     395     164                                                         141    2.10   -0.39  1.0000
  20  -1   1     857     145                                                         858    0.95    1.20  1.0000
 -20   1  -1    1474     182                                                        1526    0.95   -1.20  1.0000
  20  -1   2    2451     172                                                        2952    1.47    2.13  1.0000
 -20   1  -2    2955     222                                                        3537    1.47   -2.13  1.0000
  20  -1   3     708     114                                                         690   -0.27   -0.24  1.0000
 -20   1  -3     908     133                                                         884   -0.27    0.24  1.0000
  20  -1   4    1691     193                                                        1512    1.47    0.81  1.0000
 -20   1  -4    1321     196                                                        1185    1.47   -0.81  1.0000
  20  -1   5     457     178                                                         788   -1.48   -0.99  1.0000
 -20   1  -5     284     187                                                         562   -1.48    0.99  1.0000
  20  -1   6     724     226                                                         573    1.04    0.48  1.0000
 -20   1  -6     453     224                                                         350    1.04   -0.48  1.0000
  20  -1   7     302     175                                                         261   -0.79    1.15  1.0000
 -20   1  -7     294     192                                                         299   -0.79   -1.15  1.0000
  20  -1   8     952     202                                                         896   -0.69    1.88  1.0000
 -20   1  -8     603     199                                                         590   -0.69   -1.88  1.0000
  20  -1   9     394     195                                                         482   -0.27   -1.36  1.0000
 -20   1  -9     863     210                                                         967   -0.27    1.36  1.0000
  20  -1  10     660     257                                                        1009   -0.29   -2.44  1.0000
 -20   1 -10     340     243                                                         551   -0.29    2.44  1.0000
  20  -1  11     472     258                                                         832   -0.69   -1.85  1.0000
 -20   1 -11     547     262                                                         920   -0.69    1.85  1.0000
  20  -1  12      41     288                                                          87   -0.48   -1.60  1.0000
 -20   1 -12     353     275                                                         496   -0.48    1.60  1.0000
  20   0   0    4368     382                                                        3614    1.55   -0.26  1.0000
  20   0   1     519     148                                                         751   -1.21    0.43  1.0000
  20   0   2    1404     149                                                         936    1.84   -0.53  1.0000
  20   0   3     798     184                                                         981   -0.74   -0.49  1.0000
  20   0   4      33     151                                                          73   -0.83    0.39  1.0000
  20   0   5       6     170                                                          77    1.56   -0.62  1.0000
  20   0   6     152     181                                                         110   -0.44    0.59  1.0000
  20   0   7    1348     202                                                        1042    1.16   -0.21  1.0000
  20   0   8    1126     197                                                        1025    0.40   -0.14  1.0000
  20   0   9     851     272                                                        1075   -0.94    0.23  1.0000
  20   0  10    1619     281                                                        1808   -0.52   -0.92  1.0000
  20   0  11     217     253                                                         488   -1.87   -0.33  1.0000
  20   0  12     487     332                                                         292    1.30    0.78  1.0000
  21 -10   0      55     151                                                         134   -2.20    2.80  1.0000
  21 -10   1    4068     216                                                        4134    1.16   -4.38  1.0000
 -21  10  -1    3633     203                                                        3711    1.16    4.38  1.0000
  21 -10   2     160     135                                                         278    2.11   -0.24  1.0000
 -21  10  -2     180     145                                                         320    2.11    0.24  1.0000
  21 -10   3     111     145                                                         303   -0.66    3.51  1.0000
 -21  10  -3     136     138                                                         347   -0.66   -3.51  1.0000
  21 -10   4     872     148                                                         586   -4.95    1.76  1.0000
 -21  10  -4     460     160                                                          81   -4.95   -1.76  1.0000
  21 -10   5    3532     210                                                        4092   -0.15    2.83  1.0000
 -21  10  -5    3217     207                                                        3735   -0.15   -2.83  1.0000
  21 -10   6     212     136                                                         290   -0.26   -0.68  1.0000
 -21  10  -6      73     167                                                         120   -0.26    0.68  1.0000
  21 -10   7     715     159                                                         590    0.85   -2.35  1.0000
 -21  10  -7     557     164                                                         445    0.85    2.35  1.0000
  21 -10   8       5     128                                                         -37   -0.36    0.43  1.0000
 -21  10  -8     226     178                                                         290   -0.36   -0.43  1.0000
  21 -10   9     124     126                                                          74    1.75    1.17  1.0000
 -21  10  -9     336     165                                                         298    1.75   -1.17  1.0000
  21 -10  10     419     138                                                         344   -1.22   -0.65  1.0000
 -21  10 -10     367     169                                                         300   -1.22    0.65  1.0000
  21 -10  11     961     161                                                         898   -1.71    2.22  1.0000
 -21  10 -11    1169     219                                                        1098   -1.71   -2.22  1.0000
  21 -10  12     202     294                                                         230    0.60   -1.19  1.0000
 -21  10 -12     582     448                                                         658    0.60    1.19  1.0000
  21  -9   0   26370     593                                                       26410    0.05   -0.88  1.0000
  21  -9   1    7724     273                                                        7988   -0.15    2.34  1.0000
 -21   9  -1    7086     256                                                        7167   -0.15   -2.34  1.0000
  21  -9   2   14101     361                                                       12670   -1.44    0.69  1.0000
 -21   9  -2   14449     360                                                       12990   -1.44   -0.69  1.0000
  21  -9   3    2687     196                                                        3452    1.98   -1.98  1.0000
 -21   9  -3    2535     205                                                        3444    1.98    1.98  1.0000
  21  -9   4     799     150                                                        1126    1.33    0.42  1.0000
 -21   9  -4     961     155                                                        1280    1.33   -0.42  1.0000
  21  -9   5    3834     214                                                        4134    0.18    0.75  1.0000
 -21   9  -5    3070     211                                                        3310    0.18   -0.75  1.0000
  21  -9   6    4659     200                                                        3980   -1.95   -2.14  1.0000
 -21   9  -6    4593     291                                                        4097   -1.95    2.14  1.0000
  21  -9   7    3444     190                                                        3692    0.55    0.04  1.0000
 -21   9  -7    3122     230                                                        3366    0.55   -0.04  1.0000
  21  -9   8    3675     183                                                        3875    0.19    0.97  1.0000
 -21   9  -8    3662     238                                                        3810    0.19   -0.97  1.0000
  21  -9   9     908     138                                                         898   -0.11   -0.14  1.0000
 -21   9  -9    1292     190                                                        1289   -0.11    0.14  1.0000
  21  -9  10     879     156                                                         883   -0.48    1.36  1.0000
 -21   9 -10     944     178                                                         884   -0.48   -1.36  1.0000
  21  -9  11     666     201                                                         928    1.21    0.14  1.0000
 -21   9 -11     500     185                                                         735    1.21   -0.14  1.0000
  21  -9  12    1245     383                                                        1644    0.73   -1.89  1.0000
 -21   9 -12     787     409                                                        1155    0.73    1.89  1.0000
  21  -8   0   10878     326                                                       10850   -0.05   -1.13  1.0000
  21  -8   1     333     158                                                         510   -3.10   -1.70  1.0000
 -21   8  -1     536     162                                                         848   -3.10    1.70  1.0000
  21  -8   2    2534     193                                                        1977   -0.57    2.24  1.0000
 -21   8  -2    2504     180                                                        1936   -0.57   -2.24  1.0000
  21  -8   3     107     128                                                          93    1.72   -1.77  1.0000
 -21   8  -3     123     131                                                         131    1.72    1.77  1.0000
  21  -8   4    1289     151                                                        1405   -0.35    0.29  1.0000
 -21   8  -4    1642     171                                                        1771   -0.35   -0.29  1.0000
  21  -8   5    1248     158                                                        1120   -0.10    1.10  1.0000
 -21   8  -5     954     163                                                         836   -0.10   -1.10  1.0000
  21  -8   6     909     156                                                        1442   -1.69    1.11  1.0000
 -21   8  -6    1147     205                                                        1736   -1.69   -1.11  1.0000
  21  -8   7     112     168                                                         123    0.06    0.13  1.0000
 -21   8  -7     208     182                                                         223    0.06   -0.13  1.0000
  21  -8   8     651     124                                                         722   -0.14    0.57  1.0000
 -21   8  -8     609     174                                                         676   -0.14   -0.57  1.0000
  21  -8   9     177     115                                                         367   -0.69   -1.69  1.0000
 -21   8  -9     158     179                                                         344   -0.69    1.69  1.0000
  21  -8  10     442     183                                                         436   -0.06    0.29  1.0000
 -21   8 -10     523     171                                                         515   -0.06   -0.29  1.0000
  21  -8  11     155     192                                                         322    1.40    0.56  1.0000
 -21   8 -11      34     172                                                        -104    1.40   -0.56  1.0000
  21  -8  12      23     317                                                        -103   -1.11    0.54  1.0000
 -21   8 -12    1002     290                                                         721   -1.11   -0.54  1.0000
  21  -8  13    1264     690                                                        1460    0.47   -0.50  1.0000
 -21   8 -13     775     724                                                         930    0.47    0.50  1.0000
  21  -7   0    4458     194                                                        3444   -2.07   -0.18  1.0000
  21  -7   1     237     142                                                         249    2.84    2.05  1.0000
 -21   7  -1     273     138                                                         306    2.84   -2.05  1.0000
  21  -7   2     102     127                                                           4   -2.55   -0.44  1.0000
 -21   7  -2     114     147                                                          21   -2.55    0.44  1.0000
  21  -7   3     547     138                                                         498    0.71   -1.24  1.0000
 -21   7  -3     454     148                                                         409    0.71    1.24  1.0000
  21  -7   4    1658     172                                                        1839   -2.00   -1.33  1.0000
 -21   7  -4    1694     191                                                        1882   -2.00    1.33  1.0000
  21  -7   5    1263     136                                                        1150    0.75    2.39  1.0000
 -21   7  -5    1077     170                                                         964    0.75   -2.39  1.0000
  21  -7   6    1006     134                                                        1056    0.26    0.89  1.0000
 -21   7  -6     892     184                                                         938    0.26   -0.89  1.0000
  21  -7   7     392     169                                                         427    0.86    0.85  1.0000
 -21   7  -7      58     161                                                          56    0.86   -0.85  1.0000
  21  -7   8     157     166                                                         101    1.55   -1.94  1.0000
 -21   7  -8     169     170                                                         117    1.55    1.94  1.0000
  21  -7   9      12     188                                                        -102    0.72    0.55  1.0000
 -21   7  -9     155     165                                                         137    0.72   -0.55  1.0000
  21  -7  10      46     176                                                         144   -0.27   -2.59  1.0000
 -21   7 -10      45     176                                                          24   -0.27    2.59  1.0000
  21  -7  11     682     207                                                         495    1.04   -0.36  1.0000
 -21   7 -11     505     276                                                         345    1.04    0.36  1.0000
  21  -7  12      85     281                                                         163   -2.55   -0.08  1.0000
 -21   7 -12     310     302                                                         536   -2.55    0.08  1.0000
 -21   7 -13     661     690                                                        1330   -1.45   -3.03  1.0000
  21  -6   0      56     135                                                         250    2.46   -0.83  1.0000
  21  -6   1    5939     240                                                        5301   -1.19   -0.79  1.0000
 -21   6  -1    5498     251                                                        4953   -1.19    0.79  1.0000
  21  -6   2    1838     152                                                        1363   -0.82   -1.78  1.0000
 -21   6  -2    1125     153                                                         843   -0.82    1.78  1.0000
  21  -6   3    2104     175                                                        2760    1.70    0.28  1.0000
 -21   6  -3    1756     237                                                        2365    1.70   -0.28  1.0000
  21  -6   4    4666     202                                                        5570    1.37    2.23  1.0000
 -21   6  -4    3888     243                                                        4577    1.37   -2.23  1.0000
  21  -6   5    4511     216                                                        4612    0.04    1.24  1.0000
 -21   6  -5    5319     269                                                        5345    0.04   -1.24  1.0000
  21  -6   6    5176     309                                                        5684    0.46    3.02  1.0000
 -21   6  -6    5087     373                                                        5414    0.46   -3.02  1.0000
  21  -6   7    2583     221                                                        2337   -0.48   -2.74  1.0000
 -21   6  -7    2790     242                                                        2697   -0.48    2.74  1.0000
  21  -6   8    1999     234                                                        1967   -0.39   -1.17  1.0000
 -21   6  -8    2145     218                                                        2176   -0.39    1.17  1.0000
  21  -6   9    3413     317                                                        3862    1.04   -1.04  1.0000
 -21   6  -9    3210     284                                                        3699    1.04    1.04  1.0000
  21  -6  10     499     219                                                         652    0.68    0.84  1.0000
 -21   6 -10     632     182                                                         763    0.68   -0.84  1.0000
  21  -6  11     545     272                                                         647    0.33   -0.83  1.0000
 -21   6 -11    1072     285                                                        1245    0.33    0.83  1.0000
  21  -6  12     685     328                                                         802   -0.52    1.68  1.0000
 -21   6 -12     201     300                                                         202   -0.52   -1.68  1.0000
  21  -6  13     202     356                                                         271   -0.02    1.12  1.0000
 -21   6 -13     342     421                                                         388   -0.02   -1.12  1.0000
  21  -5   0    5077     229                                                        5373   -0.44    1.72  1.0000
  21  -5   1    1945     177                                                        2129    0.71   -1.85  1.0000
 -21   5  -1    1517     175                                                        1699    0.71    1.85  1.0000
  21  -5   2     308     129                                                         670   -0.94    2.71  1.0000
 -21   5  -2     229     157                                                         521   -0.94   -2.71  1.0000
  21  -5   3     680     153                                                         738    0.22   -0.24  1.0000
 -21   5  -3    1032     176                                                        1106    0.22    0.24  1.0000
  21  -5   4     285     136                                                         199   -0.06    0.99  1.0000
 -21   5  -4      15     150                                                         -93   -0.06   -0.99  1.0000
  21  -5   5    1255     180                                                        1202   -0.32    1.66  1.0000
 -21   5  -5    1171     184                                                        1099   -0.32   -1.66  1.0000
  21  -5   6    1195     191                                                         958    0.72   -5.40  1.0000
 -21   5  -6    1028     189                                                         832    0.72    5.40  1.0000
  21  -5   7      68     160                                                          92    0.35   -1.01  1.0000
 -21   5  -7     129     174                                                         180    0.35    1.01  1.0000
  21  -5   8       7     155                                                        -129   -0.66   -0.20  1.0000
 -21   5  -8      99     154                                                          69   -0.66    0.20  1.0000
  21  -5   9     587     201                                                         547   -0.22    0.01  1.0000
 -21   5  -9     372     176                                                         340   -0.22   -0.01  1.0000
  21  -5  10     340     192                                                         220   -0.17    2.02  1.0000
 -21   5 -10      62     192                                                         -18   -0.17   -2.02  1.0000
  21  -5  11     125     246                                                          48    0.34    3.07  1.0000
 -21   5 -11     439     222                                                         490    0.34   -3.07  1.0000
  21  -5  12      63     262                                                         -66    1.81    0.95  1.0000
 -21   5 -12      99     259                                                          67    1.81   -0.95  1.0000
  21  -5  13     467     332                                                         404    0.38    0.21  1.0000
 -21   5 -13       3     323                                                         -39    0.38   -0.21  1.0000
  21  -4   0     127     142                                                         244   -1.08   -1.23  1.0000
  21  -4   1    1526     152                                                        1148   -0.74    1.61  1.0000
 -21   4  -1    1548     182                                                        1171   -0.74   -1.61  1.0000
  21  -4   2     409     130                                                         584    0.72   -3.48  1.0000
 -21   4  -2     175     149                                                         180    0.72    3.48  1.0000
  21  -4   3      17     116                                                        -135    1.05   -0.22  1.0000
 -21   4  -3      17     156                                                         -28    1.05    0.22  1.0000
  21  -4   4     323     127                                                         434    2.44    0.59  1.0000
 -21   4  -4     303     131                                                         415    2.44   -0.59  1.0000
  21  -4   5     351     178                                                         185   -0.27   -1.39  1.0000
 -21   4  -5      41     178                                                           1   -0.27    1.39  1.0000
  21  -4   6     497     181                                                         485    0.10   -0.57  1.0000
 -21   4  -6     349     173                                                         337    0.10    0.57  1.0000
  21  -4   7      76     164                                                          79    1.50   -0.81  1.0000
 -21   4  -7     105     164                                                         111    1.50    0.81  1.0000
  21  -4   8     277     170                                                         364    1.24   -0.30  1.0000
 -21   4  -8      20     166                                                          25    1.24    0.30  1.0000
  21  -4   9     301     204                                                         509    1.23    2.02  1.0000
 -21   4  -9     416     197                                                         668    1.23   -2.02  1.0000
  21  -4  10     668     226                                                         810   -0.61    0.86  1.0000
 -21   4 -10     773     256                                                         928   -0.61   -0.86  1.0000
  21  -4  11     101     248                                                         115    0.31    1.27  1.0000
 -21   4 -11     161     222                                                         189    0.31   -1.27  1.0000
  21  -4  12     140     258                                                         296   -1.52    0.15  1.0000
 -21   4 -12     211     284                                                         395   -1.52   -0.15  1.0000
  21  -3   0    2033     200                                                        2196    0.49   -1.43  1.0000
  21  -3   1    1213     153                                                        1259    0.21   -0.03  1.0000
 -21   3  -1    1275     176                                                        1329    0.21    0.03  1.0000
  21  -3   2    3297     174                                                        3161   -0.65    2.12  1.0000
 -21   3  -2    3454     215                                                        3193   -0.65   -2.12  1.0000
  21  -3   3    1518     143                                                        1901   -0.89    2.13  1.0000
 -21   3  -3    1316     185                                                        1597   -0.89   -2.13  1.0000
  21  -3   4    4484     272                                                        4795    0.57   -0.21  1.0000
 -21   3  -4    4415     302                                                        4730    0.57    0.21  1.0000
  21  -3   5     794     171                                                         546   -0.21   -1.34  1.0000
 -21   3  -5     844     178                                                         608   -0.21    1.34  1.0000
  21  -3   6    2765     260                                                        2582   -0.45    0.02  1.0000
 -21   3  -6    2794     271                                                        2612   -0.45   -0.02  1.0000
  21  -3   7     671     188                                                         861    0.28    4.70  1.0000
 -21   3  -7    1037     184                                                        1087    0.28   -4.70  1.0000
  21  -3   8    2772     269                                                        3896    2.35   -1.32  1.0000
 -21   3  -8    2862     265                                                        4042    2.35    1.32  1.0000
  21  -3   9    1961     254                                                        1799   -2.51   -2.02  1.0000
 -21   3  -9    1446     294                                                        1369   -2.51    2.02  1.0000
  21  -3  10    2074     321                                                        1704   -1.16   -1.19  1.0000
 -21   3 -10    2197     293                                                        1872   -1.16    1.19  1.0000
  21  -3  11     458     280                                                         230   -1.48   -1.95  1.0000
 -21   3 -11     455     236                                                         279   -1.48    1.95  1.0000
  21  -3  12    1598     329                                                        1382   -1.09   -2.13  1.0000
 -21   3 -12    1227     347                                                        1128   -1.09    2.13  1.0000
  21  -2   0    1228     178                                                        1258    0.03    0.72  1.0000
  21  -2   1     156     126                                                         151    1.02    1.18  1.0000
 -21   2  -1     277     155                                                         257    1.02   -1.18  1.0000
  21  -2   2     262     124                                                         168   -0.68   -0.55  1.0000
 -21   2  -2     112     156                                                          53   -0.68    0.55  1.0000
  21  -2   3     694     119                                                         742    0.48   -0.09  1.0000
 -21   2  -3     537     136                                                         584    0.48    0.09  1.0000
  21  -2   4     364     167                                                         151   -2.28   -1.34  1.0000
 -21   2  -4     106     189                                                         -88   -2.28    1.34  1.0000
  21  -2   5     241     179                                                         428    1.67    1.14  1.0000
 -21   2  -5     324     189                                                         521    1.67   -1.14  1.0000
  21  -2   6      90     169                                                          53    3.23    0.78  1.0000
 -21   2  -6     130     182                                                         289    3.23   -0.78  1.0000
  21  -2   7    2385     235                                                        2120   -1.24   -0.34  1.0000
 -21   2  -7    2296     230                                                        2043   -1.24    0.34  1.0000
  21  -2   8     626     194                                                         710   -1.04   -1.03  1.0000
 -21   2  -8     919     204                                                        1031   -1.04    1.03  1.0000
  21  -2   9     195     212                                                         222   -0.99   -0.57  1.0000
 -21   2  -9     222     290                                                         252   -0.99    0.57  1.0000
  21  -2  10     282     248                                                         261   -0.34   -0.10  1.0000
 -21   2 -10     194     230                                                         177   -0.34    0.10  1.0000
  21  -2  11     402     256                                                         446    0.68   -0.16  1.0000
 -21   2 -11       7     255                                                         -49    0.68    0.16  1.0000
  21  -2  12      45     269                                                         211   -1.16   -1.66  1.0000
 -21   2 -12     114     277                                                         345   -1.16    1.66  1.0000
  21  -1   0     572     168                                                         848   -1.34    0.12  1.0000
  21  -1   1     462     135                                                         445   -0.74   -2.39  1.0000
 -21   1  -1     518     153                                                         481   -0.74    2.39  1.0000
  21  -1   2     992     145                                                        1387    1.08   -1.52  1.0000
 -21   1  -2     975     174                                                        1367    1.08    1.52  1.0000
  21  -1   3      65     180                                                         188   -1.70   -0.75  1.0000
 -21   1  -3     272     130                                                         514   -1.70    0.75  1.0000
  21  -1   4      22     169                                                         243   -2.74    0.66  1.0000
 -21   1  -4     121     164                                                        -267   -2.74   -0.66  1.0000
  21  -1   5     110     162                                                          78    0.15    2.32  1.0000
 -21   1  -5      82     159                                                        -101    0.15   -2.32  1.0000
  21  -1   6     111     183                                                         135    0.61   -5.23  1.0000
 -21   1  -6      64     182                                                         281    0.61    5.23  1.0000
  21  -1   7       3     163                                                         -16   -0.13   -0.41  1.0000
 -21   1  -7     245     185                                                         199   -0.13    0.41  1.0000
  21  -1   8     158     176                                                         185   -0.27    0.06  1.0000
 -21   1  -8       1     178                                                         -41   -0.27   -0.06  1.0000
  21  -1   9      10     223                                                           6   -0.45    1.36  1.0000
 -21   1  -9       8     219                                                          69   -0.45   -1.36  1.0000
  21  -1  10     218     282                                                         384   -0.07    1.82  1.0000
 -21   1 -10     163     234                                                         310   -0.07   -1.82  1.0000
  21  -1  11      28     284                                                        -335   -1.16    0.69  1.0000
 -21   1 -11      40     305                                                         126   -1.16   -0.69  1.0000
  21   0   0    4034     293                                                        3090   -2.04   -0.02  1.0000
  21   0   1    1760     184                                                        2015    0.64    1.25  1.0000
  21   0   2    2023     220                                                        2806    2.06   -0.25  1.0000
  21   0   3     975     209                                                        1460    1.81   -0.13  1.0000
  21   0   4     595     179                                                         898    1.40    0.29  1.0000
  21   0   5       5     163                                                         139   -3.38    0.06  1.0000
  21   0   6     261     176                                                         484    1.51    0.08  1.0000
  21   0   7      38     188                                                         -18   -1.56   -0.28  1.0000
  21   0   8     224     242                                                         220   -0.10    0.35  1.0000
  21   0   9    1234     260                                                        1098   -0.49   -0.40  1.0000
  21   0  10     838     438                                                         415   -2.18   -0.65  1.0000
  21   0  11    1893     366                                                        1847   -0.13   -0.11  1.0000
  22 -11   0     680     270                                                        2297   -5.60   -0.35  1.0000
  22 -11   1      33     141                                                          20    0.32    0.07  1.0000
  22 -11   2    1524     182                                                        2305   -2.31    0.06  1.0000
  22 -11   3      39     131                                                          10   -2.31    0.57  1.0000
  22 -11   4     118     157                                                         392    2.17    1.09  1.0000
  22 -11   5    3664     234                                                        4073   -0.84    1.04  1.0000
  22 -11   6    1034     229                                                        1744   -2.38   -0.84  1.0000
  22 -11   7    2716     214                                                        2753   -0.09    0.02  1.0000
  22 -11   8    2209     170                                                        1686    1.54   -0.29  1.0000
  22 -11   9     297     120                                                          72   -2.25   -0.00  1.0000
  22 -11  10       1     154                                                          62    1.76    0.85  1.0000
  22 -11  11     206     243                                                         354    0.72   -1.12  1.0000
  22 -10   0      24     149                                                          50   -0.04   -1.31  1.0000
  22 -10   1    3554     215                                                        3578   -2.42   -1.36  1.0000
 -22  10  -1    3803     221                                                        3861   -2.42    1.36  1.0000
  22 -10   2    1746     163                                                        1656   -1.05    0.09  1.0000
 -22  10  -2     948     169                                                         871   -1.05   -0.09  1.0000
  22 -10   3    3080     237                                                        4483   -0.29   -3.64  1.0000
 -22  10  -3    3234     223                                                        4695   -0.29    3.64  1.0000
  22 -10   4     307     147                                                         345   -2.78   -1.55  1.0000
 -22  10  -4     432     148                                                         520   -2.78    1.55  1.0000
  22 -10   5     653     159                                                         329   -0.56   -2.91  1.0000
 -22  10  -5     376     151                                                         159   -0.56    2.91  1.0000
  22 -10   6     451     144                                                         320   -1.27    2.41  1.0000
 -22  10  -6     329     169                                                         147   -1.27   -2.41  1.0000
  22 -10   7      59     135                                                          81   -0.60   -0.41  1.0000
 -22  10  -7       7     149                                                           9   -0.60    0.41  1.0000
  22 -10   8     414     131                                                         323   -0.63    0.10  1.0000
 -22  10  -8     472     148                                                         371   -0.63   -0.10  1.0000
  22 -10   9     457     123                                                         578    0.35   -2.19  1.0000
 -22  10  -9     609     171                                                         801    0.35    2.19  1.0000
  22 -10  10      30     191                                                         270    1.35   -2.88  1.0000
 -22  10 -10      88     165                                                         453    1.35    2.88  1.0000
  22 -10  11     276     222                                                         190   -0.90   -0.30  1.0000
 -22  10 -11     491     370                                                         370   -0.90    0.30  1.0000
  22  -9   0     462     161                                                         860    0.58    3.34  1.0000
  22  -9   1    1999     190                                                        2285    3.50   -0.14  1.0000
 -22   9  -1    2363     196                                                        2662    3.50    0.14  1.0000
  22  -9   2     829     165                                                         642    1.46   -2.25  1.0000
 -22   9  -2     722     162                                                         582    1.46    2.25  1.0000
  22  -9   3    1669     176                                                        1878    1.52    1.92  1.0000
 -22   9  -3    1558     182                                                        1699    1.52   -1.92  1.0000
  22  -9   4     944     149                                                         870   -2.66   -2.02  1.0000
 -22   9  -4     372     158                                                         291   -2.66    2.02  1.0000
  22  -9   5    4333     242                                                        4530   -0.18    2.57  1.0000
 -22   9  -5    3434     220                                                        3549   -0.18   -2.57  1.0000
  22  -9   6      31     132                                                         102    1.95   -0.18  1.0000
 -22   9  -6      18     147                                                         121    1.95    0.18  1.0000
  22  -9   7     780     119                                                         834   -0.86   -1.78  1.0000
 -22   9  -7     504     182                                                         560   -0.86    1.78  1.0000
  22  -9   8     682     198                                                         970    1.21   -0.46  1.0000
 -22   9  -8     859     185                                                        1181    1.21    0.46  1.0000
  22  -9   9     116     151                                                         261    1.50    1.22  1.0000
 -22   9  -9      53     159                                                         109    1.50   -1.22  1.0000
  22  -9  10     161     172                                                         189   -2.36   -0.94  1.0000
 -22   9 -10     101     162                                                          86   -2.36    0.94  1.0000
  22  -9  11      21     246                                                         -11   -1.10    0.36  1.0000
 -22   9 -11     556     232                                                         532   -1.10   -0.36  1.0000
  22  -8   0     249     140                                                         489    0.57   -2.41  1.0000
  22  -8   1    1447     174                                                        1932   -1.54   -0.60  1.0000
 -22   8  -1    1376     179                                                        1831   -1.54    0.60  1.0000
  22  -8   2     274     151                                                         560    0.61    2.11  1.0000
 -22   8  -2     324     173                                                         638    0.61   -2.11  1.0000
  22  -8   3    1143     152                                                         635    0.25   -2.19  1.0000
 -22   8  -3    1127     174                                                         623    0.25    2.19  1.0000
  22  -8   4    3985     246                                                        5664    1.08    4.32  1.0000
 -22   8  -4    4023     262                                                        5743    1.08   -4.32  1.0000
  22  -8   5     194     136                                                         488   -1.87    1.38  1.0000
 -22   8  -5     301     170                                                         678   -1.87   -1.38  1.0000
  22  -8   6    2737     249                                                        3396   -1.39    1.10  1.0000
 -22   8  -6    2524     225                                                        3177   -1.39   -1.10  1.0000
  22  -8   7     487     133                                                         659   -0.17   -0.96  1.0000
 -22   8  -7     313     181                                                         450   -0.17    0.96  1.0000
  22  -8   8    1818     156                                                        1470    0.50    0.98  1.0000
 -22   8  -8    1706     192                                                        1369    0.50   -0.98  1.0000
  22  -8   9     953     208                                                         955    1.48   -0.79  1.0000
 -22   8  -9    1141     194                                                        1137    1.48    0.79  1.0000
  22  -8  10    1112     204                                                         830    1.06    1.45  1.0000
 -22   8 -10     525     200                                                         336    1.06   -1.45  1.0000
  22  -8  11      86     226                                                         158   -0.91    1.49  1.0000
 -22   8 -11     122     240                                                         242   -0.91   -1.49  1.0000
  22  -8  12     170     620                                                         413    1.53    1.95  1.0000
 -22   8 -12     140     664                                                         358    1.53   -1.95  1.0000
  22  -7   0    6720     283                                                        8367    2.33    1.93  1.0000
  22  -7   1     850     182                                                        1471   -2.83   -0.43  1.0000
 -22   7  -1    1020     174                                                        1663   -2.83    0.43  1.0000
  22  -7   2     439     141                                                         457    1.04    1.99  1.0000
 -22   7  -2     630     148                                                         614    1.04   -1.99  1.0000
  22  -7   3    1601     176                                                        1854   -0.54    0.95  1.0000
 -22   7  -3    1307     182                                                        1531   -0.54   -0.95  1.0000
  22  -7   4    1923     210                                                        2145    0.52    1.75  1.0000
 -22   7  -4    2389     208                                                        2601    0.52   -1.75  1.0000
  22  -7   5     978     175                                                         923    1.19    2.72  1.0000
 -22   7  -5     868     194                                                         764    1.19   -2.72  1.0000
  22  -7   6    1261     142                                                        1641    0.00   -2.47  1.0000
 -22   7  -6    1368     243                                                        1796    0.00    2.47  1.0000
  22  -7   7      93     185                                                         342    2.23   -0.60  1.0000
 -22   7  -7     184     215                                                         510    2.23    0.60  1.0000
  22  -7   8     447     185                                                         507    0.63   -0.19  1.0000
 -22   7  -8     253     177                                                         295    0.63    0.19  1.0000
  22  -7   9     350     188                                                         501    1.19   -0.78  1.0000
 -22   7  -9     217     167                                                         353    1.19    0.78  1.0000
  22  -7  10    1046     221                                                         914   -1.28    2.43  1.0000
 -22   7 -10    1964     282                                                        1772   -1.28   -2.43  1.0000
  22  -7  11      23     228                                                        -201    0.61    1.08  1.0000
 -22   7 -11     160     205                                                         244    0.61   -1.08  1.0000
  22  -7  12      52     602                                                        -316    0.37   -1.82  1.0000
 -22   7 -12     878     675                                                         682    0.37    1.82  1.0000
  22  -6   0     561     152                                                         926   -1.51   -3.67  1.0000
  22  -6   1      43     159                                                          64    0.10    0.39  1.0000
 -22   6  -1     155     140                                                         191    0.10   -0.39  1.0000
  22  -6   2     536     162                                                         607    0.36   -0.19  1.0000
 -22   6  -2    1221     164                                                        1325    0.36    0.19  1.0000
  22  -6   3     179     128                                                         407    0.38   -3.26  1.0000
 -22   6  -3     257     154                                                         608    0.38    3.26  1.0000
  22  -6   4    3016     197                                                        3733    0.45   -2.05  1.0000
 -22   6  -4    2589     246                                                        3275    0.45    2.05  1.0000
  22  -6   5      72     118                                                          62    0.08   -0.36  1.0000
 -22   6  -5       2     165                                                        -200    0.08    0.36  1.0000
  22  -6   6    1954     241                                                        3005    2.48   -1.45  1.0000
 -22   6  -6    2190     262                                                        3314    2.48    1.45  1.0000
  22  -6   7     227     211                                                         542    2.62   -1.24  1.0000
 -22   6  -7     250     202                                                         627    2.62    1.24  1.0000
  22  -6   8     710     200                                                         911    1.16   -1.23  1.0000
 -22   6  -8     670     210                                                         891    1.16    1.23  1.0000
  22  -6   9     106     193                                                         144    0.72   -0.40  1.0000
 -22   6  -9      93     180                                                         137    0.72    0.40  1.0000
  22  -6  10     107     202                                                         195    1.22   -0.92  1.0000
 -22   6 -10     196     213                                                         347    1.22    0.92  1.0000
  22  -6  11     253     233                                                         757    2.43   -1.74  1.0000
 -22   6 -11     210     250                                                         683    2.43    1.74  1.0000
  22  -6  12     323     328                                                         594   -1.67    0.49  1.0000
 -22   6 -12      46     291                                                        -271   -1.67   -0.49  1.0000
  22  -5   0     863     152                                                         330    4.18   -1.64  1.0000
  22  -5   1      21     148                                                         210   -2.73   -1.86  1.0000
 -22   5  -1      58     144                                                          68   -2.73    1.86  1.0000
  22  -5   2    1172     152                                                        1042    0.49    0.16  1.0000
 -22   5  -2    1390     163                                                        1252    0.49   -0.16  1.0000
  22  -5   3      43     141                                                          57    1.84    1.18  1.0000
 -22   5  -3      84     152                                                         144    1.84   -1.18  1.0000
  22  -5   4    2621     186                                                        2602   -0.54   -1.27  1.0000
 -22   5  -4    3086     247                                                        3040   -0.54    1.27  1.0000
  22  -5   5      33     153                                                         137    0.57   -1.86  1.0000
 -22   5  -5      15     164                                                          28    0.57    1.86  1.0000
  22  -5   6     342     187                                                         199    0.99    0.82  1.0000
 -22   5  -6     234     186                                                         129    0.99   -0.82  1.0000
  22  -5   7      14     182                                                         126   -0.50   -1.94  1.0000
 -22   5  -7       7     170                                                          94   -0.50    1.94  1.0000
  22  -5   8     602     209                                                         952   -0.94   -1.76  1.0000
 -22   5  -8     697     198                                                        1050   -0.94    1.76  1.0000
  22  -5   9      55     211                                                         131    0.06   -1.34  1.0000
 -22   5  -9     597     225                                                         820    0.06    1.34  1.0000
  22  -5  10     366     234                                                         452   -0.56    0.44  1.0000
 -22   5 -10     430     233                                                         531   -0.56   -0.44  1.0000
  22  -5  11     147     244                                                         288   -1.85    1.05  1.0000
 -22   5 -11     111     222                                                         266   -1.85   -1.05  1.0000
  22  -5  12     114     300                                                         165    0.23   -1.14  1.0000
 -22   5 -12     119     402                                                         159    0.23    1.14  1.0000
  22  -4   0      11     148                                                         106   -1.14    2.52  1.0000
  22  -4   1    1020     152                                                        1086    0.04    2.78  1.0000
 -22   4  -1    1456     180                                                        1506    0.04   -2.78  1.0000
  22  -4   2     277     134                                                         385    0.80    0.29  1.0000
 -22   4  -2     433     157                                                         557    0.80   -0.29  1.0000
  22  -4   3     321     126                                                         398   -2.65   -0.91  1.0000
 -22   4  -3     215     159                                                         245   -2.65    0.91  1.0000
  22  -4   4     114     161                                                         134   -0.74   -0.39  1.0000
 -22   4  -4     138     163                                                         162   -0.74    0.39  1.0000
  22  -4   5     118     166                                                         360    0.15    2.08  1.0000
 -22   4  -5     183     179                                                         469    0.15   -2.08  1.0000
  22  -4   6     133     190                                                         504    1.36   -2.89  1.0000
 -22   4  -6     322     172                                                         879    1.36    2.89  1.0000
  22  -4   7     830     201                                                         847   -0.31    0.03  1.0000
 -22   4  -7     523     190                                                         537   -0.31   -0.03  1.0000
  22  -4   8     221     182                                                         403   -3.53    2.60  1.0000
 -22   4  -8     357     184                                                         696   -3.53   -2.60  1.0000
  22  -4   9     476     235                                                         376   -0.20   -1.59  1.0000
 -22   4  -9     863     241                                                         768   -0.20    1.59  1.0000
  22  -4  10     356     235                                                         409    0.28    0.21  1.0000
 -22   4 -10     352     248                                                         405    0.28   -0.21  1.0000
  22  -4  11     509     280                                                         545    0.45   -0.92  1.0000
 -22   4 -11     875     285                                                         943    0.45    0.92  1.0000
  22  -3   0     974     166                                                        1434    1.69    0.37  1.0000
  22  -3   1     745     145                                                         871   -3.23   -2.41  1.0000
 -22   3  -1     781     162                                                         933   -3.23    2.41  1.0000
  22  -3   2     492     141                                                         800    1.47   -3.10  1.0000
 -22   3  -2     505     185                                                         887    1.47    3.10  1.0000
  22  -3   3    1245     129                                                        1456    0.45   -0.58  1.0000
 -22   3  -3    1231     187                                                        1441    0.45    0.58  1.0000
  22  -3   4     105     152                                                          88    0.39    4.93  1.0000
 -22   3  -4      36     165                                                         247    0.39   -4.93  1.0000
  22  -3   5     277     170                                                         245   -0.15    1.30  1.0000
 -22   3  -5     199     181                                                         154   -0.15   -1.30  1.0000
  22  -3   6      16     168                                                          32    1.33   -1.20  1.0000
 -22   3  -6      37     165                                                         133    1.33    1.20  1.0000
  22  -3   7     353     184                                                         571    1.35   -0.71  1.0000
 -22   3  -7     605     200                                                         903    1.35    0.71  1.0000
  22  -3   8     183     209                                                         271    0.61    0.47  1.0000
 -22   3  -8     472     217                                                         610    0.61   -0.47  1.0000
  22  -3   9     163     329                                                         286    0.77    0.80  1.0000
 -22   3  -9     166     320                                                         293    0.77   -0.80  1.0000
  22  -3  10      93     241                                                          86   -2.61    1.35  1.0000
 -22   3 -10     206     243                                                         322   -2.61   -1.35  1.0000
  22  -3  11      44     260                                                         -16   -1.44    0.90  1.0000
 -22   3 -11      41     272                                                         169   -1.44   -0.90  1.0000
  22  -2   0     657     160                                                         898   -1.05   -0.72  1.0000
  22  -2   1     368     144                                                         516   -0.06    4.39  1.0000
 -22   2  -1     304     166                                                         501   -0.06   -4.39  1.0000
  22  -2   2     604     141                                                         587    0.05    1.66  1.0000
 -22   2  -2     313     150                                                         317    0.05   -1.66  1.0000
  22  -2   3     976     186                                                        1057   -2.17    5.25  1.0000
 -22   2  -3     750     137                                                         907   -2.17   -5.25  1.0000
  22  -2   4     187     169                                                          16    2.33    0.86  1.0000
 -22   2  -4     740     165                                                         313    2.33   -0.86  1.0000
  22  -2   5      54     170                                                          43   -0.70   -0.84  1.0000
 -22   2  -5     196     172                                                         179   -0.70    0.84  1.0000
  22  -2   6     463     190                                                         882   -0.86    2.04  1.0000
 -22   2  -6     569     197                                                        1034   -0.86   -2.04  1.0000
  22  -2   7      22     177                                                          71    2.17    2.27  1.0000
 -22   2  -7     109     210                                                         453    2.17   -2.27  1.0000
  22  -2   8      44     238                                                          96   -0.76    0.25  1.0000
 -22   2  -8     150     270                                                         236   -0.76   -0.25  1.0000
  22  -2   9     268     260                                                         363   -1.37   -0.85  1.0000
 -22   2  -9     237     237                                                         306   -1.37    0.85  1.0000
  22  -2  10     121     267                                                         187   -0.80   -0.27  1.0000
 -22   2 -10     265     249                                                         354   -0.80    0.27  1.0000
 -22   2 -11     522     708                                                         893   -1.53    1.05  1.0000
  22  -1   0     277     159                                                         499    1.45   -0.73  1.0000
  22  -1   1    1066     153                                                         758   -1.86   -1.27  1.0000
 -22   1  -1    1067     166                                                         785   -1.86    1.27  1.0000
  22  -1   2     432     141                                                         367   -0.91   -0.25  1.0000
 -22   1  -2     371     144                                                         315   -0.91    0.25  1.0000
  22  -1   3       2     166                                                          11    0.17   -1.03  1.0000
 -22   1  -3     303     164                                                         452    0.17    1.03  1.0000
  22  -1   4     640     184                                                         666   -2.40   -0.58  1.0000
 -22   1  -4     731     179                                                         765   -2.40    0.58  1.0000
  22  -1   5      27     180                                                        -209    0.48   -1.25  1.0000
 -22   1  -5     236     184                                                         249    0.48    1.25  1.0000
  22  -1   6      26     165                                                         -91   -0.54   -1.19  1.0000
 -22   1  -6     769     179                                                         513   -0.54    1.19  1.0000
  22  -1   7     736     225                                                         563   -2.07   -1.41  1.0000
 -22   1  -7     956     269                                                         786   -2.07    1.41  1.0000
  22  -1   8     597     300                                                         379   -0.12   -1.36  1.0000
 -22   1  -8     176     278                                                          69   -0.12    1.36  1.0000
  22  -1   9    1159     262                                                         994   -0.74   -0.39  1.0000
 -22   1  -9    1141     285                                                         975   -0.74    0.39  1.0000
  22  -1  10     284     249                                                         430    0.10    1.21  1.0000
 -22   1 -10     278     328                                                         416    0.10   -1.21  1.0000
  22   0   0    1458     298                                                        1763    0.94   -1.03  1.0000
  22   0   1    1845     221                                                        1991    0.43   -0.29  1.0000
  22   0   2      43     137                                                         150    1.48   -0.19  1.0000
  22   0   3     193     176                                                         302    0.90   -0.06  1.0000
  22   0   4     100     178                                                         114    0.19   -0.50  1.0000
  22   0   5     236     190                                                         398   -1.18   -0.18  1.0000
  22   0   6     205     200                                                          78   -3.52   -1.88  1.0000
  22   0   7      32     284                                                         116   -1.32   -0.11  1.0000
  22   0   8      22     238                                                        -257   -1.21   -0.03  1.0000
  22   0   9     175     261                                                         554    2.64    0.06  1.0000
  23 -11   0     228     186                                                         259    0.40    2.32  1.0000
  23 -11   1    2274     205                                                        2269   -0.07    0.45  1.0000
 -23  11  -1    2229     194                                                        2236   -0.07   -0.45  1.0000
  23 -11   2    2840     202                                                        2737    0.52   -3.64  1.0000
 -23  11  -2    3144     201                                                        2948    0.52    3.64  1.0000
  23 -11   3     403     157                                                         307    0.62    0.95  1.0000
 -23  11  -3      20     163                                                        -105    0.62   -0.95  1.0000
  23 -11   4     165     212                                                         170   -3.81   -1.06  1.0000
 -23  11  -4     141     146                                                          51   -3.81    1.06  1.0000
  23 -11   5      50     139                                                         115   -0.54    0.89  1.0000
 -23  11  -5     209     151                                                         342   -0.54   -0.89  1.0000
  23 -11   6     240     149                                                         450   -1.43   -0.60  1.0000
 -23  11  -6     144     164                                                         279   -1.43    0.60  1.0000
  23 -11   7     130     136                                                         113   -0.54   -0.05  1.0000
 -23  11  -7     161     141                                                         137   -0.54    0.05  1.0000
  23 -11   8     998     163                                                         979   -0.34   -1.67  1.0000
 -23  11  -8     967     172                                                         918   -0.34    1.67  1.0000
  23 -11   9     188     155                                                         364    0.16    1.91  1.0000
 -23  11  -9     195     179                                                         387    0.16   -1.91  1.0000
  23 -11  10     427     309                                                        1001   -2.51    1.63  1.0000
 -23  11 -10     580     315                                                        1251   -2.51   -1.63  1.0000
  23 -10   0    1457     179                                                        2135   -1.92   -1.10  1.0000
  23 -10   1     525     152                                                         543   -0.06    1.19  1.0000
 -23  10  -1     669     173                                                         730   -0.06   -1.19  1.0000
  23 -10   2    2364     210                                                        2130    1.31    3.05  1.0000
 -23  10  -2    2766     205                                                        2661    1.31   -3.05  1.0000
  23 -10   3    1297     265                                                        2313   -2.56   -2.15  1.0000
 -23  10  -3     931     203                                                        1833   -2.56    2.15  1.0000
  23 -10   4    2934     241                                                        2819   -0.64    0.83  1.0000
 -23  10  -4    2411     215                                                        2327   -0.64   -0.83  1.0000
  23 -10   5     143     141                                                         196   -0.95    0.77  1.0000
 -23  10  -5     213     149                                                         313   -0.95   -0.77  1.0000
  23 -10   6     606     146                                                         877   -1.39   -1.40  1.0000
 -23  10  -6     589     160                                                         812   -1.39    1.40  1.0000
  23 -10   7     332     132                                                         300    0.18   -0.17  1.0000
 -23  10  -7     649     153                                                         602    0.18    0.17  1.0000
  23 -10   8     617     117                                                         444    1.37   -0.23  1.0000
 -23  10  -8     729     212                                                         552    1.37    0.23  1.0000
  23 -10   9     689     213                                                         488    1.83    0.33  1.0000
 -23  10  -9     312     173                                                         183    1.83   -0.33  1.0000
  23 -10  10     819     263                                                        1123    1.42    2.89  1.0000
 -23  10 -10     485     249                                                         725    1.42   -2.89  1.0000
  23  -9   0    4570     241                                                        4108    0.90    0.96  1.0000
  23  -9   1     374     174                                                         127    0.31   -2.11  1.0000
 -23   9  -1     829     156                                                         424    0.31    2.11  1.0000
  23  -9   2     692     168                                                         658   -0.32   -1.51  1.0000
 -23   9  -2     390     179                                                         318   -0.32    1.51  1.0000
  23  -9   3     782     187                                                        1037   -1.08    0.13  1.0000
 -23   9  -3     696     203                                                         933   -1.08   -0.13  1.0000
  23  -9   4     473     166                                                         552   -0.07    1.11  1.0000
 -23   9  -4     392     170                                                         484   -0.07   -1.11  1.0000
  23  -9   5     154     148                                                         298    2.83    1.40  1.0000
 -23   9  -5     194     164                                                         338    2.83   -1.40  1.0000
  23  -9   6     183     122                                                         319   -1.21    0.60  1.0000
 -23   9  -6     196     150                                                         353   -1.21   -0.60  1.0000
  23  -9   7     716     172                                                         515    3.57    0.41  1.0000
 -23   9  -7     756     168                                                         566    3.57   -0.41  1.0000
  23  -9   8     224     152                                                         255   -0.67    0.50  1.0000
 -23   9  -8     604     174                                                         681   -0.67   -0.50  1.0000
  23  -9   9     429     194                                                         214    1.44    0.74  1.0000
 -23   9  -9     743     194                                                         460    1.44   -0.74  1.0000
  23  -9  10     652     230                                                         427    1.21   -0.62  1.0000
 -23   9 -10    1191     256                                                         870    1.21    0.62  1.0000
  23  -8   0    2698     218                                                        3715   -2.27   -0.91  1.0000
  23  -8   1    1223     175                                                        1171    1.41    0.73  1.0000
 -23   8  -1    1346     179                                                        1317    1.41   -0.73  1.0000
  23  -8   2      39     152                                                         147   -1.57    0.33  1.0000
 -23   8  -2      86     185                                                         241   -1.57   -0.33  1.0000
  23  -8   3    1067     163                                                         966    1.18    1.29  1.0000
 -23   8  -3     834     176                                                         766    1.18   -1.29  1.0000
  23  -8   4      78     139                                                         335   -1.08   -2.99  1.0000
 -23   8  -4     154     170                                                        -158   -1.08    2.99  1.0000
  23  -8   5    1348     147                                                        1340    0.14    0.45  1.0000
 -23   8  -5    1075     222                                                        1076    0.14   -0.45  1.0000
  23  -8   6      80     150                                                         348    3.04   -1.06  1.0000
 -23   8  -6      93     194                                                           9    3.04    1.06  1.0000
  23  -8   7     363     176                                                         234    0.33   -1.18  1.0000
 -23   8  -7     892     196                                                         676    0.33    1.18  1.0000
  23  -8   8     125     201                                                          63    0.85    0.16  1.0000
 -23   8  -8     371     188                                                         254    0.85   -0.16  1.0000
  23  -8   9      20     181                                                         -44    1.02    0.55  1.0000
 -23   8  -9     314     219                                                         220    1.02   -0.55  1.0000
  23  -8  10     135     237                                                         326   -1.47   -0.91  1.0000
 -23   8 -10     277     296                                                         541   -1.47    0.91  1.0000
  23  -8  11     153     552                                                         149    0.74   -0.30  1.0000
 -23   8 -11      10     695                                                        -832    0.74    0.30  1.0000
  23  -7   0      17     188                                                         334    3.36   -1.40  1.0000
  23  -7   1      99     163                                                         437   -2.28   -2.62  1.0000
 -23   7  -1     191     188                                                         528   -2.28    2.62  1.0000
  23  -7   2    1226     172                                                        1210   -0.73    0.00  1.0000
 -23   7  -2    1100     212                                                        1084   -0.73   -0.00  1.0000
  23  -7   3    2545     185                                                        2186    1.81   -0.65  1.0000
 -23   7  -3    2611     199                                                        2206    1.81    0.65  1.0000
  23  -7   4    2960     173                                                        2648    0.41    0.66  1.0000
 -23   7  -4    2439     203                                                        2155    0.41   -0.66  1.0000
  23  -7   5    3912     255                                                        3965   -0.11   -0.01  1.0000
 -23   7  -5    3283     232                                                        3332   -0.11    0.01  1.0000
  23  -7   6     124     188                                                         448   -2.57   -0.89  1.0000
 -23   7  -6     212     209                                                         553   -2.57    0.89  1.0000
  23  -7   7    2498     258                                                        2249   -0.28   -3.01  1.0000
 -23   7  -7    2670     248                                                        2352   -0.28    3.01  1.0000
  23  -7   8     921     218                                                         971   -0.94   -0.37  1.0000
 -23   7  -8     810     219                                                         846   -0.94    0.37  1.0000
  23  -7   9    1094     248                                                        1084   -0.75   -0.72  1.0000
 -23   7  -9    1096     254                                                        1074   -0.75    0.72  1.0000
  23  -7  10      96     215                                                          35    0.53   -0.86  1.0000
 -23   7 -10     382     245                                                         244    0.53    0.86  1.0000
  23  -7  11     333     583                                                        1048   -1.82    3.24  1.0000
 -23   7 -11      65     348                                                         500   -1.82   -3.24  1.0000
  23  -6   0     710     187                                                         371   -3.56    3.71  1.0000
  23  -6   1     228     172                                                          48    1.10    2.70  1.0000
 -23   6  -1     586     158                                                         413    1.10   -2.70  1.0000
  23  -6   2     969     156                                                         790    1.05   -0.70  1.0000
 -23   6  -2    1391     185                                                        1178    1.05    0.70  1.0000
  23  -6   3     616     144                                                         873   -1.92    0.54  1.0000
 -23   6  -3     589     173                                                         885   -1.92   -0.54  1.0000
  23  -6   4    3711     224                                                        4051   -0.09    1.39  1.0000
 -23   6  -4    3374     255                                                        3725   -0.09   -1.39  1.0000
  23  -6   5     438     191                                                         581   -0.66   -0.48  1.0000
 -23   6  -5     431     189                                                         573   -0.66    0.48  1.0000
  23  -6   6    1989     244                                                        2259   -1.15   -2.06  1.0000
 -23   6  -6    2289     224                                                        2520   -1.15    2.06  1.0000
  23  -6   7     523     178                                                         302    0.75    1.50  1.0000
 -23   6  -7     164     169                                                          56    0.75   -1.50  1.0000
  23  -6   8     861     235                                                         997   -0.62   -0.24  1.0000
 -23   6  -8     887     248                                                        1017   -0.62    0.24  1.0000
  23  -6   9     792     231                                                         744    0.71   -2.20  1.0000
 -23   6  -9     570     232                                                         473    0.71    2.20  1.0000
  23  -6  10     367     243                                                         687   -2.12    0.77  1.0000
 -23   6 -10     201     225                                                         468   -2.12   -0.77  1.0000
  23  -6  11      31     520                                                        -511    0.75   -1.21  1.0000
 -23   6 -11     252     293                                                         300    0.75    1.21  1.0000
  23  -5   0      59     169                                                         237    5.43   -1.49  1.0000
  23  -5   1     322     171                                                         666   -1.96   -0.50  1.0000
 -23   5  -1     285     187                                                         606   -1.96    0.50  1.0000
  23  -5   2    2022     185                                                        1603   -0.13   -1.29  1.0000
 -23   5  -2    2086     231                                                        1659   -0.13    1.29  1.0000
  23  -5   3     505     151                                                         649    0.82   -2.22  1.0000
 -23   5  -3     362     174                                                         444    0.82    2.22  1.0000
  23  -5   4    1821     188                                                        1999    1.30    1.73  1.0000
 -23   5  -4    2317     235                                                        2543    1.30   -1.73  1.0000
  23  -5   5      30     189                                                          39    2.07    2.14  1.0000
 -23   5  -5      10     182                                                         141    2.07   -2.14  1.0000
  23  -5   6    1119     196                                                         618    2.77   -1.07  1.0000
 -23   5  -6    1013     177                                                         515    2.77    1.07  1.0000
  23  -5   7      23     179                                                         233    3.62    0.95  1.0000
 -23   5  -7      54     168                                                          83    3.62   -0.95  1.0000
  23  -5   8     289     202                                                         327    1.72   -1.58  1.0000
 -23   5  -8     761     237                                                         858    1.72    1.58  1.0000
  23  -5   9     244     262                                                         128   -1.07    1.58  1.0000
 -23   5  -9     320     238                                                         209   -1.07   -1.58  1.0000
  23  -5  10     232     233                                                         373    1.12   -0.74  1.0000
 -23   5 -10     210     284                                                         350    1.12    0.74  1.0000
  23  -5  11     114     406                                                         147    0.72    0.45  1.0000
 -23   5 -11      56     288                                                          83    0.72   -0.45  1.0000
  23  -4   0       2     143                                                         140   -2.58   -0.71  1.0000
  23  -4   1     826     150                                                         683   -0.52    1.22  1.0000
 -23   4  -1     279     170                                                         201   -0.52   -1.22  1.0000
  23  -4   2     478     156                                                         616   -1.59    1.65  1.0000
 -23   4  -2     314     169                                                         459   -1.59   -1.65  1.0000
  23  -4   3     880     133                                                         655   -1.05    4.39  1.0000
 -23   4  -3     432     183                                                         276   -1.05   -4.39  1.0000
  23  -4   4     341     195                                                         631   -2.12   -0.15  1.0000
 -23   4  -4     107     186                                                         299   -2.12    0.15  1.0000
  23  -4   5    1155     215                                                         989    0.52   -0.95  1.0000
 -23   4  -5    1194     201                                                        1005    0.52    0.95  1.0000
  23  -4   6     599     194                                                         574    1.70   -0.32  1.0000
 -23   4  -6     578     179                                                         547    1.70    0.32  1.0000
  23  -4   7     532     190                                                         471    0.02   -1.25  1.0000
 -23   4  -7     837     222                                                         739    0.02    1.25  1.0000
  23  -4   8     309     222                                                         496   -1.34   -0.25  1.0000
 -23   4  -8     287     265                                                         453   -1.34    0.25  1.0000
  23  -4   9     650     266                                                         781   -0.80   -0.22  1.0000
 -23   4  -9     474     241                                                         575   -0.80    0.22  1.0000
  23  -4  10     206     274                                                         373   -0.68    1.78  1.0000
 -23   4 -10     260     288                                                         476   -0.68   -1.78  1.0000
  23  -3   0     383     142                                                         362    0.12    0.20  1.0000
  23  -3   1     350     152                                                         679   -1.30    1.91  1.0000
 -23   3  -1     331     161                                                         682   -1.30   -1.91  1.0000
  23  -3   2    1811     176                                                        1681    0.39   -0.28  1.0000
 -23   3  -2    1389     231                                                        1269    0.39    0.28  1.0000
  23  -3   3     148     169                                                          18    1.24   -2.27  1.0000
 -23   3  -3     793     129                                                         492    1.24    2.27  1.0000
  23  -3   4     889     201                                                        1289   -1.52   -1.73  1.0000
 -23   3  -4     668     204                                                         968   -1.52    1.73  1.0000
  23  -3   5     281     186                                                         355    0.79    1.65  1.0000
 -23   3  -5      93     196                                                         135    0.79   -1.65  1.0000
  23  -3   6     277     198                                                         266    0.72   -3.79  1.0000
 -23   3  -6     562     223                                                         575    0.72    3.79  1.0000
  23  -3   7     743     226                                                        1238   -2.19   -0.42  1.0000
 -23   3  -7     362     236                                                         740   -2.19    0.42  1.0000
  23  -3   8     459     277                                                         726   -1.09   -1.20  1.0000
 -23   3  -8     843     283                                                        1176   -1.09    1.20  1.0000
  23  -3   9     962     244                                                         916   -0.21    0.61  1.0000
 -23   3  -9     473     241                                                         448   -0.21   -0.61  1.0000
  23  -3  10     217     244                                                         240    1.55   -0.70  1.0000
 -23   3 -10      45     220                                                          16    1.55    0.70  1.0000
  23  -2   0     742     158                                                         896   -0.69    0.23  1.0000
  23  -2   1     315     141                                                         233   -0.71   -1.50  1.0000
 -23   2  -1     173     167                                                          97   -0.71    1.50  1.0000
  23  -2   2     668     150                                                         679    1.23   -2.38  1.0000
 -23   2  -2     775     218                                                         765    1.23    2.38  1.0000
  23  -2   3     214     173                                                         172    0.63   -0.22  1.0000
 -23   2  -3     666     192                                                         595    0.63    0.22  1.0000
  23  -2   4      24     176                                                         201    0.25    2.66  1.0000
 -23   2  -4      76     170                                                         338    0.25   -2.66  1.0000
  23  -2   5     100     197                                                         379   -1.75    1.68  1.0000
 -23   2  -5      18     206                                                         185   -1.75   -1.68  1.0000
  23  -2   6      23     185                                                         -82   -1.22   -0.22  1.0000
 -23   2  -6      47     222                                                         137   -1.22    0.22  1.0000
  23  -2   7      35     243                                                         140   -2.20    0.24  1.0000
 -23   2  -7     139     245                                                         366   -2.20   -0.24  1.0000
  23  -2   8      69     230                                                          -4    0.85    1.95  1.0000
 -23   2  -8     414     232                                                         145    0.85   -1.95  1.0000
  23  -2   9      98     225                                                         244    1.42   -1.14  1.0000
 -23   2  -9      74     236                                                         207    1.42    1.14  1.0000
  23  -1   0     623     166                                                         956   -1.53    0.93  1.0000
  23  -1   1     632     152                                                         501    0.89    1.07  1.0000
 -23   1  -1     319     173                                                         234    0.89   -1.07  1.0000
  23  -1   2     580     212                                                         623   -0.35    0.69  1.0000
 -23   1  -2     565     217                                                         619   -0.35   -0.69  1.0000
  23  -1   3     145     190                                                         348   -1.42    2.33  1.0000
 -23   1  -3     150     175                                                         398   -1.42   -2.33  1.0000
  23  -1   4     137     190                                                         301    0.51   -1.36  1.0000
 -23   1  -4      32     182                                                        -166    0.51    1.36  1.0000
  23  -1   5      21     221                                                          30    0.60   -0.73  1.0000
 -23   1  -5     175     206                                                         215    0.60    0.73  1.0000
  23  -1   6     375     303                                                         496    1.38    1.32  1.0000
 -23   1  -6      55     242                                                        -176    1.38   -1.32  1.0000
  23  -1   7      83     259                                                         298    2.17    1.16  1.0000
 -23   1  -7      40     248                                                         172    2.17   -1.16  1.0000
  23  -1   8      35     232                                                          50    0.92   -0.39  1.0000
 -23   1  -8      55     235                                                          80    0.92    0.39  1.0000
  23  -1   9      75     327                                                         240   -1.75    0.19  1.0000
 -23   1  -9     210     401                                                         448   -1.75   -0.19  1.0000
  23   0   0     727     220                                                         284    5.53   -3.59  1.0000
  23   0   1    1418     193                                                         939    1.87   -0.59  1.0000
  23   0   2     625     200                                                         720   -0.41    1.29  1.0000
  23   0   3     283     198                                                         576   -1.83   -0.18  1.0000
  23   0   4     406     197                                                         400    0.03    0.20  1.0000
  23   0   5       4     245                                                         -46    0.04   -0.48  1.0000
  23   0   6       6     256                                                          27    1.88   -0.28  1.0000
  23   0   7     153     259                                                         256   -0.92   -0.09  1.0000
  23   0   8     133     227                                                         128   -0.11    0.55  1.0000
  24 -12   0     321     244                                                         385    0.51   -0.84  1.0000
  24 -12   1     739     190                                                        1793    3.91   -0.19  1.0000
  24 -12   2     820     165                                                        1080    1.11   -0.26  1.0000
  24 -12   3      72     141                                                          64   -0.14    0.03  1.0000
  24 -12   4    3136     202                                                        2524   -1.51    0.33  1.0000
  24 -12   5    3563     241                                                        3917    0.76   -0.33  1.0000
  24 -12   6    1721     190                                                        1455   -0.84   -0.40  1.0000
  24 -12   7    1626     207                                                        1595   -0.08   -0.40  1.0000
  24 -12   8    1632     252                                                        1176   -1.58    0.00  1.0000
  24 -12   9     271     328                                                         900    3.49   -0.08  1.0000
  24 -11   0      80     142                                                          75   -0.07   -0.36  1.0000
  24 -11   1    1034     162                                                        1084    1.53   -2.55  1.0000
 -24  11  -1     908     177                                                         968    1.53    2.55  1.0000
  24 -11   2     343     146                                                         383   -0.62    1.86  1.0000
 -24  11  -2     409     151                                                         445   -0.62   -1.86  1.0000
  24 -11   3      59     155                                                         240   -3.32   -0.62  1.0000
 -24  11  -3     190     149                                                         577   -3.32    0.62  1.0000
  24 -11   4      30     156                                                          53   -0.16   -0.43  1.0000
 -24  11  -4     206     156                                                         260   -0.16    0.43  1.0000
  24 -11   5     224     140                                                         153    0.67    0.05  1.0000
 -24  11  -5     124     149                                                          73    0.67   -0.05  1.0000
  24 -11   6     119     148                                                          72   -0.17    1.23  1.0000
 -24  11  -6      23     141                                                         -61   -0.17   -1.23  1.0000
  24 -11   7     116     168                                                          97    0.52   -0.44  1.0000
 -24  11  -7     310     189                                                         284    0.52    0.44  1.0000
  24 -11   8      83     228                                                         284    0.38    2.42  1.0000
 -24  11  -8      24     152                                                          38    0.38   -2.42  1.0000
  24 -11   9       8     285                                                         -99    0.69   -0.18  1.0000
 -24  11  -9       8     304                                                         -37    0.69    0.18  1.0000
 -24  11 -10      90     376                                                         173    0.29    1.31  1.0000
  24 -10   0     196     153                                                         118   -0.92    1.15  1.0000
  24 -10   1     585     151                                                         548   -0.37    2.96  1.0000
 -24  10  -1     984     165                                                         968   -0.37   -2.96  1.0000
  24 -10   2     592     157                                                         554   -1.35   -1.03  1.0000
 -24  10  -2     451     169                                                         415   -1.35    1.03  1.0000
  24 -10   3    1578     220                                                        1369    1.06    0.15  1.0000
 -24  10  -3    1382     170                                                        1187    1.06   -0.15  1.0000
  24 -10   4     440     178                                                         714   -1.63   -0.94  1.0000
 -24  10  -4     470     170                                                         751   -1.63    0.94  1.0000
  24 -10   5      23     134                                                         -92    1.17    0.37  1.0000
 -24  10  -5     264     152                                                         135    1.17   -0.37  1.0000
  24 -10   6     318     167                                                         296   -0.18    0.21  1.0000
 -24  10  -6     149     142                                                         134   -0.18   -0.21  1.0000
  24 -10   7     406     189                                                         193    1.31   -0.93  1.0000
 -24  10  -7     466     154                                                         235    1.31    0.93  1.0000
  24 -10   8      36     197                                                         228    2.10    2.36  1.0000
 -24  10  -8     137     179                                                         493    2.10   -2.36  1.0000
  24 -10   9     655     276                                                         700   -1.03    0.40  1.0000
 -24  10  -9     144     203                                                         155   -1.03   -0.40  1.0000
 -24  10 -10     309     394                                                         441   -2.69   -0.72  1.0000
  24  -9   0     362     142                                                         340    0.13   -0.13  1.0000
  24  -9   1      51     138                                                          64   -1.41   -1.72  1.0000
 -24   9  -1     274     151                                                         444   -1.41    1.72  1.0000
  24  -9   2     660     177                                                         901    0.77    2.35  1.0000
 -24   9  -2    1073     172                                                        1266    0.77   -2.35  1.0000
  24  -9   3    1589     184                                                        1528   -1.26   -1.47  1.0000
 -24   9  -3    1764     191                                                        1768   -1.26    1.47  1.0000
  24  -9   4    2923     204                                                        2847   -0.76    1.91  1.0000
 -24   9  -4    3189     216                                                        3024   -0.76   -1.91  1.0000
  24  -9   5    3558     249                                                        3218   -0.88    1.21  1.0000
 -24   9  -5    3502     215                                                        3111   -0.88   -1.21  1.0000
  24  -9   6    2307     224                                                        1854   -1.31   -0.00  1.0000
 -24   9  -6    2324     196                                                        1882   -1.31    0.00  1.0000
  24  -9   7    2457     283                                                        2640    0.51   -1.18  1.0000
 -24   9  -7    2065     256                                                        2271    0.51    1.18  1.0000
  24  -9   8    1091     245                                                        1043   -0.15   -0.88  1.0000
 -24   9  -8     416     208                                                         405   -0.15    0.88  1.0000
  24  -9   9     634     291                                                         704    0.42   -0.08  1.0000
 -24   9  -9     354     251                                                         412    0.42    0.08  1.0000
  24  -9  10     628     472                                                         941    1.06    1.36  1.0000
 -24   9 -10     101     437                                                         200    1.06   -1.36  1.0000
  24  -8   0     121     143                                                         166    1.15    2.28  1.0000
  24  -8   1     291     154                                                         544    0.22    1.63  1.0000
 -24   8  -1      14     148                                                          97    0.22   -1.63  1.0000
  24  -8   2    1305     195                                                        1400    2.45   -0.43  1.0000
 -24   8  -2    1215     172                                                        1301    2.45    0.43  1.0000
  24  -8   3    1137     161                                                        1232   -0.25   -1.44  1.0000
 -24   8  -3    1010     168                                                        1110   -0.25    1.44  1.0000
  24  -8   4     308     142                                                         273    1.06    1.61  1.0000
 -24   8  -4     415     149                                                         371    1.06   -1.61  1.0000
  24  -8   5      46     159                                                          26    0.32    0.95  1.0000
 -24   8  -5      83     144                                                          57    0.32   -0.95  1.0000
  24  -8   6      65     147                                                          37   -0.52    0.49  1.0000
 -24   8  -6      62     176                                                          33   -0.52   -0.49  1.0000
  24  -8   7     710     217                                                         755    0.65    0.97  1.0000
 -24   8  -7      21     206                                                         -88    0.65   -0.97  1.0000
  24  -8   8     242     207                                                         428   -0.41    1.68  1.0000
 -24   8  -8      32     201                                                           2   -0.41   -1.68  1.0000
  24  -8   9      23     262                                                          65    0.95    0.24  1.0000
 -24   8  -9      15     228                                                        -180    0.95   -0.24  1.0000
  24  -8  10      12     389                                                         -18   -0.40    0.80  1.0000
 -24   8 -10      12     425                                                         -87   -0.40   -0.80  1.0000
  24  -7   0      11     163                                                         111    2.87   -1.80  1.0000
  24  -7   1      54     159                                                         111   -1.03    0.97  1.0000
 -24   7  -1      30     146                                                         -32   -1.03   -0.97  1.0000
  24  -7   2     832     170                                                         985   -1.87    0.57  1.0000
 -24   7  -2     518     170                                                         630   -1.87   -0.57  1.0000
  24  -7   3     302     147                                                         280   -0.25    0.16  1.0000
 -24   7  -3     350     147                                                         326   -0.25   -0.16  1.0000
  24  -7   4     246     122                                                         479   -1.58   -0.58  1.0000
 -24   7  -4     506     168                                                         826   -1.58    0.58  1.0000
  24  -7   5     120     153                                                         155   -0.51   -0.63  1.0000
 -24   7  -5     160     144                                                         201   -0.51    0.63  1.0000
  24  -7   6      85     180                                                          96    2.13   -1.13  1.0000
 -24   7  -6     124     166                                                         168    2.13    1.13  1.0000
  24  -7   7     192     193                                                         319    1.06   -0.74  1.0000
 -24   7  -7     428     214                                                         614    1.06    0.74  1.0000
  24  -7   8     174     194                                                         328   -1.57    0.32  1.0000
 -24   7  -8     176     211                                                         331   -1.57   -0.32  1.0000
  24  -7   9      22     282                                                          63    1.38    1.01  1.0000
 -24   7  -9     281     206                                                         469    1.38   -1.01  1.0000
  24  -7  10      45     795                                                        -188    0.66   -1.60  1.0000
 -24   7 -10     541     268                                                         311    0.66    1.60  1.0000
  24  -6   0     517     156                                                         641    0.71   -0.57  1.0000
  24  -6   1     131     160                                                         182   -0.62   -0.91  1.0000
 -24   6  -1     248     159                                                         339   -0.62    0.91  1.0000
  24  -6   2    1369     160                                                        1176   -1.32    0.08  1.0000
 -24   6  -2    1007     166                                                         811   -1.32   -0.08  1.0000
  24  -6   3    1821     179                                                        1660   -0.50   -0.04  1.0000
 -24   6  -3    1494     186                                                        1348   -0.50    0.04  1.0000
  24  -6   4    1241     183                                                        1129   -0.30   -0.61  1.0000
 -24   6  -4     944     175                                                         865   -0.30    0.61  1.0000
  24  -6   5    3089     278                                                        2974   -0.34   -0.45  1.0000
 -24   6  -5    3066     259                                                        2970   -0.34    0.45  1.0000
  24  -6   6     989     204                                                         906    0.18   -3.56  1.0000
 -24   6  -6     509     209                                                         509    0.18    3.56  1.0000
  24  -6   7    2618     263                                                        2315   -1.85   -3.64  1.0000
 -24   6  -7    3085     299                                                        2906   -1.85    3.64  1.0000
  24  -6   8     986     232                                                         882   -0.59   -0.65  1.0000
 -24   6  -8     932     247                                                         854   -0.59    0.65  1.0000
  24  -6   9     519     241                                                         493   -0.60   -1.73  1.0000
 -24   6  -9     544     247                                                         571   -0.60    1.73  1.0000
  24  -6  10     254     405                                                         234   -1.12    1.64  1.0000
 -24   6 -10      60     309                                                         -25   -1.12   -1.64  1.0000
  24  -5   0     447     158                                                         815   -1.80    1.08  1.0000
  24  -5   1      92     154                                                         -99   -0.79    2.33  1.0000
 -24   5  -1     566     157                                                         395   -0.79   -2.33  1.0000
  24  -5   2      87     149                                                         232    0.86   -1.53  1.0000
 -24   5  -2      48     161                                                         168    0.86    1.53  1.0000
  24  -5   3     299     146                                                         360   -0.65    0.52  1.0000
 -24   5  -3     259     165                                                         308   -0.65   -0.52  1.0000
  24  -5   4    1182     220                                                        1259    0.36    1.18  1.0000
 -24   5  -4    1246     207                                                        1315    0.36   -1.18  1.0000
  24  -5   5     341     195                                                         490    0.05   -1.97  1.0000
 -24   5  -5     199     174                                                         314    0.05    1.97  1.0000
  24  -5   6     792     216                                                         894    0.58    0.05  1.0000
 -24   5  -6     945     242                                                        1055    0.58   -0.05  1.0000
  24  -5   7      85     187                                                         159    0.55    0.76  1.0000
 -24   5  -7     322     214                                                         453    0.55   -0.76  1.0000
  24  -5   8     663     248                                                         517   -1.26   -0.42  1.0000
 -24   5  -8     496     232                                                         372   -1.26    0.42  1.0000
  24  -5   9       6     221                                                          -4    0.59   -0.24  1.0000
 -24   5  -9       2     226                                                           2    0.59    0.24  1.0000
  24  -4   0     700     152                                                         514    1.00    0.39  1.0000
  24  -4   1      29     151                                                         -39   -1.30   -0.45  1.0000
 -24   4  -1     145     159                                                         264   -1.30    0.45  1.0000
  24  -4   2      55     146                                                         147   -0.52   -3.79  1.0000
 -24   4  -2      75     178                                                         286   -0.52    3.79  1.0000
  24  -4   3      66     170                                                          71    0.02    0.11  1.0000
 -24   4  -3       0     174                                                         -50    0.02   -0.11  1.0000
  24  -4   4      82     171                                                         513    3.32    1.72  1.0000
 -24   4  -4      13     177                                                         236    3.32   -1.72  1.0000
  24  -4   5      14     208                                                         162    1.38    1.88  1.0000
 -24   4  -5      51     208                                                         263    1.38   -1.88  1.0000
  24  -4   6      14     183                                                          15    0.10    0.55  1.0000
 -24   4  -6     120     213                                                         135    0.10   -0.55  1.0000
  24  -4   7     103     234                                                         132    1.00    2.03  1.0000
 -24   4  -7     257     231                                                         359    1.00   -2.03  1.0000
  24  -4   8     262     234                                                         422    1.21    0.10  1.0000
 -24   4  -8      14     228                                                           1    1.21   -0.10  1.0000
  24  -4   9      96     240                                                         171   -0.71   -0.44  1.0000
 -24   4  -9     142     232                                                         230   -0.71    0.44  1.0000
  24  -3   0     230     188                                                         484    1.76   -0.01  1.0000
  24  -3   1    2109     205                                                        2292   -0.19    1.81  1.0000
 -24   3  -1    2259     210                                                        2393   -0.19   -1.81  1.0000
  24  -3   2    1096     216                                                        1134   -0.68    2.51  1.0000
 -24   3  -2     909     204                                                         841   -0.68   -2.51  1.0000
  24  -3   3     700     194                                                         803   -0.97    3.00  1.0000
 -24   3  -3    1136     208                                                        1209   -0.97   -3.00  1.0000
  24  -3   4     539     200                                                         528    0.33   -0.33  1.0000
 -24   3  -4     295     186                                                         295    0.33    0.33  1.0000
  24  -3   5     854     213                                                        1018    0.69   -1.01  1.0000
 -24   3  -5     390     231                                                         530    0.69    1.01  1.0000
  24  -3   6      47     214                                                         228    2.21    0.08  1.0000
 -24   3  -6     205     227                                                         525    2.21   -0.08  1.0000
  24  -3   7     127     237                                                         365    2.66    1.38  1.0000
 -24   3  -7     166     244                                                         340    2.66   -1.38  1.0000
  24  -3   8     148     240                                                         120   -0.59    0.78  1.0000
 -24   3  -8     286     238                                                         217   -0.59   -0.78  1.0000
  24  -2   0     128     153                                                         411    2.22   -1.98  1.0000
  24  -2   1      86     165                                                         -95    1.59    1.77  1.0000
 -24   2  -1     289     176                                                         558    1.59   -1.77  1.0000
  24  -2   2     490     186                                                         781    0.74   -2.93  1.0000
 -24   2  -2     399     194                                                         686    0.74    2.93  1.0000
  24  -2   3      99     186                                                         140    0.36   -0.44  1.0000
 -24   2  -3     251     184                                                         314    0.36    0.44  1.0000
  24  -2   4     116     199                                                         -69   -2.76   -0.00  1.0000
 -24   2  -4     360     224                                                         125   -2.76    0.00  1.0000
  24  -2   5      10     209                                                        -166    0.48    0.66  1.0000
 -24   2  -5     355     275                                                         382    0.48   -0.66  1.0000
  24  -2   6       8     290                                                         161    2.15   -3.04  1.0000
 -24   2  -6     112     270                                                         604    2.15    3.04  1.0000
  24  -2   7      83     248                                                          23   -1.15   -1.11  1.0000
 -24   2  -7     237     277                                                         158   -1.15    1.11  1.0000
  24  -2   8     134     236                                                         305   -1.03   -1.22  1.0000
 -24   2  -8      70     243                                                         199   -1.03    1.22  1.0000
  24  -1   0       3     208                                                         -35    0.21    0.41  1.0000
  24  -1   1     738     179                                                         677    0.45    0.40  1.0000
 -24   1  -1     409     200                                                         365    0.45   -0.40  1.0000
  24  -1   2     113     169                                                         317    1.84    0.10  1.0000
 -24   1  -2     165     184                                                         402    1.84   -0.10  1.0000
  24  -1   3     159     207                                                         319    4.34   -0.99  1.0000
 -24   1  -3     184     206                                                          43    4.34    0.99  1.0000
  24  -1   4     195     220                                                         308   -0.45    1.17  1.0000
 -24   1  -4      85     219                                                         166   -0.45   -1.17  1.0000
  24  -1   5      48     227                                                         180   -0.55    2.43  1.0000
 -24   1  -5      22     250                                                          60   -0.55   -2.43  1.0000
  24  -1   6      55     239                                                         326   -2.74   -0.22  1.0000
 -24   1  -6      10     251                                                         185   -2.74    0.22  1.0000
  24  -1   7      88     258                                                         -70   -2.26    0.84  1.0000
 -24   1  -7      24     271                                                         199   -2.26   -0.84  1.0000
  24   0   0    2587     427                                                        2856    0.59    1.10  1.0000
  24   0   1     933     237                                                         886   -0.19   -0.30  1.0000
  24   0   2    1077     238                                                         635   -1.95   -0.50  1.0000
  24   0   3    1102     257                                                         730   -1.90    1.07  1.0000
  24   0   4      58     259                                                         323    1.89   -1.94  1.0000
  24   0   5     155     229                                                         440   -2.21   -0.23  1.0000
  24   0   6       0     226                                                           4   -0.41    0.17  1.0000
  25 -12   0     219     153                                                         475    1.57    1.13  1.0000
  25 -12   1     600     164                                                         930   -0.53    1.48  1.0000
 -25  12  -1     681     173                                                        1028   -0.53   -1.48  1.0000
  25 -12   2    1541     170                                                        1107   -0.51   -4.42  1.0000
 -25  12  -2    1202     174                                                         884   -0.51    4.42  1.0000
  25 -12   3     781     177                                                        1006   -3.74    0.78  1.0000
 -25  12  -3     809     180                                                        1066   -3.74   -0.78  1.0000
  25 -12   4     156     154                                                         106   -1.16    0.64  1.0000
 -25  12  -4     210     154                                                         143   -1.16   -0.64  1.0000
  25 -12   5     191     183                                                         455    1.93    0.01  1.0000
 -25  12  -5     229     161                                                         513    1.93   -0.01  1.0000
  25 -12   6     416     184                                                         388   -0.46    1.35  1.0000
 -25  12  -6     472     180                                                         425   -0.46   -1.35  1.0000
  25 -12   7     299     251                                                         608    1.81   -0.53  1.0000
 -25  12  -7     344     302                                                         669    1.81    0.53  1.0000
  25 -12   8     519     322                                                        1052    3.08    0.19  1.0000
 -25  12  -8     180     329                                                         483    3.08   -0.19  1.0000
  25 -12   9     467     309                                                         619   -2.37   -0.60  1.0000
 -25  12  -9     327     365                                                         429   -2.37    0.60  1.0000
  25 -11   0     199     160                                                         347    1.13    0.48  1.0000
  25 -11   1     448     152                                                         491    1.72   -1.13  1.0000
 -25  11  -1     519     174                                                         547    1.72    1.13  1.0000
  25 -11   2     817     178                                                        1035    0.55    1.03  1.0000
 -25  11  -2     739     173                                                         947    0.55   -1.03  1.0000
  25 -11   3    1407     199                                                        1842   -1.16    1.13  1.0000
 -25  11  -3    1332     189                                                        1754   -1.16   -1.13  1.0000
  25 -11   4    1223     214                                                        1428   -0.38    0.99  1.0000
 -25  11  -4     712     192                                                         878   -0.38   -0.99  1.0000
  25 -11   5     843     193                                                         820    0.51    1.55  1.0000
 -25  11  -5     981     171                                                         979    0.51   -1.55  1.0000
  25 -11   6      88     194                                                         138   -0.71   -0.86  1.0000
 -25  11  -6     243     166                                                         315   -0.71    0.86  1.0000
  25 -11   7     455     246                                                         513   -0.87    1.05  1.0000
 -25  11  -7     391     330                                                         462   -0.87   -1.05  1.0000
  25 -11   8     225     303                                                         489   -1.96   -0.95  1.0000
 -25  11  -8      19     401                                                         107   -1.96    0.95  1.0000
  25 -11   9     402     470                                                         285    1.94    0.91  1.0000
 -25  11  -9      70     355                                                        -181    1.94   -0.91  1.0000
  25 -10   0      87     152                                                         -49    2.39    0.12  1.0000
  25 -10   1      40     151                                                          60    0.44   -0.26  1.0000
 -25  10  -1     167     160                                                         206    0.44    0.26  1.0000
  25 -10   2     746     166                                                         674    0.89   -0.65  1.0000
 -25  10  -2     593     158                                                         535    0.89    0.65  1.0000
  25 -10   3     154     177                                                         259    0.81   -0.85  1.0000
 -25  10  -3     450     161                                                         640    0.81    0.85  1.0000
  25 -10   4     292     165                                                         348    0.75   -2.14  1.0000
 -25  10  -4     439     185                                                         571    0.75    2.14  1.0000
  25 -10   5     504     146                                                         509   -0.22    1.30  1.0000
 -25  10  -5     887     176                                                         875   -0.22   -1.30  1.0000
  25 -10   6     298     221                                                         361    0.22    0.46  1.0000
 -25  10  -6     436     198                                                         507    0.22   -0.46  1.0000
  25 -10   7     563     276                                                         418   -0.88    0.31  1.0000
 -25  10  -7     159     310                                                          84   -0.88   -0.31  1.0000
  25 -10   8     290     270                                                         371   -0.99    1.99  1.0000
 -25  10  -8      73     277                                                          44   -0.99   -1.99  1.0000
  25 -10   9     432     654                                                         704    0.80    2.10  1.0000
 -25  10  -9     509     480                                                         770    0.80   -2.10  1.0000
  25  -9   0      17     180                                                          89    1.36   -0.58  1.0000
  25  -9   1     188     170                                                         489   -1.44    4.77  1.0000
 -25   9  -1     229     163                                                         535   -1.44   -4.77  1.0000
  25  -9   2     813     167                                                        1052   -0.66    1.24  1.0000
 -25   9  -2     554     166                                                         748   -0.66   -1.24  1.0000
  25  -9   3     249     162                                                         379   -1.83    2.89  1.0000
 -25   9  -3     183     154                                                         224   -1.83   -2.89  1.0000
  25  -9   4     814     177                                                         648   -1.10   -0.42  1.0000
 -25   9  -4     762     176                                                         596   -1.10    0.42  1.0000
  25  -9   5     504     250                                                         427   -0.97   -2.05  1.0000
 -25   9  -5     900     192                                                         864   -0.97    2.05  1.0000
  25  -9   6     348     212                                                         297   -0.87   -0.21  1.0000
 -25   9  -6      85     213                                                          55   -0.87    0.21  1.0000
  25  -9   7     186     212                                                         282    0.91    0.07  1.0000
 -25   9  -7     292     237                                                         406    0.91   -0.07  1.0000
  25  -9   8     355     256                                                         351    0.55    1.77  1.0000
 -25   9  -8     503     260                                                         471    0.55   -1.77  1.0000
  25  -9   9     535     738                                                         678    1.04   -0.04  1.0000
 -25   9  -9     329     381                                                         434    1.04    0.04  1.0000
  25  -8   0     338     169                                                         403   -0.37    0.85  1.0000
  25  -8   1    1350     174                                                        1203    2.37   -1.56  1.0000
 -25   8  -1    1271     197                                                        1111    2.37    1.56  1.0000
  25  -8   2     402     177                                                         607   -1.76   -0.18  1.0000
 -25   8  -2     260     164                                                         409   -1.76    0.18  1.0000
  25  -8   3    1784     190                                                        1389   -0.38   -1.43  1.0000
 -25   8  -3    2097     189                                                        1665   -0.38    1.43  1.0000
  25  -8   4     709     194                                                         822   -0.87    0.14  1.0000
 -25   8  -4     489     185                                                         579   -0.87   -0.14  1.0000
  25  -8   5     656     232                                                         755    0.58    1.12  1.0000
 -25   8  -5     866     194                                                         991    0.58   -1.12  1.0000
  25  -8   6      96     207                                                          22    0.51   -2.90  1.0000
 -25   8  -6     164     198                                                         176    0.51    2.90  1.0000
  25  -8   7     914     251                                                         887    0.70   -0.78  1.0000
 -25   8  -7     864     269                                                         826    0.70    0.78  1.0000
  25  -8   8      45     242                                                         225    0.44   -2.27  1.0000
 -25   8  -8     369     356                                                         772    0.44    2.27  1.0000
  25  -8   9     208     408                                                         305   -0.99   -0.57  1.0000
 -25   8  -9     978     477                                                        1194   -0.99    0.57  1.0000
  25  -7   0      14     161                                                        -116    0.67    0.70  1.0000
  25  -7   1     266     157                                                         349   -4.20    2.47  1.0000
 -25   7  -1     472     183                                                         783   -4.20   -2.47  1.0000
  25  -7   2      17     157                                                          96    2.40   -1.65  1.0000
 -25   7  -2     129     166                                                         -69    2.40    1.65  1.0000
  25  -7   3     489     189                                                         598   -1.09    1.31  1.0000
 -25   7  -3     853     193                                                         995   -1.09   -1.31  1.0000
  25  -7   4     731     336                                                         778    0.33    1.26  1.0000
 -25   7  -4     234     182                                                         230    0.33   -1.26  1.0000
  25  -7   5     470     224                                                         615    1.01   -0.25  1.0000
 -25   7  -5     525     210                                                         689    1.01    0.25  1.0000
  25  -7   6     483     221                                                         744   -0.40    2.31  1.0000
 -25   7  -6     105     202                                                         181   -0.40   -2.31  1.0000
  25  -7   7     294     214                                                         491    1.33   -0.25  1.0000
 -25   7  -7     145     254                                                         294    1.33    0.25  1.0000
  25  -7   8      57     262                                                          31   -0.72    0.20  1.0000
 -25   7  -8     636     300                                                         547   -0.72   -0.20  1.0000
  25  -7   9      79     390                                                          91   -0.30    0.83  1.0000
 -25   7  -9     622     336                                                         653   -0.30   -0.83  1.0000
  25  -6   0     311     153                                                         593    1.71   -0.69  1.0000
  25  -6   1     372     170                                                         365   -0.35    1.18  1.0000
 -25   6  -1     842     182                                                         815   -0.35   -1.18  1.0000
  25  -6   2     521     194                                                         439   -1.77   -0.66  1.0000
 -25   6  -2    1065     170                                                         983   -1.77    0.66  1.0000
  25  -6   3     217     218                                                         648    2.66   -1.52  1.0000
 -25   6  -3      22     178                                                         237    2.66    1.52  1.0000
  25  -6   4     296     251                                                         498    1.25   -0.51  1.0000
 -25   6  -4     707     244                                                        1001    1.25    0.51  1.0000
  25  -6   5     288     212                                                         512    0.26    1.69  1.0000
 -25   6  -5      14     199                                                          24    0.26   -1.69  1.0000
  25  -6   6     167     193                                                         422    1.19   -1.62  1.0000
 -25   6  -6     142     213                                                         376    1.19    1.62  1.0000
  25  -6   7     378     261                                                         646    0.73    1.35  1.0000
 -25   6  -7      41     323                                                         151    0.73   -1.35  1.0000
  25  -6   8     280     259                                                         400   -1.58    1.67  1.0000
 -25   6  -8     331     267                                                         460   -1.58   -1.67  1.0000
  25  -5   0       7     159                                                         102    1.69    1.05  1.0000
  25  -5   1     194     184                                                         166    0.12    1.07  1.0000
 -25   5  -1     251     160                                                         241    0.12   -1.07  1.0000
  25  -5   2      69     210                                                         -57    2.11    0.29  1.0000
 -25   5  -2      23     161                                                          40    2.11   -0.29  1.0000
  25  -5   3     355     201                                                         346    0.35    1.11  1.0000
 -25   5  -3     587     192                                                         597    0.35   -1.11  1.0000
  25  -5   4      11     222                                                          61   -2.13   -0.47  1.0000
 -25   5  -4      49     194                                                         166   -2.13    0.47  1.0000
  25  -5   5     161     196                                                         158    0.02   -0.12  1.0000
 -25   5  -5     200     215                                                         195    0.02    0.12  1.0000
  25  -5   6     227     210                                                         426    0.30   -2.58  1.0000
 -25   5  -6     259     232                                                         451    0.30    2.58  1.0000
  25  -5   7     228     263                                                         271   -0.43    0.02  1.0000
 -25   5  -7     332     321                                                         381   -0.43   -0.02  1.0000
  25  -5   8      53     241                                                         161   -1.40    0.60  1.0000
 -25   5  -8     205     259                                                         402   -1.40   -0.60  1.0000
  25  -4   0      87     156                                                         227    1.49   -0.84  1.0000
  25  -4   1     132     229                                                         352    1.83    2.88  1.0000
 -25   4  -1     148     165                                                         332    1.83   -2.88  1.0000
  25  -4   2     236     196                                                         590   -0.45   -3.32  1.0000
 -25   4  -2      95     192                                                         319   -0.45    3.32  1.0000
  25  -4   3     294     209                                                         259   -0.18    0.20  1.0000
 -25   4  -3     476     205                                                         432   -0.18   -0.20  1.0000
  25  -4   4     352     206                                                         411   -1.23    0.28  1.0000
 -25   4  -4      63     209                                                          77   -1.23   -0.28  1.0000
  25  -4   5     277     193                                                         512    1.37   -0.85  1.0000
 -25   4  -5     235     233                                                         461    1.37    0.85  1.0000
  25  -4   6     108     238                                                         335    2.79    0.23  1.0000
 -25   4  -6     105     245                                                         352    2.79   -0.23  1.0000
  25  -4   7      16     294                                                           8   -0.15   -0.29  1.0000
 -25   4  -7     306     329                                                         272   -0.15    0.29  1.0000
  25  -3   0    1501     239                                                        1243   -1.03    0.89  1.0000
  25  -3   1     386     226                                                         446    0.48   -0.12  1.0000
 -25   3  -1     673     221                                                         749    0.48    0.12  1.0000
  25  -3   2     494     213                                                         456   -0.99   -1.15  1.0000
 -25   3  -2     465     196                                                         442   -0.99    1.15  1.0000
  25  -3   3     477     201                                                         562    0.92    0.02  1.0000
 -25   3  -3     408     226                                                         480    0.92   -0.02  1.0000
  25  -3   4     291     229                                                         428    2.24    1.09  1.0000
 -25   3  -4     195     266                                                         264    2.24   -1.09  1.0000
  25  -3   5      48     253                                                         141    0.69    2.44  1.0000
 -25   3  -5      98     270                                                         -60    0.69   -2.44  1.0000
  25  -3   6     144     260                                                         332   -2.06    0.54  1.0000
 -25   3  -6      22     254                                                          21   -2.06   -0.54  1.0000
  25  -2   0      43     248                                                         -39    1.69    0.08  1.0000
  25  -2   1     268     222                                                         445   -1.24    0.55  1.0000
 -25   2  -1       6     259                                                          45   -1.24   -0.55  1.0000
  25  -2   2     161     192                                                         292   -1.07   -0.42  1.0000
 -25   2  -2       3     209                                                          38   -1.07    0.42  1.0000
  25  -2   3     219     211                                                         489   -1.30    1.40  1.0000
 -25   2  -3     511     245                                                         900   -1.30   -1.40  1.0000
  25  -2   4      65     260                                                         216    2.66   -1.46  1.0000
 -25   2  -4      78     264                                                         279    2.66    1.46  1.0000
  25  -2   5     319     266                                                         659   -1.45   -1.39  1.0000
 -25   2  -5      61     268                                                         -37   -1.45    1.39  1.0000
  25  -2   6       8     399                                                        -142   -0.37    0.61  1.0000
 -25   2  -6     464     727                                                         591   -0.37   -0.61  1.0000
  25  -1   0      34     282                                                         205   -0.27   -2.28  1.0000
  25  -1   1     229     281                                                         496    1.95   -0.10  1.0000
 -25   1  -1     548     395                                                         944    1.95    0.10  1.0000
  25  -1   2     389     365                                                         449   -0.28    0.68  1.0000
 -25   1  -2       8     369                                                        -357   -0.28   -0.68  1.0000
  25  -1   3     156     244                                                         182    0.44   -0.01  1.0000
 -25   1  -3     327     241                                                         367    0.44    0.01  1.0000
  25  -1   4     362     267                                                         503   -1.41    0.55  1.0000
 -25   1  -4      35     277                                                        -255   -1.41   -0.55  1.0000
  25   0   1     723     533                                                         684   -0.20    0.20  1.0000
  25   0   2      68     474                                                        -324    2.02   -0.62  1.0000
  26 -13   0     394     230                                                         240    1.19   -0.32  1.0000
  26 -13   1    1048     171                                                         794    1.11   -0.40  1.0000
  26 -13   2      24     163                                                         -49   -1.22   -0.29  1.0000
  26 -13   3     355     174                                                         202    1.26   -0.38  1.0000
  26 -13   4     465     188                                                         412    0.75   -1.52  1.0000
  26 -13   5     226     213                                                         322   -0.55   -0.87  1.0000
  26 -13   6     231     335                                                         261   -0.25    0.59  1.0000
  26 -13   7     181     296                                                         679   -3.25    0.31  1.0000
  26 -13   8     295     308                                                         711   -2.45    0.08  1.0000
  26 -12   0      53     153                                                         100   -0.47   -0.57  1.0000
  26 -12   1     151     168                                                         160    1.56   -0.02  1.0000
 -26  12  -1      37     164                                                         -78    1.56    0.02  1.0000
  26 -12   2    1116     199                                                         829    0.70    1.02  1.0000
 -26  12  -2     723     175                                                         501    0.70   -1.02  1.0000
  26 -12   3      71     164                                                          14   -1.27   -2.00  1.0000
 -26  12  -3     638     210                                                         684   -1.27    2.00  1.0000
  26 -12   4     608     218                                                        1193   -1.81   -3.42  1.0000
 -26  12  -4     407     217                                                         801   -1.81    3.42  1.0000
  26 -12   5     410     228                                                         679    1.75   -2.26  1.0000
 -26  12  -5     405     196                                                         659    1.75    2.26  1.0000
  26 -12   6      84     247                                                          57   -0.35   -1.96  1.0000
 -26  12  -6     551     332                                                         520   -0.35    1.96  1.0000
  26 -12   7     207     302                                                         338    2.14   -1.86  1.0000
 -26  12  -7     248     312                                                         398    2.14    1.86  1.0000
  26 -12   8     148     428                                                         222   -1.05   -0.62  1.0000
 -26  12  -8     272     321                                                         358   -1.05    0.62  1.0000
  26 -11   0     274     163                                                         -72    4.24   -0.20  1.0000
  26 -11   1      71     178                                                          18    0.49    3.09  1.0000
 -26  11  -1      33     168                                                         243    0.49   -3.09  1.0000
  26 -11   2    1041     178                                                        1065   -0.11   -0.01  1.0000
 -26  11  -2     844     175                                                         866   -0.11    0.01  1.0000
  26 -11   3     119     186                                                         307   -2.83   -0.43  1.0000
 -26  11  -3      75     186                                                         122   -2.83    0.43  1.0000
  26 -11   4     408     213                                                         476   -0.22    1.29  1.0000
 -26  11  -4     335     221                                                         428   -0.22   -1.29  1.0000
  26 -11   5     712     304                                                        1104    0.39   -2.83  1.0000
 -26  11  -5     102     197                                                         157    0.39    2.83  1.0000
  26 -11   6       4     322                                                         -95   -0.48   -0.13  1.0000
 -26  11  -6      61     329                                                          92   -0.48    0.13  1.0000
  26 -11   7     120     403                                                         216    1.32   -0.29  1.0000
 -26  11  -7      28     299                                                         -55    1.32    0.29  1.0000
  26 -11   8     402     367                                                         562    2.40    1.84  1.0000
 -26  11  -8     174     347                                                         228    2.40   -1.84  1.0000
  26 -10   0     289     170                                                         540   -0.26    2.86  1.0000
  26 -10   1    1951     221                                                        2462    2.67   -2.13  1.0000
 -26  10  -1    1647     210                                                        2096    2.67    2.13  1.0000
  26 -10   2     517     167                                                         519   -1.95    1.63  1.0000
 -26  10  -2     577     175                                                         645   -1.95   -1.63  1.0000
  26 -10   3    1203     236                                                        1286   -2.20    1.32  1.0000
 -26  10  -3     828     211                                                         915   -2.20   -1.32  1.0000
  26 -10   4      79     238                                                         108   -1.13    1.17  1.0000
 -26  10  -4     549     211                                                         721   -1.13   -1.17  1.0000
  26 -10   5     319     260                                                          83    2.56    2.48  1.0000
 -26  10  -5     252     225                                                          77    2.56   -2.48  1.0000
  26 -10   6     716     341                                                         751   -0.17   -0.00  1.0000
 -26  10  -6     651     232                                                         685   -0.17    0.00  1.0000
  26 -10   7      38     235                                                         -18    1.53    0.38  1.0000
 -26  10  -7     336     257                                                         218    1.53   -0.38  1.0000
  26 -10   8     306     610                                                         358   -0.67   -1.02  1.0000
 -26  10  -8     870     394                                                         947   -0.67    1.02  1.0000
  26  -9   0     182     176                                                         310    0.82   -0.91  1.0000
  26  -9   1     173     162                                                         452   -3.99    1.98  1.0000
 -26   9  -1      92     163                                                          98   -3.99   -1.98  1.0000
  26  -9   2      22     168                                                         -11   -0.25   -1.17  1.0000
 -26   9  -2     397     195                                                         445   -0.25    1.17  1.0000
  26  -9   3    1377     257                                                         869    2.31   -0.57  1.0000
 -26   9  -3    1485     206                                                         928    2.31    0.57  1.0000
  26  -9   4     781     331                                                         493    1.54    0.31  1.0000
 -26   9  -4     912     229                                                         612    1.54   -0.31  1.0000
  26  -9   5     203     265                                                         251   -0.13    2.12  1.0000
 -26   9  -5     896     236                                                        1106   -0.13   -2.12  1.0000
  26  -9   6     557     271                                                         553   -0.21    2.05  1.0000
 -26   9  -6     692     228                                                         729   -0.21   -2.05  1.0000
  26  -9   7     865     289                                                         846   -0.06   -0.96  1.0000
 -26   9  -7     644     310                                                         614   -0.06    0.96  1.0000
  26  -9   8     781     694                                                        1165   -0.97    2.77  1.0000
 -26   9  -8     202     360                                                         398   -0.97   -2.77  1.0000
  26  -8   0       6     164                                                          -6    0.60   -0.10  1.0000
  26  -8   1     137     170                                                         259   -1.19    0.87  1.0000
 -26   8  -1     311     200                                                         507   -1.19   -0.87  1.0000
  26  -8   2     319     199                                                         545    0.54    2.45  1.0000
 -26   8  -2     265     214                                                         492    0.54   -2.45  1.0000
  26  -8   3      26     243                                                        -117    1.01    0.85  1.0000
 -26   8  -3     591     209                                                         520    1.01   -0.85  1.0000
  26  -8   4     140     259                                                         185   -0.43   -0.19  1.0000
 -26   8  -4     107     231                                                         145   -0.43    0.19  1.0000
  26  -8   5     393     368                                                         851   -2.30   -1.57  1.0000
 -26   8  -5     148     210                                                         412   -2.30    1.57  1.0000
  26  -8   6       1     246                                                          78   -1.17   -1.94  1.0000
 -26   8  -6      58     211                                                         259   -1.17    1.94  1.0000
  26  -8   7      83     313                                                          86   -0.19    0.72  1.0000
 -26   8  -7     513     284                                                         550   -0.19   -0.72  1.0000
  26  -8   8     497     634                                                         867   -2.28    0.94  1.0000
 -26   8  -8     470     377                                                         867   -2.28   -0.94  1.0000
  26  -7   0      17     166                                                          94    0.45    2.13  1.0000
  26  -7   1     107     186                                                         102    4.55    1.28  1.0000
 -26   7  -1      82     203                                                          92    4.55   -1.28  1.0000
  26  -7   2     299     266                                                         508    0.88   -2.63  1.0000
 -26   7  -2     357     213                                                         562    0.88    2.63  1.0000
  26  -7   3       9     234                                                        -153    0.35   -0.71  1.0000
 -26   7  -3     146     200                                                         183    0.35    0.71  1.0000
  26  -7   4     792     305                                                         882   -0.35   -0.21  1.0000
 -26   7  -4     497     270                                                         569   -0.35    0.21  1.0000
  26  -7   5     561     249                                                         661    0.53   -1.64  1.0000
 -26   7  -5     590     241                                                         661    0.53    1.64  1.0000
  26  -7   6      28     261                                                         -15    0.22   -1.34  1.0000
 -26   7  -6     426     252                                                         358    0.22    1.34  1.0000
  26  -7   7     740     345                                                         911   -0.88    0.56  1.0000
 -26   7  -7     484     251                                                         635   -0.88   -0.56  1.0000
  26  -6   0      26     208                                                         369    3.52   -0.79  1.0000
  26  -6   1     367     242                                                         669    0.05    1.73  1.0000
 -26   6  -1     136     236                                                         338    0.05   -1.73  1.0000
  26  -6   2      29     249                                                        -248   -0.87   -1.08  1.0000
 -26   6  -2     623     213                                                         618   -0.87    1.08  1.0000
  26  -6   3     407     256                                                         741   -0.81    1.68  1.0000
 -26   6  -3     517     213                                                         893   -0.81   -1.68  1.0000
  26  -6   4     493     228                                                         431    0.28    1.04  1.0000
 -26   6  -4     768     276                                                         723    0.28   -1.04  1.0000
  26  -6   5    2365     306                                                        1799    1.60   -1.14  1.0000
 -26   6  -5    1755     284                                                        1252    1.60    1.14  1.0000
  26  -6   6     835     314                                                         502    2.05    2.23  1.0000
 -26   6  -6    1117     322                                                         785    2.05   -2.23  1.0000
  26  -6   7     541     304                                                         208    2.16    0.91  1.0000
 -26   6  -7    1197     312                                                         681    2.16   -0.91  1.0000
  26  -5   0     387     413                                                         544   -0.90    0.76  1.0000
  26  -5   1     211     290                                                         269    0.21    1.16  1.0000
 -26   5  -1     284     244                                                         365    0.21   -1.16  1.0000
  26  -5   2     387     267                                                         483   -0.84   -0.94  1.0000
 -26   5  -2      20     203                                                          13   -0.84    0.94  1.0000
  26  -5   3     107     262                                                         -67    1.38   -2.26  1.0000
 -26   5  -3     341     216                                                         216    1.38    2.26  1.0000
  26  -5   4     104     234                                                        -129    2.54    0.64  1.0000
 -26   5  -4     127     289                                                         447    2.54   -0.64  1.0000
  26  -5   5     269     297                                                         583    0.98    3.04  1.0000
 -26   5  -5     205     296                                                         488    0.98   -3.04  1.0000
  26  -5   6       7     276                                                         -15    0.51   -0.46  1.0000
 -26   5  -6     150     281                                                         217    0.51    0.46  1.0000
  26  -4   0     551     295                                                         415    0.80   -0.09  1.0000
  26  -4   1     658     387                                                        1073   -1.57    1.41  1.0000
 -26   4  -1     267     308                                                         559   -1.57   -1.41  1.0000
  26  -4   2     680     265                                                         357    1.79   -0.72  1.0000
 -26   4  -2      57     256                                                         -59    1.79    0.72  1.0000
  26  -4   3     157     232                                                          69    1.03    0.51  1.0000
 -26   4  -3     171     232                                                          75    1.03   -0.51  1.0000
  26  -4   4     209     344                                                         379   -0.95   -0.96  1.0000
 -26   4  -4     195     297                                                         351   -0.95    0.96  1.0000
  26  -4   5      19     278                                                          86   -1.24    0.33  1.0000
 -26   4  -5     183     309                                                         343   -1.24   -0.33  1.0000
  26  -3   0     435     318                                                         643   -1.13   -0.32  1.0000
  26  -3   1     254     283                                                         214    0.88    0.52  1.0000
 -26   3  -1      16     303                                                         -48    0.88   -0.52  1.0000
  26  -3   2     506     426                                                         633   -1.27   -1.03  1.0000
 -26   3  -2     193     435                                                         242   -1.27    1.03  1.0000
  26  -3   3     438     354                                                         563   -1.03   -0.30  1.0000
 -26   3  -3     576     351                                                         700   -1.03    0.30  1.0000
  26  -3   4     216     359                                                         574   -2.63   -0.21  1.0000
 -26   3  -4     317     300                                                         711   -2.63    0.21  1.0000
  26  -2   0     748     515                                                         824   -0.34   -0.05  1.0000
  26  -2   1     284     371                                                         685   -0.12    2.47  1.0000
 -26   2  -1     164     433                                                         490   -0.12   -2.47  1.0000
  26  -2   2      15     433                                                        -590    0.14   -0.97  1.0000
 -26   2  -2     303     410                                                         324    0.14    0.97  1.0000
  27 -13   0       2     189                                                         167    3.46   -0.96  1.0000
  27 -13   1      22     199                                                         308    2.13   -2.79  1.0000
 -27  13  -1      33     191                                                         342    2.13    2.79  1.0000
  27 -13   2     307     212                                                         287    1.35    2.43  1.0000
 -27  13  -2     278     216                                                         244    1.35   -2.43  1.0000
  27 -13   3      55     198                                                          62   -2.74   -0.78  1.0000
 -27  13  -3     165     218                                                         347   -2.74    0.78  1.0000
  27 -13   4      16     222                                                        -154    0.22    0.99  1.0000
 -27  13  -4     286     244                                                         220    0.22   -0.99  1.0000
  27 -13   5     685     451                                                         743    1.57    1.93  1.0000
 -27  13  -5      89     356                                                          15    1.57   -1.93  1.0000
  27 -13   6       3     292                                                         -45    0.22    0.41  1.0000
 -27  13  -6     378     304                                                         392    0.22   -0.41  1.0000
  27 -13   7     547     310                                                         659    0.72    1.12  1.0000
 -27  13  -7      27     295                                                         -46    0.72   -1.12  1.0000
  27 -12   0     103     198                                                         321    1.33    1.68  1.0000
  27 -12   1    1275     290                                                        1489    0.19    1.27  1.0000
 -27  12  -1     714     206                                                         846    0.19   -1.27  1.0000
  27 -12   2     528     225                                                         764   -3.23   -1.40  1.0000
 -27  12  -2     429     226                                                         602   -3.23    1.40  1.0000
  27 -12   3    1098     259                                                        1174   -0.06    1.97  1.0000
 -27  12  -3    1239     224                                                        1257   -0.06   -1.97  1.0000
  27 -12   4     363     314                                                         400    0.09   -1.11  1.0000
 -27  12  -4     613     265                                                         701    0.09    1.11  1.0000
  27 -12   5     813     308                                                         838    0.84    2.08  1.0000
 -27  12  -5      77     261                                                         -10    0.84   -2.08  1.0000
  27 -12   6     360     302                                                         537    0.11    1.43  1.0000
 -27  12  -6     462     316                                                         629    0.11   -1.43  1.0000
  27 -12   7     315     314                                                         291   -0.17    0.31  1.0000
 -27  12  -7     519     324                                                         479   -0.17   -0.31  1.0000
  27 -11   0     264     204                                                         101   -2.59   -1.38  1.0000
  27 -11   1      56     195                                                          85   -2.17    0.91  1.0000
 -27  11  -1     145     202                                                         242   -2.17   -0.91  1.0000
  27 -11   2      49     205                                                         -24    1.59   -0.84  1.0000
 -27  11  -2      71     189                                                         234    1.59    0.84  1.0000
  27 -11   3      67     249                                                         165    0.42   -1.26  1.0000
 -27  11  -3      27     228                                                         -36    0.42    1.26  1.0000
  27 -11   4     341     315                                                         828    0.83   -3.17  1.0000
 -27  11  -4      78     229                                                         327    0.83    3.17  1.0000
  27 -11   5     256     267                                                         318   -0.43    0.39  1.0000
 -27  11  -5     420     262                                                         496   -0.43   -0.39  1.0000
  27 -11   6     236     284                                                         429    0.94   -1.00  1.0000
 -27  11  -6      29     342                                                        -223    0.94    1.00  1.0000
  27 -11   7     240     352                                                         434    0.36   -1.81  1.0000
 -27  11  -7      97     355                                                         226    0.36    1.81  1.0000
  27 -10   0     121     226                                                         432    2.52   -0.04  1.0000
  27 -10   1     636     193                                                         392    0.22    1.41  1.0000
 -27  10  -1     860     259                                                         571    0.22   -1.41  1.0000
  27 -10   2      58     216                                                         106    1.01    1.71  1.0000
 -27  10  -2      96     192                                                         171    1.01   -1.71  1.0000
  27 -10   3      12     325                                                         -13    0.18    0.86  1.0000
 -27  10  -3     814     256                                                         630    0.18   -0.86  1.0000
  27 -10   4     401     268                                                         294   -0.25    0.71  1.0000
 -27  10  -4     528     207                                                         404   -0.25   -0.71  1.0000
  27 -10   5      25     252                                                         140   -1.16   -3.67  1.0000
 -27  10  -5      30     200                                                         119   -1.16    3.67  1.0000
  27 -10   6      33     255                                                         141   -0.59   -1.70  1.0000
 -27  10  -6      79     345                                                         231   -0.59    1.70  1.0000
  27  -9   0     225     188                                                         566    1.57    2.06  1.0000
  27  -9   1     489     250                                                        1191    3.10    1.88  1.0000
 -27   9  -1     162     206                                                         533    3.10   -1.88  1.0000
  27  -9   2     198     300                                                         393    0.90   -2.06  1.0000
 -27   9  -2     202     241                                                         448    0.90    2.06  1.0000
  27  -9   3     506     307                                                         399   -0.36    0.77  1.0000
 -27   9  -3     123     249                                                          66   -0.36   -0.77  1.0000
  27  -9   4     361     264                                                         346   -0.81   -1.12  1.0000
 -27   9  -4     618     238                                                         638   -0.81    1.12  1.0000
  27  -9   5     492     318                                                         647    0.81   -0.66  1.0000
 -27   9  -5     480     258                                                         645    0.81    0.66  1.0000
  27  -9   6     490     329                                                         577    0.40   -0.52  1.0000
 -27   9  -6     393     442                                                         478    0.40    0.52  1.0000
  27  -8   0      14     236                                                          58    2.66   -1.13  1.0000
  27  -8   1      60     262                                                         -28   -1.64    1.14  1.0000
 -27   8  -1      95     230                                                         233   -1.64   -1.14  1.0000
  27  -8   2     117     323                                                         431   -2.43    1.06  1.0000
 -27   8  -2      51     213                                                          11   -2.43   -1.06  1.0000
  27  -8   3     233     303                                                         298    1.21    0.60  1.0000
 -27   8  -3     513     235                                                         610    1.21   -0.60  1.0000
  27  -8   4     103     260                                                         238    1.13    0.93  1.0000
 -27   8  -4      33     224                                                         -92    1.13   -0.93  1.0000
  27  -8   5     489     290                                                         413   -0.05    1.79  1.0000
 -27   8  -5     206     210                                                         136   -0.05   -1.79  1.0000
  27  -8   6      61     419                                                        -114    0.83    1.83  1.0000
 -27   8  -6     463     419                                                         666    0.83   -1.83  1.0000
  27  -7   0      10     330                                                        -160   -0.49    0.63  1.0000
  27  -7   1     115     332                                                         377   -1.77    1.43  1.0000
 -27   7  -1     151     261                                                         442   -1.77   -1.43  1.0000
  27  -7   2       6     250                                                          59    0.97   -0.90  1.0000
 -27   7  -2     108     201                                                         241    0.97    0.90  1.0000
  27  -7   3      77     298                                                         239    1.82   -0.55  1.0000
 -27   7  -3      66     206                                                         219    1.82    0.55  1.0000
  27  -7   4     197     311                                                         277   -0.45    0.56  1.0000
 -27   7  -4      15     218                                                          41   -0.45   -0.56  1.0000
  27  -7   5      53     292                                                          82    0.26    1.73  1.0000
 -27   7  -5      46     214                                                        -251    0.26   -1.73  1.0000
  27  -6   0     129     282                                                          81   -0.69    0.41  1.0000
  27  -6   1     316     301                                                         579    1.09    1.24  1.0000
 -27   6  -1     138     362                                                         311    1.09   -1.24  1.0000
  27  -6   2     678     309                                                        1133    1.24   -2.27  1.0000
 -27   6  -2     942     354                                                        1522    1.24    2.27  1.0000
  27  -6   3     334     294                                                         436    0.46    0.54  1.0000
 -27   6  -3     229     218                                                         309    0.46   -0.54  1.0000
  27  -6   4     282     311                                                         281   -0.01   -0.69  1.0000
 -27   6  -4     118     215                                                         123   -0.01    0.69  1.0000
  27  -5   0      14     281                                                          -8    0.93    0.17  1.0000
  27  -5   1      37     285                                                        -249    1.06    1.16  1.0000
 -27   5  -1     585     306                                                         727    1.06   -1.16  1.0000
  27  -5   2     326     312                                                         885   -2.86   -2.14  1.0000
 -27   5  -2      67     307                                                         327   -2.86    2.14  1.0000
  27  -5   3      16     327                                                         -46   -0.56    0.87  1.0000
 -27   5  -3     264     501                                                         150   -0.56   -0.87  1.0000
  28 -14   0      18     310                                                         115    1.67    0.06  1.0000
  28 -14   1     183     229                                                         144    0.40   -0.06  1.0000
  28 -14   2       2     230                                                          77   -2.59   -0.26  1.0000
  28 -14   3     293     298                                                         464   -1.08   -0.50  1.0000
  28 -14   4      11     382                                                          97    0.42   -1.63  1.0000
  28 -14   5     182     289                                                         357    1.37   -0.34  1.0000
  28 -13   0      32     186                                                          81    0.60   -0.78  1.0000
  28 -13   1     650     221                                                        1206    1.13    2.18  1.0000
 -28  13  -1     510     230                                                        1003    1.13   -2.18  1.0000
  28 -13   2      16     236                                                         138    1.88   -1.34  1.0000
 -28  13  -2     115     200                                                         378    1.88    1.34  1.0000
  28 -13   3     350     263                                                         376   -0.04    0.49  1.0000
 -28  13  -3      10     262                                                          10   -0.04   -0.49  1.0000
  28 -13   4     296     371                                                         337    0.38   -0.30  1.0000
 -28  13  -4     396     298                                                         451    0.38    0.30  1.0000
  28 -13   5     318     301                                                         592    0.89   -2.22  1.0000
 -28  13  -5     179     364                                                         411    0.89    2.22  1.0000
  28 -12   0      23     193                                                         199    2.39   -0.44  1.0000
  28 -12   1     494     248                                                         566    1.41   -1.91  1.0000
 -28  12  -1     458     216                                                         554    1.41    1.91  1.0000
  28 -12   2      75     252                                                         309    0.93    2.09  1.0000
 -28  12  -2      37     251                                                         223    0.93   -2.09  1.0000
  28 -12   3     472     301                                                         280   -0.88   -1.06  1.0000
 -28  12  -3     914     289                                                         636   -0.88    1.06  1.0000
  28 -12   4     502     334                                                         708    0.59    0.96  1.0000
 -28  12  -4     417     335                                                         602    0.59   -0.96  1.0000
  28 -12   5      57     292                                                        -149    0.34   -1.91  1.0000
 -28  12  -5      57     350                                                         -40    0.34    1.91  1.0000
  28 -11   0      83     225                                                        -105    1.66    1.65  1.0000
  28 -11   1     506     277                                                         561    0.41    1.68  1.0000
 -28  11  -1     682     242                                                         763    0.41   -1.68  1.0000
  28 -11   2     579     273                                                         531   -1.06   -0.45  1.0000
 -28  11  -2     317     246                                                         275   -1.06    0.45  1.0000
  28 -11   3      88     453                                                         234    1.56    1.67  1.0000
 -28  11  -3     200     231                                                         424    1.56   -1.67  1.0000
  28 -11   4      55     255                                                        -164   -1.15   -1.51  1.0000
 -28  11  -4     108     253                                                          63   -1.15    1.51  1.0000
  28 -10   0      20     281                                                        -105   -0.42   -1.08  1.0000
  28 -10   1      16     261                                                         100   -1.91    0.22  1.0000
 -28  10  -1      67     242                                                         236   -1.91   -0.22  1.0000
  28 -10   2     206     318                                                         192   -0.55    0.05  1.0000
 -28  10  -2      48     223                                                          38   -0.55   -0.05  1.0000
  28 -10   3     406     275                                                         322    0.33   -1.13  1.0000
 -28  10  -3     304     244                                                         240    0.33    1.13  1.0000
  28 -10   4     481     278                                                         781    1.94    0.06  1.0000
 -28  10  -4     233     261                                                         461    1.94   -0.06  1.0000
  28  -9   0      28     329                                                         124   -0.63    1.36  1.0000
  28  -9   1     115     297                                                          59   -0.99    0.40  1.0000
 -28   9  -1    1078     315                                                         894   -0.99   -0.40  1.0000
  28  -9   2      71     270                                                          96    0.58    0.03  1.0000
 -28   9  -2     326     216                                                         385    0.58   -0.03  1.0000
  28  -9   3       2     267                                                          12    0.24    0.46  1.0000
 -28   9  -3       4     225                                                         -21    0.24   -0.46  1.0000
  28  -8   0     154     363                                                         232   -0.72    0.02  1.0000
  28  -8   1     169     326                                                         388    0.68    1.76  1.0000
 -28   8  -1      20     346                                                         114    0.68   -1.76  1.0000
  28  -8   2     274     289                                                         599    0.91   -2.30  1.0000
 -28   8  -2      41     281                                                         170    0.91    2.30  1.0000
  29 -14   0       1     349                                                         -16    0.09   -0.21  1.0000
  29 -14   1     759     321                                                         765    1.05   -3.18  1.0000
 -29  14  -1     288     298                                                         176    1.05    3.18  1.0000
  29 -13   0    1579     347                                                        1179    1.40    0.68  1.0000
  29 -13   1     141     257                                                         256    0.17    1.05  1.0000
 -29  13  -1     192     336                                                         323    0.17   -1.05  1.0000
   0   0   0      17       0                                                           0    0.17   -1.05  1.0000

;
_shelx_hkl_checksum              50306
loop_
_space_group_symop_operation_xyz
'x, y, z'
'x-y, x, z'
'-y, x-y, z'
'-x, -y, z'
'-x+y, -x, z'
'y, -x+y, z'
'-y, -x, -z'
'x-y, -y, -z'
'x, x-y, -z'
'y, x, -z'
'-x+y, y, -z'
'-x, -x+y, -z'
loop_
_atom_site_label
_atom_site_type_symbol
_atom_site_fract_x
_atom_site_fract_y
_atom_site_fract_z
_atom_site_U_iso_or_equiv
_atom_site_adp_type
_atom_site_occupancy
_atom_site_site_symmetry_order
_atom_site_calc_flag
_atom_site_refinement_flags_posn
_atom_site_refinement_flags_adp
_atom_site_refinement_flags_occupancy
_atom_site_disorder_assembly
_atom_site_disorder_group
Ni1 Ni 1.67175(5) 1.0000 1.0000 0.1029(6) Uani 1 2 d S T P . .
C1 C 1.3837(3) 1.1582(3) 0.5514(4) 0.097(2) Uani 1 1 d . . . . .
C2 C 1.3421(3) 1.1033(3) 0.5045(4) 0.103(2) Uani 1 1 d . . . . .
H2A H 1.3661 1.0910 0.4741 0.124 Uiso 1 1 calc R U . . .
H2B H 1.3164 1.0700 0.5384 0.124 Uiso 1 1 calc R U . . .
C3 C 1.4204(4) 1.2102(2) 0.5000 0.104(3) Uani 1 2 d S T P . .
H3A H 1.4465 1.2455 0.5310 0.125 Uiso 0.5 1 calc R U P . .
H3B H 1.4465 1.2009 0.4690 0.125 Uiso 0.5 1 calc R U P . .
C4 C 1.3435(3) 1.1725(3) 0.5987(3) 0.0958(18) Uani 1 1 d . . . . .
H4A H 1.3683 1.2070 0.6316 0.115 Uiso 1 1 calc R U . . .
H4B H 1.3179 1.1380 0.6311 0.115 Uiso 1 1 calc R U . . .
C5 C 1.2646(4) 1.1323(2) 0.5000 0.088(2) Uani 1 2 d S T P . .
H5A H 1.2387 1.0986 0.5334 0.106 Uiso 0.5 1 calc R U P . .
H5B H 1.2387 1.1401 0.4666 0.106 Uiso 0.5 1 calc R U P . .
C6 C 1.3033(3) 1.1160(3) 0.4530(4) 0.0919(19) Uani 1 1 d . . . . .
C7 C 1.4244(3) 1.1453(3) 0.6016(3) 0.119(3) Uani 1 1 d G . . . .
C8 C 1.4685(3) 1.1379(4) 0.5674(3) 0.176(6) Uani 1 1 d G . . . .
H8 H 1.4742 1.1427 0.5146 0.212 Uiso 1 1 calc R U . . .
C9 C 1.5042(3) 1.1235(4) 0.6105(4) 0.183(5) Uani 1 1 d G . . . .
H9 H 1.5343 1.1184 0.5871 0.220 Uiso 1 1 calc R U . . .
C10 C 1.4959(3) 1.1164(4) 0.6877(4) 0.147(4) Uani 1 1 d G . . . .
C11 C 1.4518(3) 1.1238(4) 0.7219(2) 0.153(4) Uani 1 1 d G . . . .
H11 H 1.4461 1.1190 0.7747 0.184 Uiso 1 1 calc R U . . .
C12 C 1.4161(3) 1.1383(3) 0.6788(3) 0.132(3) Uani 1 1 d G . . . .
H12 H 1.3860 1.1433 0.7022 0.158 Uiso 1 1 calc R U . . .
C13 C 1.5326(7) 1.0971(7) 0.7321(8) 0.187(6) Uani 1 1 d . . . . .
H13 H 1.5533 1.0816 0.7047 0.224 Uiso 1 1 calc R U . . .
C14 C 1.5380(6) 1.0995(6) 0.8005(8) 0.164(4) Uani 1 1 d . . . . .
H14 H 1.5167 1.1139 0.8287 0.196 Uiso 1 1 calc R U . . .
C15 C 1.5755(5) 1.0816(7) 0.8415(7) 0.153(4) Uani 1 1 d . . . . .
C16 C 1.6002(5) 1.0499(5) 0.8082(6) 0.135(3) Uani 1 1 d . . . . .
H16 H 1.5961 1.0410 0.7561 0.162 Uiso 1 1 calc R U . . .
C17 C 1.6322(5) 1.0315(5) 0.8574(5) 0.144(4) Uani 1 1 d . . . . .
H17 H 1.6528 1.0136 0.8355 0.173 Uiso 1 1 calc R U . . .
N1 N 1.6347(3) 1.0384(4) 0.9337(4) 0.121(2) Uani 1 1 d . . . . .
C18 C 1.6096(5) 1.0662(6) 0.9600(6) 0.146(4) Uani 1 1 d . . . . .
H18 H 1.6094 1.0698 1.0131 0.175 Uiso 1 1 calc R U . . .
C19 C 1.5825(6) 1.0919(8) 0.9189(7) 0.184(6) Uani 1 1 d . . . . .
H19 H 1.5691 1.1159 0.9428 0.221 Uiso 1 1 calc R U . . .
C20 C 1.2646(4) 1.0617(3) 0.3997(4) 0.100(2) Uani 1 1 d . . . . .
C21 C 1.2045(4) 1.0333(3) 0.3982(4) 0.106(2) Uani 1 1 d . . . . .
H21 H 1.1832 1.0445 0.4314 0.127 Uiso 1 1 calc R U . . .
C22 C 1.1749(4) 0.9877(4) 0.3476(5) 0.120(3) Uani 1 1 d . . . . .
H22 H 1.1326 0.9676 0.3462 0.144 Uiso 1 1 calc R U . . .
C23 C 1.2051(6) 0.9700(4) 0.2979(5) 0.128(3) Uani 1 1 d . U . . .
C24 C 1.2655(5) 0.9952(5) 0.3059(4) 0.123(2) Uani 1 1 d . U . . .
H24 H 1.2857 0.9792 0.2786 0.148 Uiso 1 1 calc R U . . .
C25 C 1.2966(5) 1.0419(4) 0.3514(4) 0.115(2) Uani 1 1 d . U . . .
H25 H 1.3389 1.0617 0.3521 0.138 Uiso 1 1 calc R U . . .
C26 C 1.1782(6) 0.9203(5) 0.2410(6) 0.143(3) Uani 1 1 d . U . . .
H26 H 1.2033 0.9079 0.2180 0.171 Uiso 1 1 calc R U . . .
C27 C 1.1260(5) 0.8952(5) 0.2230(7) 0.142(3) Uani 1 1 d . U . . .
H27 H 1.1004 0.9063 0.2475 0.170 Uiso 1 1 calc R U . . .
C28 C 1.0997(6) 0.8470(5) 0.1634(6) 0.139(3) Uani 1 1 d . U . . .
C29 C 1.0440(6) 0.8218(5) 0.1415(5) 0.139(3) Uani 1 1 d . U . . .
H29 H 1.0219 0.8394 0.1595 0.167 Uiso 1 1 calc R U . . .
C30 C 1.0143(5) 0.7739(4) 0.0965(4) 0.121(3) Uani 1 1 d . U . . .
H30 H 0.9726 0.7574 0.0902 0.145 Uiso 1 1 calc R U . . .
N2 N 1.0416(4) 0.7491(3) 0.0606(4) 0.1124(19) Uani 1 1 d . U . . .
C31 C 1.1031(5) 0.7735(5) 0.0736(6) 0.149(3) Uani 1 1 d . U . . .
H31 H 1.1256 0.7590 0.0485 0.179 Uiso 1 1 calc R U . . .
C32 C 1.1307(5) 0.8230(5) 0.1285(6) 0.151(3) Uani 1 1 d . U . . .
H32 H 1.1716 0.8390 0.1404 0.181 Uiso 1 1 calc R U . . .
O1 O 1.71285(13) 1.08572(14) 1.08693(16) 0.0506(7) Uani 1 1 d . . . . .
loop_
_atom_site_aniso_label
_atom_site_aniso_U_11
_atom_site_aniso_U_22
_atom_site_aniso_U_33
_atom_site_aniso_U_23
_atom_site_aniso_U_13
_atom_site_aniso_U_12
Ni1 0.1035(7) 0.1390(11) 0.0781(8) 0.0172(7) 0.0086(4) 0.0695(6)
C1 0.102(5) 0.103(5) 0.075(4) 0.009(4) -0.003(4) 0.044(4)
C2 0.126(5) 0.125(5) 0.079(4) 0.027(5) 0.018(5) 0.078(5)
C3 0.100(6) 0.118(5) 0.087(6) -0.016(6) 0.000 0.050(3)
C4 0.103(4) 0.095(5) 0.080(4) -0.004(4) 0.000(3) 0.042(4)
C5 0.107(6) 0.085(3) 0.079(5) 0.018(5) 0.000 0.054(3)
C6 0.102(5) 0.107(5) 0.072(4) 0.011(3) 0.005(3) 0.056(4)
C7 0.132(7) 0.143(7) 0.098(6) 0.018(5) 0.003(5) 0.081(6)
C8 0.183(10) 0.330(18) 0.110(6) 0.008(9) -0.005(7) 0.199(13)
C9 0.213(12) 0.267(16) 0.135(9) 0.054(10) 0.022(9) 0.168(12)
C10 0.138(7) 0.197(11) 0.142(8) 0.038(7) -0.020(7) 0.109(8)
C11 0.164(9) 0.246(13) 0.093(6) 0.014(7) -0.008(6) 0.135(10)
C12 0.130(7) 0.160(8) 0.108(6) 0.034(6) -0.006(5) 0.074(6)
C13 0.216(14) 0.275(17) 0.122(9) 0.024(10) 0.007(9) 0.162(13)
C14 0.162(10) 0.220(12) 0.145(9) 0.025(9) -0.001(8) 0.122(9)
C15 0.154(9) 0.199(12) 0.145(9) 0.038(9) -0.005(7) 0.118(9)
C16 0.127(7) 0.149(8) 0.112(6) 0.017(6) -0.019(6) 0.056(6)
C17 0.157(8) 0.196(10) 0.092(6) 0.035(6) -0.003(5) 0.100(8)
N1 0.130(5) 0.163(6) 0.090(4) 0.016(4) -0.004(4) 0.088(5)
C18 0.184(10) 0.217(12) 0.099(6) 0.008(6) 0.001(6) 0.148(10)
C19 0.197(12) 0.275(17) 0.116(8) -0.021(10) -0.037(8) 0.145(12)
C20 0.132(7) 0.078(4) 0.081(4) 0.010(3) -0.005(4) 0.046(4)
C21 0.120(6) 0.091(4) 0.090(5) 0.003(4) -0.015(4) 0.040(5)
C22 0.135(7) 0.104(6) 0.099(5) 0.006(5) -0.023(5) 0.044(5)
C23 0.190(8) 0.105(6) 0.092(5) 0.002(4) -0.014(6) 0.076(6)
C24 0.169(8) 0.112(6) 0.088(4) -0.006(5) 0.006(5) 0.070(6)
C25 0.163(7) 0.109(5) 0.074(4) -0.008(4) 0.007(4) 0.069(5)
C26 0.164(8) 0.144(8) 0.124(7) 0.011(5) -0.004(6) 0.079(7)
C27 0.125(7) 0.134(8) 0.158(9) 0.019(5) 0.021(6) 0.059(6)
C28 0.173(8) 0.110(6) 0.114(7) 0.006(5) 0.023(6) 0.056(6)
C29 0.176(8) 0.125(7) 0.097(6) -0.015(5) 0.006(6) 0.062(7)
C30 0.168(8) 0.114(5) 0.090(5) -0.011(4) -0.007(5) 0.077(6)
N2 0.137(5) 0.103(4) 0.091(4) 0.004(3) -0.008(4) 0.056(4)
C31 0.146(7) 0.129(7) 0.133(7) -0.007(5) 0.010(6) 0.039(6)
C32 0.143(7) 0.123(7) 0.141(7) 0.008(5) -0.020(6) 0.032(5)
O1 0.0599(17) 0.0690(18) 0.0364(13) -0.0068(14) -0.0085(13) 0.0425(15)
loop_
_atom_type_symbol
_atom_type_description
_atom_type_scat_dispersion_real
_atom_type_scat_dispersion_imag
_atom_type_scat_source
C C 0.0030 0.0020 'International Tables Vol C Tables 4.2.6.8 and 6.1.1.4'
H H 0.0000 0.0000 'International Tables Vol C Tables 4.2.6.8 and 6.1.1.4'
N N 0.0060 0.0030 'International Tables Vol C Tables 4.2.6.8 and 6.1.1.4'
Ni Ni 0.3580 1.0940 'International Tables Vol C Tables 4.2.6.8 and 6.1.1.4'
O O 0.0110 0.0060 'International Tables Vol C Tables 4.2.6.8 and 6.1.1.4'
loop_
_geom_angle_atom_site_label_1
_geom_angle_atom_site_label_2
_geom_angle_atom_site_label_3
_geom_angle
_geom_angle_site_symmetry_1
_geom_angle_site_symmetry_3
_geom_angle_publ_flag
N2 Ni1 N2 88.4(4) 10_656 5_776 ?
N2 Ni1 N1 90.9(3) 10_656 . ?
N2 Ni1 N1 176.6(3) 5_776 . ?
N2 Ni1 N1 176.6(3) 10_656 8_677 ?
N2 Ni1 N1 90.9(3) 5_776 8_677 ?
N1 Ni1 N1 90.1(4) . 8_677 ?
C3 C1 C4 108.6(6) . . ?
C3 C1 C2 109.6(5) . . ?
C4 C1 C2 106.0(6) . . ?
C3 C1 C7 110.5(6) . . ?
C4 C1 C7 111.1(5) . . ?
C2 C1 C7 110.9(6) . . ?
C6 C2 C1 111.4(6) . . ?
C6 C2 H2A 109.3 . . ?
C1 C2 H2A 109.3 . . ?
C6 C2 H2B 109.3 . . ?
C1 C2 H2B 109.3 . . ?
H2A C2 H2B 108.0 . . ?
C1 C3 C1 113.8(8) 9_566 . ?
C1 C3 H3A 108.8 9_566 . ?
C1 C3 H3A 108.8 . . ?
C1 C3 H3B 108.8 9_566 . ?
C1 C3 H3B 108.8 . . ?
H3A C3 H3B 107.7 . . ?
C1 C4 C6 110.8(5) . 9_566 ?
C1 C4 H4A 109.5 . . ?
C6 C4 H4A 109.5 9_566 . ?
C1 C4 H4B 109.5 . . ?
C6 C4 H4B 109.5 9_566 . ?
H4A C4 H4B 108.1 . . ?
C6 C5 C6 110.2(8) . 9_566 ?
C6 C5 H5A 109.6 . . ?
C6 C5 H5A 109.6 9_566 . ?
C6 C5 H5B 109.6 . . ?
C6 C5 H5B 109.6 9_566 . ?
H5A C5 H5B 108.1 . . ?
C2 C6 C5 109.3(5) . . ?
C2 C6 C20 111.5(6) . . ?
C5 C6 C20 111.4(6) . . ?
C2 C6 C4 109.9(6) . 9_566 ?
C5 C6 C4 107.4(6) . 9_566 ?
C20 C6 C4 107.2(5) . 9_566 ?
C8 C7 C12 120.0 . . ?
C8 C7 C1 118.4(4) . . ?
C12 C7 C1 121.5(4) . . ?
C9 C8 C7 120.0 . . ?
C9 C8 H8 120.0 . . ?
C7 C8 H8 120.0 . . ?
C8 C9 C10 120.0 . . ?
C8 C9 H9 120.0 . . ?
C10 C9 H9 120.0 . . ?
C9 C10 C11 120.0 . . ?
C9 C10 C13 118.7(7) . . ?
C11 C10 C13 121.2(7) . . ?
C10 C11 C12 120.0 . . ?
C10 C11 H11 120.0 . . ?
C12 C11 H11 120.0 . . ?
C11 C12 C7 120.0 . . ?
C11 C12 H12 120.0 . . ?
C7 C12 H12 120.0 . . ?
C14 C13 C10 125.6(13) . . ?
C14 C13 H13 117.2 . . ?
C10 C13 H13 117.2 . . ?
C13 C14 C15 123.9(14) . . ?
C13 C14 H14 118.0 . . ?
C15 C14 H14 118.0 . . ?
C19 C15 C16 118.5(10) . . ?
C19 C15 C14 118.2(13) . . ?
C16 C15 C14 123.0(12) . . ?
C15 C16 C17 116.4(10) . . ?
C15 C16 H16 121.8 . . ?
C17 C16 H16 121.8 . . ?
N1 C17 C16 123.9(10) . . ?
N1 C17 H17 118.0 . . ?
C16 C17 H17 118.0 . . ?
C18 N1 C17 115.7(8) . . ?
C18 N1 Ni1 123.6(6) . . ?
C17 N1 Ni1 120.6(7) . . ?
N1 C18 C19 126.7(10) . . ?
N1 C18 H18 116.6 . . ?
C19 C18 H18 116.6 . . ?
C18 C19 C15 118.2(13) . . ?
C18 C19 H19 120.9 . . ?
C15 C19 H19 120.9 . . ?
C21 C20 C25 120.1(7) . . ?
C21 C20 C6 123.1(7) . . ?
C25 C20 C6 116.8(8) . . ?
C20 C21 C22 118.6(9) . . ?
C20 C21 H21 120.7 . . ?
C22 C21 H21 120.7 . . ?
C21 C22 C23 122.1(9) . . ?
C21 C22 H22 119.0 . . ?
C23 C22 H22 119.0 . . ?
C24 C23 C22 118.1(9) . . ?
C24 C23 C26 114.1(10) . . ?
C22 C23 C26 127.4(11) . . ?
C25 C24 C23 121.5(9) . . ?
C25 C24 H24 119.2 . . ?
C23 C24 H24 119.2 . . ?
C24 C25 C20 118.9(9) . . ?
C24 C25 H25 120.5 . . ?
C20 C25 H25 120.5 . . ?
C27 C26 C23 123.3(13) . . ?
C27 C26 H26 118.3 . . ?
C23 C26 H26 118.3 . . ?
C26 C27 C28 123.1(12) . . ?
C26 C27 H27 118.4 . . ?
C28 C27 H27 118.4 . . ?
C29 C28 C32 112.6(10) . . ?
C29 C28 C27 123.3(11) . . ?
C32 C28 C27 124.1(12) . . ?
C28 C29 C30 128.0(12) . . ?
C28 C29 H29 116.0 . . ?
C30 C29 H29 116.0 . . ?
N2 C30 C29 122.1(10) . . ?
N2 C30 H30 119.0 . . ?
C29 C30 H30 119.0 . . ?
C30 N2 C31 117.4(8) . . ?
C30 N2 Ni1 125.4(7) . 3_754 ?
C31 N2 Ni1 116.6(7) . 3_754 ?
N2 C31 C32 116.3(10) . . ?
N2 C31 H31 121.8 . . ?
C32 C31 H31 121.8 . . ?
C28 C32 C31 123.2(11) . . ?
C28 C32 H32 118.4 . . ?
C31 C32 H32 118.4 . . ?
loop_
_geom_bond_atom_site_label_1
_geom_bond_atom_site_label_2
_geom_bond_distance
_geom_bond_site_symmetry_2
_geom_bond_publ_flag
Ni1 N2 2.047(7) 10_656 ?
Ni1 N2 2.047(7) 5_776 ?
Ni1 N1 2.065(7) . ?
Ni1 N1 2.065(7) 8_677 ?
C1 C3 1.511(9) . ?
C1 C4 1.523(10) . ?
C1 C2 1.533(10) . ?
C1 C7 1.540(8) . ?
C2 C6 1.512(10) . ?
C2 H2A 0.9900 . ?
C2 H2B 0.9900 . ?
C3 C1 1.510(9) 9_566 ?
C3 H3A 0.9900 . ?
C3 H3B 0.9900 . ?
C4 C6 1.575(10) 9_566 ?
C4 H4A 0.9900 . ?
C4 H4B 0.9900 . ?
C5 C6 1.520(9) . ?
C5 C6 1.520(9) 9_566 ?
C5 H5A 0.9900 . ?
C5 H5B 0.9900 . ?
C6 C20 1.574(10) . ?
C6 C4 1.575(10) 9_566 ?
C7 C8 1.3900 . ?
C7 C12 1.3900 . ?
C8 C9 1.3900 . ?
C8 H8 0.9500 . ?
C9 C10 1.3900 . ?
C9 H9 0.9500 . ?
C10 C11 1.3900 . ?
C10 C13 1.503(14) . ?
C11 C12 1.3900 . ?
C11 H11 0.9500 . ?
C12 H12 0.9500 . ?
C13 C14 1.224(15) . ?
C13 H13 0.9500 . ?
C14 C15 1.465(15) . ?
C14 H14 0.9500 . ?
C15 C19 1.397(17) . ?
C15 C16 1.400(16) . ?
C16 C17 1.440(13) . ?
C16 H16 0.9500 . ?
C17 N1 1.367(11) . ?
C17 H17 0.9500 . ?
N1 C18 1.279(12) . ?
C18 C19 1.394(16) . ?
C18 H18 0.9500 . ?
C19 H19 0.9500 . ?
C20 C21 1.350(12) . ?
C20 C25 1.455(12) . ?
C21 C22 1.374(11) . ?
C21 H21 0.9500 . ?
C22 C23 1.401(13) . ?
C22 H22 0.9500 . ?
C23 C24 1.369(13) . ?
C23 C26 1.510(14) . ?
C24 C25 1.340(12) . ?
C24 H24 0.9500 . ?
C25 H25 0.9500 . ?
C26 C27 1.215(15) . ?
C26 H26 0.9500 . ?
C27 C28 1.517(15) . ?
C27 H27 0.9500 . ?
C28 C29 1.311(15) . ?
C28 C32 1.385(16) . ?
C29 C30 1.348(12) . ?
C29 H29 0.9500 . ?
C30 N2 1.333(11) . ?
C30 H30 0.9500 . ?
N2 C31 1.410(13) . ?
N2 Ni1 2.047(7) 3_754 ?
C31 C32 1.482(15) . ?
C31 H31 0.9500 . ?
C32 H32 0.9500 . ?
loop_
_geom_torsion_atom_site_label_1
_geom_torsion_atom_site_label_2
_geom_torsion_atom_site_label_3
_geom_torsion_atom_site_label_4
_geom_torsion
_geom_torsion_site_symmetry_1
_geom_torsion_site_symmetry_2
_geom_torsion_site_symmetry_3
_geom_torsion_site_symmetry_4
_geom_torsion_publ_flag
C3 C1 C2 C6 -55.7(8) . . . . ?
C4 C1 C2 C6 61.3(7) . . . . ?
C7 C1 C2 C6 -178.0(5) . . . . ?
C4 C1 C3 C1 -58.2(4) . . . 9_566 ?
C2 C1 C3 C1 57.2(4) . . . 9_566 ?
C7 C1 C3 C1 179.8(7) . . . 9_566 ?
C3 C1 C4 C6 56.7(7) . . . 9_566 ?
C2 C1 C4 C6 -61.0(7) . . . 9_566 ?
C7 C1 C4 C6 178.4(6) . . . 9_566 ?
C1 C2 C6 C5 -61.4(7) . . . . ?
C1 C2 C6 C20 175.0(6) . . . . ?
C1 C2 C6 C4 56.2(7) . . . 9_566 ?
C6 C5 C6 C2 60.1(5) 9_566 . . . ?
C6 C5 C6 C20 -176.3(6) 9_566 . . . ?
C6 C5 C6 C4 -59.1(4) 9_566 . . 9_566 ?
C3 C1 C7 C8 -52.4(7) . . . . ?
C4 C1 C7 C8 -173.0(5) . . . . ?
C2 C1 C7 C8 69.4(7) . . . . ?
C3 C1 C7 C12 130.7(6) . . . . ?
C4 C1 C7 C12 10.1(9) . . . . ?
C2 C1 C7 C12 -107.5(7) . . . . ?
C12 C7 C8 C9 0.0 . . . . ?
C1 C7 C8 C9 -176.9(7) . . . . ?
C7 C8 C9 C10 0.0 . . . . ?
C8 C9 C10 C11 0.0 . . . . ?
C8 C9 C10 C13 176.2(10) . . . . ?
C9 C10 C11 C12 0.0 . . . . ?
C13 C10 C11 C12 -176.1(10) . . . . ?
C10 C11 C12 C7 0.0 . . . . ?
C8 C7 C12 C11 0.0 . . . . ?
C1 C7 C12 C11 176.8(7) . . . . ?
C9 C10 C13 C14 165.8(15) . . . . ?
C11 C10 C13 C14 -18(2) . . . . ?
C10 C13 C14 C15 -178.3(12) . . . . ?
C13 C14 C15 C19 173.9(18) . . . . ?
C13 C14 C15 C16 -12(2) . . . . ?
C19 C15 C16 C17 -1.3(18) . . . . ?
C14 C15 C16 C17 -175.3(11) . . . . ?
C15 C16 C17 N1 6.3(16) . . . . ?
C16 C17 N1 C18 -4.4(15) . . . . ?
C16 C17 N1 Ni1 171.4(7) . . . . ?
C17 N1 C18 C19 -2.7(18) . . . . ?
Ni1 N1 C18 C19 -178.4(11) . . . . ?
N1 C18 C19 C15 8(2) . . . . ?
C16 C15 C19 C18 -5(2) . . . . ?
C14 C15 C19 C18 169.4(13) . . . . ?
C2 C6 C20 C21 121.2(7) . . . . ?
C5 C6 C20 C21 -1.2(9) . . . . ?
C4 C6 C20 C21 -118.4(7) 9_566 . . . ?
C2 C6 C20 C25 -57.9(8) . . . . ?
C5 C6 C20 C25 179.7(5) . . . . ?
C4 C6 C20 C25 62.4(8) 9_566 . . . ?
C25 C20 C21 C22 -3.3(10) . . . . ?
C6 C20 C21 C22 177.6(6) . . . . ?
C20 C21 C22 C23 0.1(12) . . . . ?
C21 C22 C23 C24 6.6(13) . . . . ?
C21 C22 C23 C26 178.7(8) . . . . ?
C22 C23 C24 C25 -10.3(14) . . . . ?
C26 C23 C24 C25 176.6(8) . . . . ?
C23 C24 C25 C20 7.2(13) . . . . ?
C21 C20 C25 C24 -0.2(11) . . . . ?
C6 C20 C25 C24 179.0(7) . . . . ?
C24 C23 C26 C27 -175.3(11) . . . . ?
C22 C23 C26 C27 12.3(17) . . . . ?
C23 C26 C27 C28 177.3(8) . . . . ?
C26 C27 C28 C29 -176.8(12) . . . . ?
C26 C27 C28 C32 6.2(17) . . . . ?
C32 C28 C29 C30 6.5(16) . . . . ?
C27 C28 C29 C30 -170.8(9) . . . . ?
C28 C29 C30 N2 -7.7(16) . . . . ?
C29 C30 N2 C31 2.4(12) . . . . ?
C29 C30 N2 Ni1 173.3(6) . . . 3_754 ?
C30 N2 C31 C32 2.3(13) . . . . ?
Ni1 N2 C31 C32 -169.4(7) 3_754 . . . ?
C29 C28 C32 C31 -1.0(15) . . . . ?
C27 C28 C32 C31 176.3(9) . . . . ?
N2 C31 C32 C28 -3.1(15) . . . . ?
loop_
_platon_squeeze_void_nr
_platon_squeeze_void_average_x
_platon_squeeze_void_average_y
_platon_squeeze_void_average_z
_platon_squeeze_void_volume
_platon_squeeze_void_count_electrons
_platon_squeeze_void_content
1 -0.000 -0.000 -0.009 803 279 ' '
2 0.243 0.560 -0.053 3349 1146 ' '
