#------------------------------------------------------------------------------
#$Date: 2020-08-22 02:00:57 +0300 (Sat, 22 Aug 2020) $
#$Revision: 255544 $
#$URL: file:///home/coder/svn-repositories/cod/cif/4/13/51/4135191.cif $
#------------------------------------------------------------------------------
#
# This file is available in the Crystallography Open Database (COD),
# http://www.crystallography.net/
#
# All data on this site have been placed in the public domain by the
# contributors.
#
data_4135191
loop_
_publ_author_name
'Yan, Yong'
'Carrington, Elliot J.'
'P\'etuya, R\'emi'
'Whitehead, George F. S.'
'Verma, Ajay'
'Hylton, Rebecca K.'
'Tang, Chiu C.'
'Berry, Neil G.'
'Darling, George R.'
'Dyer, Matthew S.'
'Antypov, Dmytro'
'Katsoulidis, Alexandros P.'
'Rosseinsky, Matthew J.'
_publ_section_title
;
 Amino Acid Residues Determine the Response of Flexible Metal-Organic
 Frameworks to Guests.
;
_journal_name_full               'Journal of the American Chemical Society'
_journal_paper_doi               10.1021/jacs.0c03853
_journal_year                    2020
_chemical_formula_moiety         'C6 H5 N3 O3 Zn'
_chemical_formula_sum            'C6 H5 N3 O3 Zn'
_chemical_formula_weight         232.50
_space_group_crystal_system      trigonal
_space_group_IT_number           161
_space_group_name_Hall           'R 3 -2"c'
_space_group_name_H-M_alt        'R 3 c :H'
_atom_sites_solution_hydrogens   geom
_atom_sites_solution_primary     direct
_audit_creation_date             2017-12-21
_audit_creation_method
;
Olex2 1.2
(compiled 2017.08.10 svn.r3458 for OlexSys, GUI svn.r5381)
;
_cell_angle_alpha                90
_cell_angle_beta                 90
_cell_angle_gamma                120
_cell_formula_units_Z            18
_cell_length_a                   26.102(2)
_cell_length_b                   26.102(2)
_cell_length_c                   10.1291(5)
_cell_measurement_reflns_used    4296
_cell_measurement_temperature    100
_cell_measurement_theta_max      24.9030
_cell_measurement_theta_min      2.6550
_cell_volume                     5976.5(7)
_computing_cell_refinement       'CrysAlisPro 1.171.38.46 (Rigaku OD, 2015)'
_computing_data_collection       'CrysAlisPro 1.171.38.46 (Rigaku OD, 2015)'
_computing_data_reduction        'CrysAlisPro 1.171.38.46 (Rigaku OD, 2015)'
_computing_molecular_graphics    'Olex2 (Dolomanov et al., 2009)'
_computing_publication_material  'Olex2 (Dolomanov et al., 2009)'
_computing_structure_refinement  'ShelXL (Sheldrick, 2015)'
_computing_structure_solution    'ShelXS (Sheldrick, 2008)'
_diffrn_ambient_temperature      100
_diffrn_detector                 'CCD plate'
_diffrn_measured_fraction_theta_full 0.999
_diffrn_measured_fraction_theta_max 0.999
_diffrn_measurement_details
;
List of Runs (angles in degrees, time in seconds):

  # Type    Start    End  Width  t~exp~   \w     \q     \k     \f   Frames
--------------------------------------------------------------------------
  1  \w   -110.00  15.00   1.00    5.00    --  -20.00 -68.00   0.00  125
  2  \w   -110.00  15.00   1.00    5.00    --  -20.00 -68.00 120.00  125
  3  \w   -110.00  15.00   1.00    5.00    --  -20.00 -68.00 240.00  125
  4  \w   -110.00  15.00   1.00    5.00    --  -20.00 -30.00  90.00  125
;
_diffrn_measurement_device       'abstract diffractometer'
_diffrn_measurement_device_type
'dtrek-CrysAlisPro-abstract goniometer imported rigaku-d*trek images'
_diffrn_measurement_method       '\w scans'
_diffrn_orient_matrix_type
'CrysAlisPro convention (1999,Acta A55,543-557)'
_diffrn_orient_matrix_UB_11      0.0044577000
_diffrn_orient_matrix_UB_12      0.0080478000
_diffrn_orient_matrix_UB_13      0.0677368000
_diffrn_orient_matrix_UB_21      0.0269486000
_diffrn_orient_matrix_UB_22      0.0258949000
_diffrn_orient_matrix_UB_23      -0.0159558000
_diffrn_orient_matrix_UB_31      -0.0153975000
_diffrn_orient_matrix_UB_32      0.0157518000
_diffrn_orient_matrix_UB_33      -0.0083841000
_diffrn_radiation_monochromator  graphite
_diffrn_radiation_probe          x-ray
_diffrn_radiation_type           MoK\a
_diffrn_radiation_wavelength     0.71073
_diffrn_reflns_av_R_equivalents  0.1593
_diffrn_reflns_av_unetI/netI     0.0986
_diffrn_reflns_Laue_measured_fraction_full 0.999
_diffrn_reflns_Laue_measured_fraction_max 0.999
_diffrn_reflns_limit_h_max       31
_diffrn_reflns_limit_h_min       -28
_diffrn_reflns_limit_k_max       26
_diffrn_reflns_limit_k_min       -31
_diffrn_reflns_limit_l_max       12
_diffrn_reflns_limit_l_min       -12
_diffrn_reflns_number            19922
_diffrn_reflns_point_group_measured_fraction_full 1.000
_diffrn_reflns_point_group_measured_fraction_max 1.000
_diffrn_reflns_theta_full        25.006
_diffrn_reflns_theta_max         25.006
_diffrn_reflns_theta_min         2.703
_diffrn_source                   'fine-focus sealed X-ray tube'
_diffrn_source_type              'Enhance (Mo) X-ray Source'
_exptl_absorpt_coefficient_mu    1.834
_exptl_absorpt_correction_T_max  1.00000
_exptl_absorpt_correction_T_min  0.60653
_exptl_absorpt_correction_type   multi-scan
_exptl_absorpt_process_details
;
CrysAlisPro 1.171.38.46 (Rigaku Oxford Diffraction, 2015)
Empirical absorption correction using spherical harmonics,
 implemented in SCALE3 ABSPACK scaling algorithm.
;
_exptl_crystal_colour            white
_exptl_crystal_colour_primary    white
_exptl_crystal_density_diffrn    1.163
_exptl_crystal_description       needle
_exptl_crystal_F_000             2088
_exptl_crystal_preparation       'MeOH Exchanged'
_exptl_crystal_size_max          0.4
_exptl_crystal_size_mid          0.02
_exptl_crystal_size_min          0.02
_refine_diff_density_max         1.624
_refine_diff_density_min         -0.692
_refine_diff_density_rms         0.259
_refine_ls_abs_structure_details
;
 Flack x determined using 601 quotients [(I+)-(I-)]/[(I+)+(I-)]
 (Parsons, Flack and Wagner, Acta Cryst. B69 (2013) 249-259).
;
_refine_ls_abs_structure_Flack   0.03(3)
_refine_ls_extinction_method     none
_refine_ls_goodness_of_fit_ref   1.181
_refine_ls_hydrogen_treatment    constr
_refine_ls_matrix_type           full
_refine_ls_number_parameters     82
_refine_ls_number_reflns         2342
_refine_ls_number_restraints     35
_refine_ls_restrained_S_all      1.172
_refine_ls_R_factor_all          0.1405
_refine_ls_R_factor_gt           0.1158
_refine_ls_shift/su_max          0.000
_refine_ls_shift/su_mean         0.000
_refine_ls_structure_factor_coef Fsqd
_refine_ls_weighting_details
'w=1/[\s^2^(Fo^2^)+(0.1773P)^2^] where P=(Fo^2^+2Fc^2^)/3'
_refine_ls_weighting_scheme      calc
_refine_ls_wR_factor_gt          0.2835
_refine_ls_wR_factor_ref         0.2988
_reflns_Friedel_coverage         0.988
_reflns_Friedel_fraction_full    1.000
_reflns_Friedel_fraction_max     1.000
_reflns_number_gt                1825
_reflns_number_total             2342
_reflns_threshold_expression     'I > 2\s(I)'
_cod_data_source_file            ZnGlyPyr_MeOH_100K.cif
_cod_data_source_block           ZnGlyPyr_MeOH_100K
_cod_original_cell_volume        5976.5(10)
_cod_original_sg_symbol_H-M      'R 3 c'
_cod_database_code               4135191
_shelx_shelxl_version_number     2014/7
_chemical_oxdiff_formula         'Zn C8 H8 N3 O3'
_shelx_space_group_comment
;
The symmetry employed for this shelxl refinement is uniquely defined
by the following loop, which should always be used as a source of
symmetry information in preference to the above space-group names.
They are only intended as comments.
;
_reflns_odcompleteness_completeness 99.92
_reflns_odcompleteness_iscentric 1
_reflns_odcompleteness_theta     24.96
_olex2_refinement_description
;
1. Fixed Uiso
 At 1.2 times of:
  All C(H) groups, All C(H,H) groups, All N(H) groups
2. Rigid bond restraints
 O1, Zn1, N1, O2, N2
 with sigma for 1-2 distances of 0.01 and sigma for 1-3 distances of 0.01
3. Uiso/Uaniso restraints and constraints
O1 \\sim Zn1 \\sim O2 \\sim N2 \\sim N1: within 2A with sigma of 0.04 and sigma
for terminal atoms of 0.08
Uanis(C5) = Uanis(C6)
Uanis(C4) = Uanis(O3)
Uanis(N2) = Uanis(N1)
Uanis(C1) = Uanis(N1) = Uanis(N2) = Uanis(C2) = Uanis(C3)
4.a Secondary CH2 refined with riding coordinates:
 C5(H5A,H5B)
4.b Aromatic/amide H refined with riding coordinates:
 N3(H3), C2(H2), C1(H1)
;
_shelx_res_file
;
    yy_zn_gly_pyr_meoh_slowheat_100k.res created by SHELXL-2014/7

TITL YY_Zn_Gly_Pyr_MeOH_SlowHeat_100K in R3c #161
REM reset to R3c #161
CELL 0.71073 26.102073 26.102073 10.129056 90 90 120
ZERR 18 0.002032 0.002032 0.000514 0 0 0
LATT -3
SYMM -Y,+X-Y,+Z
SYMM +Y-X,-X,+Z
SYMM +Y-X,+Y,0.5+Z
SYMM +X,+X-Y,0.5+Z
SYMM -Y,-X,0.5+Z
SFAC C H N O Zn
UNIT 108 90 54 54 18
DELU O1 Zn1 N1 O2 N2
SIMU O1 Zn1 O2 N2 N1
EADP C5 C6
EADP C4 O3
EADP N2 N1
EADP C1 N1 N2 C2 C3

L.S. 16
PLAN  20
TEMP -173.15
BOND
fmap 2 53
acta
REM <olex2.extras>
REM <HklSrc "%.\\YY_Zn_Gly_Pyr_MeOH_SlowHeat_100K.hkl">
REM </olex2.extras>

WGHT    0.177300
FVAR       0.57179
ZN1   5   -0.637743   -0.981340   -0.131690    11.00000    0.04580    0.04464 =
         0.00520   -0.00058   -0.00172    0.02166
O1    4   -0.582707   -0.932693   -0.271038    11.00000    0.04892    0.03977 =
         0.01305   -0.00042    0.00272    0.01898
N2    3   -0.610222   -0.927583    0.021930    11.00000    0.04176    0.04470 =
         0.01038   -0.00381   -0.00531    0.01665
N1    3   -0.722010   -1.012951   -0.185149    11.00000    0.04176    0.04470 =
         0.01038   -0.00381   -0.00531    0.01665
O2    4   -0.621077   -1.046643   -0.111639    11.00000    0.05960    0.05070 =
         0.00993    0.00377    0.00641    0.02980
O3    4   -0.547208   -0.772986    0.305237    11.00000    0.06801    0.04765 =
         0.01194   -0.00350   -0.00056    0.03142
N3    3   -0.535589   -0.743848    0.093432    11.00000    0.05455    0.04683 =
         0.00884   -0.00378   -0.00356    0.02185
AFIX  43
H3    2   -0.532708   -0.752382    0.010692    11.00000   -1.20000
AFIX   0
C4    1   -0.551488   -0.786840    0.187972    11.00000    0.06801    0.04765 =
         0.01194   -0.00350   -0.00056    0.03142
C2    1   -0.580367   -0.870416    0.020392    11.00000    0.04176    0.04470 =
         0.01038   -0.00381   -0.00531    0.01665
AFIX  43
H2    2   -0.564754   -0.847490   -0.057482    11.00000   -1.20000
AFIX   0
C3    1   -0.573877   -0.846784    0.143957    11.00000    0.04176    0.04470 =
         0.01038   -0.00381   -0.00531    0.01665
C6    1   -0.579740   -0.683478    0.137452    11.00000    0.05740    0.05271 =
         0.01099    0.00516   -0.00383    0.03750
C5    1   -0.523384   -0.684603    0.126328    11.00000    0.05740    0.05271 =
         0.01099    0.00516   -0.00383    0.03750
AFIX  23
H5A   2   -0.498206   -0.656547    0.056996    11.00000   -1.20000
H5B   2   -0.501646   -0.672036    0.211063    11.00000   -1.20000
AFIX   0
C1    1   -0.771463   -1.040859   -0.110241    11.00000    0.04176    0.04470 =
         0.01038   -0.00381   -0.00531    0.01665
AFIX  43
H1    2   -0.772271   -1.045978   -0.017260    11.00000   -1.20000
AFIX   0
HKLF 4

REM  YY_Zn_Gly_Pyr_MeOH_SlowHeat_100K in R3c #161
REM R1 =  0.1158 for    1825 Fo > 4sig(Fo)  and  0.1405 for all    2342 data
REM     82 parameters refined using     35 restraints

END

WGHT      0.1782      0.0000

REM Highest difference peak  1.624,  deepest hole -0.692,  1-sigma level  0.259
Q1    1  -0.6771 -1.0083 -0.1334  11.00000  0.05    1.62
Q2    1  -0.6429 -1.0175 -0.1276  11.00000  0.05    1.57
Q3    1  -0.6272 -1.0066 -0.1296  11.00000  0.05    1.56
Q4    1  -0.6320 -0.9442 -0.1316  11.00000  0.05    1.48
Q5    1  -0.6100 -0.9912 -0.1315  11.00000  0.05    1.38
Q6    1  -0.4323 -0.5272  0.1398  11.00000  0.05    1.34
Q7    1  -0.6658 -0.9770 -0.1336  11.00000  0.05    1.30
Q8    1  -0.6030 -0.9503 -0.1306  11.00000  0.05    1.28
Q9    1  -0.5999 -0.8200  0.2982  11.00000  0.05    0.97
Q10   1  -0.4814 -0.5566 -0.1144  11.00000  0.05    0.95
Q11   1  -0.4206 -0.5771 -0.1233  11.00000  0.05    0.94
Q12   1  -0.4493 -0.5581 -0.0833  11.00000  0.05    0.89
Q13   1  -0.4649 -0.5185  0.0895  11.00000  0.05    0.87
Q14   1  -0.4487 -0.5736 -0.1523  11.00000  0.05    0.86
Q15   1  -0.7061 -0.8700 -0.1621  11.00000  0.05    0.85
Q16   1  -0.7207 -0.8806 -0.0199  11.00000  0.05    0.79
Q17   1  -0.4132 -0.6302 -0.1662  11.00000  0.05    0.77
Q18   1  -0.4126 -0.6296  0.4257  11.00000  0.05    0.71
Q19   1  -0.5647 -0.7367  0.1059  11.00000  0.05    0.68
Q20   1  -0.3988 -0.6183  0.4045  11.00000  0.05    0.68
;
_shelx_res_checksum              97453
_shelx_hkl_file
;
   0   0 -12 15360.8 2975.12   1
   0   0  -9 390.043 755.801   1
   0   0  -6 85207.8 3799.98   2
   0   0  -6 82317.1 4363.51   1
   0   0  -6 82704.8 3731.86   3
   0   0  -3-21.0546 322.084   2
   0   0  -3 298.841 354.128   1
   0   0  -3-368.533 475.237   4
   0   0  -3-84.7815 271.017   3
   0   0   3-321.169 455.246   1
   0   0   3-39.2673 356.683   3
   0   0   3 298.043 375.235   2
   0   0   3-915.085 573.750   4
   0   0   6 88334.1 4038.35   2
   0   0   6 79051.3 4361.71   4
   0   0   9-301.736 748.083   4
   0   0   9 537.469 731.129   2
   0   0  12 20127.2 3466.73   4
   0   0  12 20163.9 2971.11   2
   0   1 -10 662.979 891.866   1
   1  -1 -10-260.505 1189.01   1
  -1   0 -10 176.951 829.838   1
  -1   0  -7 559.456 529.786   1
   0   1  -7 546.901 572.019   3
   0   1  -7 396.146 825.181   1
   1  -1  -7 581.254 926.448   1
  -1   0  -4 8622.33 1025.48   3
   1  -1  -4 10174.4 1353.70   1
   0   1  -4 8903.00 1003.20   3
  -1   0  -4 9567.56 1260.53   1
   1  -1  -4 11550.9 1181.53   3
   0   1  -4 8622.81 1177.00   1
   0   1  -4 9850.48 1074.37   2
   1  -1  -4 9209.89 985.797   2
   0   1  -4 10727.1 1293.77   4
   0   1  -1 162.561 163.992   2
  -1   0  -1 97.2170 117.876   3
   0   1  -1-107.237 135.360   1
   1  -1  -1 191.922 178.022   4
   0   1  -1 149.214 161.513   4
   1  -1  -1-137.493 140.276   1
  -1   0  -1 124.442 163.011   1
   1  -1   2 7864.22 770.552   2
   0   1   2 7876.24 777.404   3
   1  -1   2 8445.42 672.120   3
  -1   0   2 8995.11 818.053   4
  -1   0   2 7254.18 788.757   1
   1  -1   2 7672.06 850.267   4
  -1   0   2 9034.34 740.112   2
   0   1   2 7527.13 860.164   4
   0   1   2 8045.23 788.441   1
   1  -1   2 8584.30 843.885   1
   0   1   2 8178.47 667.308   2
   0   1   5 647.956 611.473   3
  -1   0   5 738.157 544.794   2
   1  -1   5 336.624 431.097   1
   0   1   5-188.647 448.493   4
   0   1   5-651.697 495.947   1
   0   1   5 307.218 410.401   2
   1  -1   5-167.040 523.161   3
   1  -1   5-1055.43 899.666   4
  -1   0   5 511.618 440.520   4
   1  -1   5 246.383 445.369   2
  -1   0   5 706.754 526.243   1
   1  -1   8 1374.80 713.787   2
  -1   0   8 1491.76 855.776   2
  -1   0   8 493.981 900.888   4
   0   1   8 654.857 872.799   2
   0   1   8-66.9887 672.111   4
   1  -1   8 647.481 704.407   4
   0   1  11 294.077 1122.10   2
   1  -1  11 478.493 1030.26   4
   1  -1  11 883.125 1156.58   2
   0   1  11 1011.44 1670.61   4
  -1   0  11 876.311 1310.77   4
  -1   0  11 1350.03 1108.40   2
   1   0 -11 1488.74 1020.18   1
  -1   1 -11 420.632 1066.09   1
   0  -1 -11 1809.12 1501.68   1
  -1   1  -8 784.726 884.540   1
   0  -1  -8 803.972 574.313   1
   1   0  -8 482.364 756.780   1
  -1   1  -5 153.108 406.843   1
   1   0  -5 81.8667 494.314   2
  -1   1  -5-373.100 400.186   2
   1   0  -5-502.564 532.704   4
   1   0  -5-298.737 335.067   3
   0  -1  -5 517.320 1127.47   3
  -1   1  -5 350.656 390.893   3
   0  -1  -5-213.440 504.143   1
   1   0  -5 686.242 701.986   1
   1   0  -2 8205.64 802.910   4
  -1   1  -2 8598.17 660.857   3
  -1   1  -2 8277.17 790.868   2
  -1   1  -2 7048.07 749.707   1
   0  -1  -2 9322.55 834.943   3
   1   0  -2 9390.87 727.243   2
   1   0  -2 9441.07 893.599   1
  -1   1  -2 9271.38 913.955   4
   0  -1  -2 8897.50 882.468   1
  -1   1   1-97.5450 117.995   4
   0  -1   1 47.6374 162.240   4
  -1   1   1 6.17119 137.346   1
   1   0   1-214.169 127.279   3
   0  -1   1 392.920 210.935   2
   0  -1   1-82.7915 184.100   1
   1   0   1 4.36650 151.096   1
  -1   1   4 10074.2 1307.50   1
   1   0   4 7014.06 948.821   2
   1   0   4 10938.3 1301.80   1
  -1   1   4 10575.3 1098.47   2
   1   0   4 11163.3 1426.51   4
   0  -1   4 10650.0 1383.27   4
   0  -1   4 10014.1 1140.38   2
  -1   1   4 11352.7 1317.82   4
   0  -1   4 9710.86 1242.00   1
   1   0   4 10545.5 1187.15   3
   1   0   7-213.512 644.752   4
   0  -1   7-105.836 533.066   2
   1   0   7 178.171 608.993   2
   0  -1   7 465.715 889.219   4
  -1   1   7 411.457 609.980   4
  -1   1   7-134.709 528.365   2
   1   0  10 1156.56 1321.69   4
  -1   1  10 1299.34 1442.31   4
  -1   1  10 1619.69 1023.77   2
   0  -1  10 903.299 852.291   4
   1   0  10 491.143 809.771   2
   0  -1  10 898.178 1067.44   2
   2  -2 -11-1674.39 1142.66   1
   0   2 -11 1829.19 1293.96   1
  -2   0 -11 1191.09 1140.39   1
  -2   0  -8 4988.96 1427.99   1
   2  -2  -8 2892.66 1144.29   1
   0   2  -8 5049.97 1344.53   1
   2  -2  -5 319.176 564.575   3
   2  -2  -5-17.5707 319.404   2
   0   2  -5-281.603 522.210   1
  -2   0  -5 34.4800 441.372   1
   2  -2  -5 694.065 429.828   1
   0   2  -5-319.326 439.905   2
   0   2  -5-13.3120 592.679   4
   0   2  -5 822.127 476.224   3
  -2   0  -5-313.179 369.485   3
  -2   0  -2 18175.7 1176.72   3
   0   2  -2 19248.0 1246.98   2
   2  -2  -2 18986.8 849.713   2
   2  -2  -2 18151.3 1267.29   1
   0   2  -2 19176.7 1288.94   4
   0   2  -2 17528.9 836.748   3
  -2   0  -2 18901.3 1167.75   1
   2  -2  -2 19110.8 1151.40   4
   0   2   1-51.2434 133.897   1
  -2   0   1 296.939 198.652   1
   2  -2   1 310.470 244.204   2
  -2   0   1 183.528 183.505   4
   2  -2   1-33.9089 148.236   1
  -2   0   1-94.6422 130.834   2
   0   2   1-189.884 219.640   3
   2  -2   1 55.1581 202.557   4
   0   2   4 7259.20 1137.12   1
   0   2   4 8503.33 1039.15   2
   0   2   4 7799.97 1104.76   3
  -2   0   4 9162.20 1071.58   2
  -2   0   4 9081.68 1149.08   4
   0   2   4 6044.36 1024.39   4
  -2   0   4 6259.22 1087.84   1
   2  -2   4 9144.25 1183.08   2
   2  -2   4 7696.04 936.493   3
   2  -2   4 8436.51 1174.20   1
   2  -2   4 8686.47 1236.99   4
  -2   0   7-205.606 586.125   2
   0   2   7-854.958 921.841   4
  -2   0   7 177.577 713.539   4
   2  -2   7 183.052 516.838   2
   2  -2   7 398.929 604.009   4
   0   2   7 962.197 758.976   2
   0   2  10 2035.44 1111.53   2
  -2   0  10 3480.96 1255.79   2
   0   2  10 1766.65 1291.90   4
   2  -2  10 2124.14 1401.64   4
   2  -2  10 3948.09 1277.60   2
  -2   0  10 2764.83 1352.56   4
  -2   1 -12 3429.10 1498.16   1
   1   1 -12 2236.40 1329.33   1
  -1   2 -12 2682.44 1557.09   1
   2  -1 -12 6096.03 2047.84   1
   1  -2 -12 2590.97 1573.74   1
  -1  -1 -12 1296.73 1377.97   1
   1   1  -9 18741.5 2712.63   1
  -1   2  -9 16099.1 2480.89   1
   2  -1  -9 15298.1 2412.53   1
  -2   1  -9 16597.2 2353.69   1
  -1  -1  -9 14101.5 2204.96   1
   1  -2  -9 12571.0 2283.21   1
  -1   2  -6 24531.3 2178.55   2
  -1   2  -6 22683.9 2253.24   1
   1   1  -6 21585.5 1889.67   3
   1  -2  -6 24471.5 2486.63   1
   2  -1  -6 21820.7 2054.06   3
   2  -1  -6 22782.9 1936.68   2
  -2   1  -6 22057.3 2207.57   1
   2  -1  -6 24240.7 2393.31   1
   1   1  -6 28944.2 2281.53   2
  -1  -1  -6 23710.6 2267.91   1
  -1   2  -6 22128.5 1856.80   3
  -2   1  -6 22289.8 2052.56   3
   1   1  -6 24684.7 2447.11   1
   1  -2  -6 19167.8 1971.27   3
  -1  -1  -6 22948.1 2073.88   3
  -1   2  -3 67611.7 2733.97   1
   1  -2  -3 69573.4 2163.16   2
   2  -1  -3 70639.4 2814.67   4
   2  -1  -3 69953.9 2318.95   2
   1   1  -3 69714.7 2856.57   4
   1  -2  -3 70248.5 2722.88   3
   2  -1  -3 71198.1 2665.16   3
   1   1  -3 73345.4 2645.53   2
  -1  -1  -3 65553.6 2732.03   1
   1  -2  -3 69810.9 2925.98   1
  -1   2  -3 71174.9 2719.17   2
  -2   1  -3 67794.9 2681.29   1
   1   1  -3 66880.4 2795.41   1
   1   1  -3 67478.7 2284.96   3
  -1   2  -3 69756.7 2175.02   3
   2  -1  -3 68024.6 2876.39   1
  -1   2  -3 69555.3 2985.11   4
  -2   1  -3 69816.5 2414.53   3
  -1  -1  -3 70215.5 2673.50   3
  -1   2   3 71033.8 2935.99   1
  -1   2   3 66576.3 2792.50   4
   1  -2   3 71029.8 2210.18   3
   1   1   3 71673.5 2537.61   2
   1  -2   3 75246.0 2918.21   1
   1   1   3 73302.1 2835.21   1
   1  -2   3 71800.1 2989.71   4
  -1  -1   3 72350.7 2871.43   4
  -1  -1   3 74434.9 2656.94   2
  -1   2   3 71626.9 2238.41   2
  -2   1   3 74426.0 2814.18   4
   1   1   3 75118.6 2788.63   3
  -1   2   3 68378.7 2752.23   3
  -2   1   3 65463.8 2850.70   1
   2  -1   3 71757.4 2497.35   3
  -1  -1   3 70693.0 2925.92   1
   2  -1   3 71599.3 2767.21   1
   1  -2   3 73046.7 2795.44   2
   2  -1   3 70779.4 2741.72   2
  -2   1   3 74071.6 2380.73   2
   2  -1   3 69384.7 3015.55   4
  -1  -1   6 21277.2 2261.58   4
  -1   2   6 26491.3 2124.46   2
  -2   1   6 26554.5 2495.87   4
   1   1   6 21105.8 2304.80   4
   1  -2   6 25419.8 2307.21   2
  -1  -1   6 25354.2 2162.73   2
  -1   2   6 24822.0 2466.53   4
   1   1   6 25625.0 2203.60   2
   1   1   6 24805.2 2282.03   3
   2  -1   6 28833.9 2358.11   3
   2  -1   6 24108.4 2504.38   4
  -2   1   6 24571.8 2044.53   2
   2  -1   6 25905.6 2317.75   2
   1  -2   6 22822.1 2381.54   4
   2  -1   9 19587.3 2656.11   2
  -1   2   9 16909.1 2588.43   4
  -2   1   9 17812.2 2705.04   4
   1  -2   9 18983.8 2712.52   4
   1   1   9 18633.8 2753.36   4
   1   1   9 23713.0 2667.51   2
  -1  -1   9 19138.2 2414.08   2
  -1   2   9 19113.5 2290.17   2
   2  -1   9 17536.9 2620.65   4
  -2   1   9 15474.7 2051.17   2
  -1  -1   9 16071.2 2582.32   4
   1  -2   9 19867.4 2516.46   2
  -1  -1  12 3807.79 1424.65   2
  -2   1  12 3964.86 1551.51   2
   1  -2  12 2717.24 1531.45   4
  -1   2  12 6387.35 2198.57   4
   2  -1  12 7112.00 1977.02   2
   2  -1  12 3520.56 1922.81   4
  -2   1  12 3515.80 1972.07   4
  -1   2  12 4580.15 1543.46   2
  -1  -1  12 1851.34 1814.09   4
   1   1  12 5446.37 1704.95   2
   1   1  12 5757.33 2140.11   4
   1  -2  12 5023.30 1861.18   2
   2   0 -10 1231.10 981.201   1
   0  -2 -10 2081.10 1136.42   1
  -2   2 -10 1862.92 1134.37   1
  -2   2  -7 371.523 590.916   3
   2   0  -7 1132.47 779.829   1
   0  -2  -7-373.354 755.258   1
  -2   2  -7 845.353 778.053   1
   2   0  -7 254.628 530.851   3
   2   0  -4 8308.66 1145.58   4
   2   0  -4 6938.53 1120.50   1
   0  -2  -4 7945.43 1156.53   3
  -2   2  -4 7734.38 1089.32   2
  -2   2  -4 6816.95 1026.07   1
   2   0  -4 8629.87 1048.23   2
   0  -2  -4 7187.43 1147.50   1
   2   0  -4 6267.80 947.131   3
  -2   2  -4 8357.24 922.883   3
   2   0  -1-121.171 161.721   1
  -2   2  -1 321.818 245.365   4
   2   0  -1-275.741 212.687   2
   0  -2  -1 165.706 243.053   3
  -2   2  -1-32.6197 135.876   1
   2   0  -1 99.5417 165.865   4
   0  -2  -1-28.8589 170.391   1
  -2   2  -1 170.687 202.676   2
  -2   2   2 20274.3 1379.89   1
   2   0   2 20640.6 1191.12   3
   2   0   2 20784.0 1213.46   1
  -2   2   2 21435.8 1229.58   4
   0  -2   2 21441.1 1314.56   2
  -2   2   2 20335.8 883.156   2
   0  -2   2 19031.5 1258.12   1
  -2   2   5 1051.66 763.919   4
   2   0   5-242.374 472.868   2
  -2   2   5 168.244 457.177   2
  -2   2   5 528.261 491.707   1
   0  -2   5-754.444 584.174   2
   0  -2   5 1003.47 718.005   1
   2   0   5-660.649 519.689   3
   2   0   5 129.667 482.099   1
   2   0   5-345.546 596.861   4
   0  -2   5-1335.36 756.302   4
   0  -2   8 5584.81 1305.05   2
  -2   2   8 5689.59 1231.38   2
  -2   2   8 5247.76 1322.64   4
   0  -2   8 6942.15 1617.78   4
   2   0   8 6071.91 1368.91   2
   2   0   8 5795.60 1475.47   4
  -2   2  11 253.554 1083.74   4
   2   0  11 1488.69 1489.11   4
   2   0  11 242.025 1091.52   2
  -2   2  11 420.476 1041.44   2
   0  -2  11 532.214 1020.61   4
   0  -2  11 421.184 841.773   2
   0   3  -9 383.779 694.329   1
  -3   0  -9 905.847 878.126   1
   3  -3  -9-68.0840 736.897   1
   0   3  -6 103884. 3834.70   3
   3  -3  -6 95774.6 3699.60   2
  -3   0  -6 83897.7 4312.85   1
   0   3  -6 104078. 4970.98   1
   3  -3  -6 94563.7 4860.31   1
  -3   0  -6 94301.0 4373.61   3
   3  -3  -6 90801.2 4446.98   3
  -3   0  -3-18.8403 330.869   1
   0   3  -3 400.149 454.784   1
   3  -3  -3 175.887 394.465   1
  -3   0  -3-64.8857 402.112   3
   0   3  -3 32.6268 222.381   3
   0   3  -3 227.171 348.979   4
   3  -3  -3 343.233 315.190   2
   0   3  -3-540.114 460.866   2
   3  -3  -3 378.278 424.734   3
   3  -3   0 95007.2 1513.91   1
  -3   0   0 96687.5 1612.63   4
  -3   0   0 88358.3 1704.81   3
   0   3   0 91109.2 1850.50   2
   0   3   0 87945.6 1751.78   3
  -3   0   0 97086.9 1916.36   2
   0   3   0 97726.0 1681.84   4
  -3   0   3 39.0483 260.347   2
   3  -3   3 279.718 381.476   2
  -3   0   3-333.570 492.046   1
   3  -3   3 6.23241 258.074   3
  -3   0   3-742.506 419.818   4
   0   3   3-86.1311 412.061   3
   3  -3   3 263.762 430.910   1
   0   3   3 497.966 501.504   1
   3  -3   3-171.907 429.067   4
   3  -3   6 63381.4 3258.27   3
  -3   0   6 62105.4 3742.13   4
  -3   0   6 64269.4 3321.18   2
   0   3   6 67541.6 3884.75   3
   0   3   6 63332.7 3292.49   2
   0   3   6 56063.7 3859.88   4
   3  -3   6 58709.0 3966.03   4
   3  -3   6 56298.8 3627.79   2
  -3   0   9 554.001 732.470   2
   0   3   9 384.054 795.400   2
   3  -3   9 1182.70 1036.40   4
   3  -3   9 587.110 1232.36   2
   0   3   9-1252.08 1073.66   4
  -3   0   9 1948.38 1206.31   4
  -2  -1 -10 1865.71 1416.82   1
  -1   3 -10-23.8182 893.448   1
   3  -2 -10 699.427 1153.74   1
  -3   1 -10-361.250 852.304   1
   1   2 -10-207.144 830.230   1
   2  -3 -10 1220.79 1134.07   1
  -1   3  -7 11081.1 1822.27   1
  -3   1  -7 13522.9 1900.14   1
   2  -3  -7 11339.3 1867.03   1
   1   2  -7 12311.3 1952.28   1
  -1   3  -7 11685.9 1506.15   3
  -2  -1  -7 13562.6 2018.02   1
   1   2  -7 10069.5 1365.77   3
   3  -2  -7 10819.8 1838.18   1
   3  -2  -7 12617.4 1565.58   2
   2  -3  -4 483.398 574.982   1
   1   2  -4-247.775 353.304   3
  -1   3  -4 539.502 628.683   1
  -2  -1  -4-611.101 512.125   1
  -3   1  -4 371.559 462.487   1
  -1   3  -4 186.210 335.504   3
  -1   3  -4 281.937 445.535   4
   2  -3  -4 1298.08 631.900   3
  -2  -1  -4 372.971 472.609   3
  -1   3  -4 6.87612 405.677   2
   3  -2  -4-529.246 472.693   4
  -3   1  -4 169.248 372.615   3
   1   2  -4 59.3263 505.050   1
   1   2  -4-760.079 478.153   4
   3  -2  -4 472.413 355.915   2
   3  -2  -4 478.024 506.866   1
   2  -3  -4 207.200 316.521   2
   3  -2  -4 337.409 538.828   3
   1   2  -4 684.877 482.959   2
  -1   3  -1 9098.61 762.748   2
   1   2  -1 8911.50 670.915   1
   1   2  -1 8600.11 685.304   4
   3  -2  -1 8624.92 513.268   4
  -2  -1  -1 7771.30 679.627   3
  -3   1  -1 9121.42 610.777   3
  -2  -1  -1 8221.45 526.322   1
  -1   3  -1 8464.75 682.969   4
   3  -2  -1 9241.24 465.430   2
   1   2  -1 8244.22 382.955   3
   1   2  -1 8369.04 681.480   2
   3  -2  -1 8520.76 677.931   1
   2  -3  -1 8252.82 656.174   1
  -3   1  -1 8384.66 500.771   1
   3  -2   2 15934.7 1223.29   2
  -2  -1   2 18940.8 1290.42   1
  -3   1   2 17221.8 1291.91   1
   2  -3   2 16623.7 1114.90   1
   2  -3   2 17424.9 1295.95   4
   3  -2   2 16244.4 1304.54   4
   1   2   2 16919.5 1144.96   1
  -3   1   2 16918.3 949.597   2
  -1   3   2 18067.2 1209.06   1
   2  -3   2 17539.8 1266.09   2
  -1   3   2 18298.7 1352.73   3
  -2  -1   2 16892.2 1157.80   4
  -2  -1   2 16700.8 1071.92   2
   1   2   2 16904.1 1239.41   3
   3  -2   2 16213.6 985.084   3
  -3   1   2 18357.9 1109.36   4
   3  -2   2 17554.9 1104.65   1
   2  -3   2 16571.7 763.084   3
   2  -3   5 478.098 625.466   4
   2  -3   5 877.193 530.891   1
  -3   1   5 406.526 398.713   2
   3  -2   5-183.306 550.020   2
  -3   1   5 1060.00 684.559   4
   3  -2   5 273.425 393.177   3
   1   2   5 392.892 560.031   2
   3  -2   5-240.479 639.405   4
  -2  -1   5 154.271 412.658   2
  -2  -1   5-129.010 526.033   1
   2  -3   5 182.334 337.115   3
   1   2   5 1330.74 576.504   4
  -1   3   5 906.619 586.554   2
   3  -2   5 340.220 432.678   1
  -1   3   5-203.530 543.832   1
   1   2   5 319.438 493.673   1
  -3   1   5 1077.37 726.767   1
  -2  -1   5 448.947 553.423   4
  -1   3   5 178.169 501.380   4
   2  -3   5 39.8603 425.565   2
   1   2   5 509.698 700.259   3
  -3   1   8-1166.28 787.691   4
   2  -3   8-468.279 823.328   4
   1   2   8-641.834 779.368   2
  -1   3   8 847.104 824.409   4
  -2  -1   8-407.027 773.107   2
  -2  -1   8-867.707 847.951   4
  -3   1   8 604.126 598.376   2
  -1   3   8-178.360 646.552   2
   3  -2   8-79.7200 773.537   2
   1   2   8 364.486 825.304   4
   2  -3   8 469.298 712.562   2
   3  -2   8 653.013 900.841   4
  -1   3  11 383.157 849.708   2
  -3   1  11 3148.75 1549.02   4
  -2  -1  11 644.255 1111.81   2
  -2  -1  11 1568.06 1367.04   4
  -3   1  11 94.0787 775.298   2
   3  -2  11 89.0990 965.228   2
  -1   3  11 184.935 1302.75   4
   1   2  11-493.772 1045.74   2
   2  -3  11-102.032 1283.03   2
   2  -3  11 965.474 1031.62   4
   3  -2  11 1516.16 1558.53   4
   1   2  11 2002.76 1534.36   4
   3  -1 -11 2647.12 1446.87   1
  -3   2 -11 1548.09 1220.46   1
  -1  -2 -11 756.284 985.801   1
  -2   3 -11 2700.65 1598.33   1
   2   1 -11-1254.07 931.650   1
   1  -3 -11-1468.44 1078.34   1
   2   1  -8 736.001 885.860   1
   3  -1  -8 411.110 742.073   1
  -1  -2  -8-107.681 703.165   1
   1  -3  -8 213.867 778.643   1
  -3   2  -8 652.374 880.909   1
  -2   3  -8-813.237 925.419   1
   2   1  -5-271.518 381.837   2
  -1  -2  -5 408.870 396.050   3
   3  -1  -5 184.545 363.975   3
  -2   3  -5 201.298 558.954   2
   2   1  -5-7.35553 522.844   1
  -1  -2  -5-514.356 627.366   1
   3  -1  -5 198.529 449.171   2
  -2   3  -5 442.789 448.221   3
  -3   2  -5 523.071 535.035   1
  -2   3  -5 576.981 563.968   4
   3  -1  -5 618.032 701.778   1
  -3   2  -5 115.755 393.229   3
  -2   3  -5 382.434 501.931   1
   1  -3  -5-78.4690 447.341   3
   2   1  -5 643.346 457.157   3
   1  -3  -5 137.909 473.818   1
   3  -1  -5 121.211 495.404   4
   2   1  -5 897.235 562.974   4
  -2   3  -2 18925.9 1205.82   1
  -1  -2  -2 17190.4 1250.03   3
   2   1  -2 16918.8 1230.72   1
   3  -1  -2 17141.8 1086.21   4
  -3   2  -2 16873.4 1104.41   1
   3  -1  -2 18068.9 1274.65   1
   2   1  -2 17772.7 1275.15   4
   3  -1  -2 17758.8 995.375   2
  -1  -2  -2 17099.3 1160.76   1
  -2   3  -2 17774.4 1268.64   2
  -3   2  -2 18011.8 986.870   3
  -2   3  -2 18749.3 1329.89   4
   1  -3  -2 18551.3 1221.09   1
   1  -3  -2 19142.4 1359.24   3
  -2   3  -2 16266.3 735.470   3
   2   1  -2 19954.2 1210.79   2
   3  -1   1 8871.57 608.679   3
   1  -3   1 8010.64 672.631   4
   3  -1   1 9160.54 530.518   1
   2   1   1 8466.50 705.583   3
  -1  -2   1 8350.35 630.614   4
   2   1   1 8872.15 530.352   1
  -3   2   1 9627.29 707.979   1
  -3   2   1 9064.54 440.008   2
  -3   2   1 8637.97 492.289   4
  -1  -2   1 7828.94 373.481   3
  -1  -2   1 8701.91 688.930   2
  -1  -2   1 8866.45 679.745   1
  -2   3   1 7708.20 618.540   1
   1  -3   1 8633.45 761.120   2
  -2   3   4 185.115 374.660   4
   3  -1   4 356.526 394.386   2
   1  -3   4 337.588 414.203   2
   3  -1   4 711.199 502.812   3
   3  -1   4-47.4033 472.491   4
  -2   3   4 460.096 372.505   2
  -1  -2   4-95.1879 507.646   4
   2   1   4 316.850 406.320   1
  -3   2   4 396.446 767.097   1
  -1  -2   4 93.4810 416.048   2
  -3   2   4 476.519 293.782   2
   3  -1   4 312.760 348.030   1
   2   1   4-50.3850 527.388   2
   1  -3   4-515.375 483.450   4
  -2   3   4 292.041 459.235   1
  -3   2   4 1114.97 636.127   4
  -1  -2   4-874.007 668.283   1
   2   1   4 685.780 505.824   3
   1  -3   4 138.535 469.815   1
   2   1   7 13338.7 2084.58   4
  -2   3   7 13237.4 1890.09   4
  -3   2   7 13389.3 1539.47   2
   2   1   7 16123.9 2029.01   2
   1  -3   7 15417.5 2223.51   4
   2   1   7 14634.7 1975.37   3
  -2   3   7 13057.1 1554.61   2
  -1  -2   7 15363.8 1961.96   2
  -3   2   7 14608.7 2096.50   4
  -1  -2   7 16339.9 2170.10   4
   3  -1   7 13691.1 1807.11   3
   1  -3   7 15567.2 2013.96   2
   3  -1   7 10759.3 1838.68   4
   3  -1   7 13827.0 1947.15   2
   1  -3  10 713.301 827.234   4
  -3   2  10-146.417 893.549   4
  -1  -2  10-85.5559 780.258   2
   3  -1  10 947.981 1261.87   4
   1  -3  10-431.193 991.805   2
  -1  -2  10 965.184 1088.12   4
  -2   3  10 1815.50 1458.27   4
   3  -1  10 1521.24 1117.25   2
   2   1  10-1029.78 1186.16   4
  -2   3  10 920.422 922.643   2
  -3   2  10 246.470 842.151   2
   2   1  10 383.863 1137.71   2
   3   0  -9 167.959 746.186   1
  -3   3  -9 466.545 949.633   1
   0  -3  -9-633.379 761.857   1
   3   0  -6 53271.2 3090.50   2
   3   0  -6 53893.5 3670.82   1
   3   0  -6 54446.3 3158.50   3
  -3   3  -6 56622.7 3039.27   3
   0  -3  -6 51020.7 3522.77   1
  -3   3  -6 51583.2 3406.07   1
  -3   3  -3-239.800 290.503   3
   3   0  -3 536.553 532.031   4
   3   0  -3-228.102 287.069   2
   0  -3  -3-187.370 383.517   3
  -3   3  -3-106.366 310.048   2
   3   0  -3-327.990 443.840   1
  -3   3  -3 410.724 502.152   1
  -3   3  -3 254.493 502.925   4
   0  -3  -3-380.064 468.763   1
   0  -3   0 96525.7 1847.41   2
   0  -3   0 91744.3 1766.93   3
   3   0   0 103274. 1960.93   2
   3   0   0 96495.0 1812.49   3
   0  -3   0 101676. 1653.19   4
   3   0   0 99838.7 1639.81   4
   3   0   3-15.0621 335.986   1
   3   0   3 291.807 412.743   3
  -3   3   3 382.233 204.686   2
  -3   3   3 603.056 421.007   4
   0  -3   3 163.515 387.580   1
  -3   3   3 33.8513 370.552   1
   0  -3   3 449.052 333.040   2
   0  -3   3-40.7027 407.336   4
   3   0   6 100439. 5207.53   4
   0  -3   6 112083. 4843.99   2
   0  -3   6 99404.9 4937.70   4
  -3   3   6 103113. 4827.34   4
  -3   3   6 104812. 3898.65   2
   3   0   6 104071. 4651.03   2
   3   0   6 96809.7 4458.30   3
   0  -3   9-1084.85 861.659   2
   3   0   9-673.649 1230.04   2
  -3   3   9 1851.46 1014.10   4
  -3   3   9 460.805 739.252   2
   3   0   9 1532.56 1057.47   4
   0  -3   9 308.455 722.530   4
  -4   0 -10 10487.8 2129.36   1
   4  -4 -10 7906.82 1933.79   1
   0   4 -10 10451.5 2182.31   1
   0   4  -7-43.9281 687.179   1
   0   4  -7-651.448 478.366   3
   4  -4  -7-357.987 586.137   1
  -4   0  -7-198.356 574.067   1
   4  -4  -4 3024.27 482.824   2
   4  -4  -4 2392.59 767.036   3
   0   4  -4 2720.08 854.247   1
  -4   0  -4 2475.47 714.395   3
   0   4  -4 2927.91 493.255   3
   0   4  -4 3612.61 888.469   4
   0   4  -4 2888.50 826.128   2
  -4   0  -4 1659.18 582.231   1
   4  -4  -4 2972.10 811.493   1
   0   4  -1 0.75291 247.329   2
   4  -4  -1 108.439 267.425   1
   0   4  -1 115.064 251.845   4
  -4   0  -1-207.435 264.768   3
   4  -4   2 28157.9 1429.61   1
   0   4   2 30204.9 1836.59   3
  -4   0   2 29370.1 1693.18   1
  -4   0   2 26480.1 1395.20   4
   0   4   2 27795.7 1491.54   1
   4  -4   2 29034.9 1112.23   3
  -4   0   2 32234.9 1494.87   2
   4  -4   2 27323.0 1724.84   4
   4  -4   2 28338.5 1774.83   2
  -4   0   5 710.659 630.732   4
   0   4   5-38.9244 334.472   2
   4  -4   5 229.579 574.581   1
  -4   0   5-901.432 829.204   1
   4  -4   5-33.3199 749.026   4
   4  -4   5 1203.22 704.576   2
   0   4   5 1109.11 549.914   4
   0   4   5 117.187 491.484   1
   4  -4   5-159.390 347.131   3
   0   4   5 263.934 530.910   3
  -4   0   5 397.200 485.465   2
  -4   0   8 19030.8 2163.57   2
   0   4   8 18786.9 2143.45   2
   4  -4   8 21888.8 2845.72   4
   0   4   8 18710.8 2676.86   4
   4  -4   8 16887.2 2367.54   2
  -4   0   8 19830.1 2492.42   4
  -4   0  11 393.013 845.623   4
   4  -4  11 1078.82 1336.10   4
   4  -4  11 1074.48 1094.44   2
   0   4  11 569.463 1110.25   2
   0   4  11-27.5242 1078.03   4
  -4   0  11-937.219 781.813   2
   4  -3 -11 1466.21 1466.05   1
  -4   1 -11 1174.26 1173.17   1
   3  -4 -11 35.7075 866.717   1
  -3  -1 -11 903.602 1101.19   1
  -1   4 -11 750.990 911.947   1
   1   3 -11-187.790 1002.36   1
   1   3  -8 4027.21 1314.32   1
   1   3  -8 3891.58 1045.94   3
  -1   4  -8 2999.59 922.490   3
  -4   1  -8 4085.84 1126.14   1
   4  -3  -8 6074.72 1599.06   1
  -3  -1  -8 5779.39 1502.53   1
   3  -4  -8 4852.72 1349.65   1
  -1   4  -8 5254.63 1496.46   1
  -1   4  -5 8872.44 1437.78   4
  -3  -1  -5 7043.10 1139.57   3
  -3  -1  -5 8491.42 1321.40   1
  -1   4  -5 7613.24 1292.46   2
   3  -4  -5 5480.48 1021.94   3
  -1   4  -5 7167.80 896.674   3
   4  -3  -5 6722.58 1137.67   4
  -1   4  -5 6139.07 1104.88   1
  -4   1  -5 7849.59 1260.39   1
   4  -3  -5 8400.69 1396.16   1
  -4   1  -5 7396.57 1158.29   3
   4  -3  -5 5498.12 1093.76   3
   1   3  -5 8316.75 1329.21   4
   1   3  -5 6373.25 882.458   3
   3  -4  -5 4193.91 1030.08   1
   4  -3  -5 7308.01 947.508   2
   1   3  -5 7859.25 1247.87   2
   1   3  -5 5934.82 1075.27   1
   1   3  -2 5023.20 744.129   4
  -3  -1  -2 3550.73 624.163   3
  -3  -1  -2 4043.12 565.506   1
   1   3  -2 4501.51 663.776   1
  -4   1  -2 3691.47 573.078   3
   4  -3  -2 4077.16 714.581   1
  -1   4  -2 3547.34 607.556   4
  -4   1  -2 3872.78 545.782   1
   4  -3  -2 4452.23 439.146   2
   4  -3  -2 3898.04 541.756   4
  -1   4  -2 3646.14 719.995   2
   1   3  -2 4223.88 657.426   2
   3  -4  -2 3746.51 605.703   1
  -3  -1   1 1622.33 325.418   4
  -4   1   1 1895.75 352.958   2
  -3  -1   1 1138.20 366.513   2
  -4   1   1 1577.48 276.675   4
   3  -4   1 1825.03 198.658   3
   1   3   1 2202.14 493.109   3
  -3  -1   1 1401.13 250.636   3
   1   3   1 1185.96 269.825   1
   1   3   1 1637.43 313.048   4
  -1   4   1 2075.41 488.469   3
  -1   4   1 1692.71 263.934   4
   3  -4   1 742.173 293.772   4
   4  -3   1 1119.45 241.192   3
  -4   1   1 926.432 254.049   1
  -1   4   1 1474.42 319.080   1
   3  -4   1 824.295 315.391   2
   1   3   1 1163.92 232.870   2
  -3  -1   1 1380.20 333.411   1
  -3  -1   4 1780.52 643.402   4
   3  -4   4 1740.31 491.637   3
  -1   4   4 888.913 338.700   2
   3  -4   4 385.521 459.420   2
   1   3   4 784.886 372.013   2
   3  -4   4 1184.66 435.845   1
  -3  -1   4 1954.71 581.431   2
   1   3   4 1645.91 621.621   1
  -3  -1   4 1328.43 674.930   1
  -1   4   4 1019.23 535.865   3
  -4   1   4 879.346 421.476   2
   4  -3   4 1279.02 508.095   3
  -4   1   4 810.160 464.878   1
   4  -3   4 1246.85 566.664   2
   1   3   4 738.472 537.810   3
   4  -3   4 1238.43 570.650   1
   3  -4   4 1742.70 723.590   4
  -4   1   4 459.557 363.950   4
  -1   4   4 770.284 528.445   1
   4  -3   4 290.470 637.021   4
   4  -3   7 1417.79 798.444   4
  -4   1   7 3354.64 898.070   2
   1   3   7 3627.36 1166.89   3
   1   3   7 2421.42 996.574   4
   3  -4   7 3589.27 1123.28   4
  -3  -1   7 2937.39 881.783   2
  -3  -1   7 2172.91 963.056   4
  -1   4   7 2931.25 1047.26   4
   4  -3   7 1719.90 752.278   2
  -4   1   7 4447.66 1296.16   4
   4  -3   7 2730.64 820.723   3
   3  -4   7 4326.65 1112.30   2
   1   3   7 4159.84 1046.74   2
  -1   4   7 2973.11 827.431   2
   3  -4  10 3555.67 1327.58   4
  -1   4  10 4609.78 1846.19   4
  -4   1  10 3635.68 1211.26   2
   4  -3  10 4531.80 1512.12   2
   4  -3  10 2076.03 1302.13   4
  -3  -1  10 4132.10 1565.85   4
  -1   4  10 3648.72 1213.28   2
   1   3  10 4831.21 1749.51   4
   3  -4  10 4953.99 1672.15   2
   1   3  10 5131.21 1505.32   2
  -4   1  10 2331.31 1356.21   4
  -3  -1  10 3932.24 1288.11   2
   2  -4  -9 16582.6 2494.79   1
   2   2  -9 13253.2 2314.29   1
   4  -2  -9 14533.2 2381.67   1
  -2  -2  -9 13905.8 2281.90   1
  -4   2  -9 14325.6 2199.60   1
  -2   4  -9 16493.8 2525.21   1
  -4   2  -6 10531.5 1423.34   3
  -2  -2  -6 12693.5 1704.09   1
   2   2  -6 12899.4 1656.54   2
  -2   4  -6 12259.4 1345.69   3
   4  -2  -6 7113.91 1325.42   3
  -2  -2  -6 12649.3 1709.34   3
   2  -4  -6 10694.5 1733.96   1
   4  -2  -6 14169.1 1917.11   1
   4  -2  -6 13797.7 1523.22   2
   2   2  -6 11337.9 1320.25   3
  -4   2  -6 10957.2 1582.36   1
  -2   4  -6 12468.3 1779.90   1
   2   2  -6 8842.75 1522.67   1
  -2  -2  -3 65608.7 2754.88   1
  -2   4  -3 70894.5 3123.22   4
   2  -4  -3 71051.8 3034.33   3
   2   2  -3 68373.6 2956.66   4
   2   2  -3 65544.8 2878.23   1
  -2  -2  -3 66317.8 2858.20   3
   4  -2  -3 66201.5 2241.27   2
  -4   2  -3 64739.1 2442.93   3
   2   2  -3 71483.2 2886.62   2
  -2   4  -3 63629.2 1768.49   3
  -2   4  -3 63504.3 2741.40   1
  -2   4  -3 70534.1 3013.12   2
   2  -4  -3 60934.7 2834.50   1
   4  -2  -3 65295.3 2939.66   1
  -4   2  -3 61287.9 2507.50   1
   4  -2  -3 68211.1 2701.82   4
   4  -2   0 54501.0 1433.99   3
   2   2   0 53721.6 1564.38   2
  -4   2   0 55007.3 1436.95   3
   4  -2   0 56159.0 1084.94   4
  -2   4   0 55582.3 1160.82   4
   2   2   0 57299.2 1546.03   3
  -2   4   0 51100.1 1438.25   2
  -2  -2   0 56563.8 1406.76   4
  -2  -2   0 56234.3 1499.62   3
   2  -4   0 51188.3 1410.23   2
   2  -4   0 56141.1 1082.60   4
  -2  -2   0 55176.3 1554.83   2
   2   2   3 63413.9 2594.99   1
   2  -4   3 63814.8 2875.91   2
   4  -2   3 64537.7 2865.91   2
   2  -4   3 59110.6 1734.28   3
   4  -2   3 58032.3 2307.51   3
   2  -4   3 58252.8 2636.75   1
  -4   2   3 61111.8 2044.55   2
  -4   2   3 62856.3 2494.75   4
  -4   2   3 65601.5 2956.82   1
  -2  -2   3 65480.2 2648.36   2
  -2   4   3 60831.9 1778.37   2
  -2  -2   3 67395.7 2953.02   1
   2   2   3 63618.2 2817.48   3
  -2  -2   3 62228.1 2687.66   4
  -2   4   3 63560.7 2897.39   1
   4  -2   3 59244.5 2963.84   4
   4  -2   3 61699.1 2507.19   1
   2  -4   3 62849.5 2924.85   4
  -2  -2   6 12408.0 1793.47   4
   4  -2   6 14487.3 1928.66   2
  -2   4   6 10864.4 1335.28   2
   2  -4   6 11010.6 1750.85   4
   2   2   6 13035.9 1711.47   3
  -2  -2   6 13654.4 1645.76   2
   4  -2   6 13508.4 2051.74   4
  -4   2   6 14045.0 1471.67   2
  -2   4   6 13167.7 1846.71   4
   2  -4   6 12858.2 1759.27   2
   4  -2   6 13476.0 1602.70   3
   2   2   6 12037.3 1900.33   4
   2   2   6 14794.5 1757.32   2
  -4   2   6 13683.5 1856.33   4
  -4   2   9 16930.4 2114.73   2
  -4   2   9 14258.9 2327.14   4
   4  -2   9 20915.4 2828.75   2
   2  -4   9 17476.9 2500.89   2
   2  -4   9 16679.7 2693.05   4
   4  -2   9 17044.8 2696.34   4
  -2  -2   9 15579.3 2207.90   2
  -2   4   9 20602.9 2911.42   4
  -2  -2   9 15731.0 2485.75   4
   2   2   9 15370.3 2632.34   4
  -2   4   9 17842.8 2099.72   2
   2   2   9 19030.9 2556.09   2
   4  -1 -10 4173.25 1559.18   1
   3   1 -10 4007.76 1528.97   1
  -3   4 -10 3476.76 1308.84   1
   1  -4 -10 2827.78 1333.36   1
  -1  -3 -10 4600.36 1873.10   1
  -4   3 -10 4373.11 1511.71   1
   4  -1  -7 2481.10 885.762   2
  -1  -3  -7 2541.53 1119.76   1
  -3   4  -7 2252.08 841.773   1
   4  -1  -7 4602.15 1263.11   1
   3   1  -7 1657.07 697.615   3
   1  -4  -7 1137.66 662.890   1
  -3   4  -7 3143.27 833.723   3
  -4   3  -7 2479.69 880.294   1
   3   1  -7 2299.94 1052.11   1
  -4   3  -7 2981.61 895.118   3
  -1  -3  -4 1932.90 590.625   3
   3   1  -4 941.140 555.588   4
  -3   4  -4 679.954 451.507   1
   3   1  -4 1712.09 542.548   2
  -3   4  -4 1426.29 457.199   3
   4  -1  -4 2259.72 629.860   2
   3   1  -4 2502.21 890.373   1
  -4   3  -4 1613.91 459.086   3
  -1  -3  -4 2587.94 800.239   1
   1  -4  -4 2188.56 776.873   3
  -3   4  -4 335.752 381.406   2
  -3   4  -4 1655.61 738.868   4
  -4   3  -4 1626.65 526.139   1
   1  -4  -4 1750.99 750.663   1
   4  -1  -4 2910.74 752.035   4
   4  -1  -4 969.577 617.411   1
   4  -1  -1 1415.11 306.091   2
  -1  -3  -1 1347.66 245.905   1
  -1  -3  -1 1251.52 260.370   2
   4  -1  -1 1224.37 322.750   1
   1  -4  -1 2023.21 400.141   3
   3   1  -1 1850.71 388.322   2
  -3   4  -1 1043.19 298.639   2
  -4   3  -1 1296.04 254.338   3
   3   1  -1 1493.14 267.713   3
   3   1  -1 1808.22 367.304   4
  -1  -3  -1 887.321 307.870   3
   3   1  -1 1043.44 278.143   1
   1  -4  -1 1382.20 306.172   1
  -3   4  -1 1155.85 351.748   4
   4  -1  -1 1264.07 233.756   4
  -3   4   2 3346.32 690.738   1
   4  -1   2 3274.40 561.833   3
   1  -4   2 3479.24 650.391   2
  -4   3   2 2949.49 333.667   2
  -3   4   2 2865.19 471.913   4
   3   1   2 4035.85 665.831   3
  -1  -3   2 2153.06 498.497   4
  -4   3   2 3218.46 544.831   1
  -1  -3   2 2625.28 579.519   1
  -4   3   2 2934.40 479.585   4
   1  -4   2 2542.99 511.360   1
   3   1   2 3490.14 513.372   1
   4  -1   2 2839.94 471.376   1
   1  -4   2 3638.86 633.529   4
  -1  -3   2 3618.05 665.035   2
  -4   3   5 8543.92 1002.24   2
   3   1   5 8728.95 1252.53   1
   4  -1   5 7268.18 1192.98   1
  -4   3   5 9800.39 1377.45   4
   4  -1   5 10472.1 1450.31   2
  -3   4   5 8605.73 1416.39   1
   4  -1   5 6997.95 1340.48   4
  -3   4   5 9125.23 1396.42   4
  -1  -3   5 6903.10 1287.07   4
   1  -4   5 9215.36 1429.99   4
   1  -4   5 9029.34 1363.64   2
   1  -4   5 8380.08 1372.76   1
   3   1   5 6641.07 1179.80   3
   3   1   5 7626.03 1372.40   4
   3   1   5 8323.18 1260.95   2
  -4   3   5 9332.82 1424.46   1
   4  -1   5 8493.26 1205.06   3
  -1  -3   5 8598.30 1286.08   2
  -3   4   5 8217.26 972.710   2
  -1  -3   5 9857.91 1512.34   1
   3   1   8 5926.43 1778.69   4
  -1  -3   8 4415.85 1243.12   4
   3   1   8 5610.08 1383.87   3
   3   1   8 5667.97 1418.72   2
   1  -4   8 6353.42 1712.63   4
  -3   4   8 4625.33 1345.91   4
  -4   3   8 6325.08 1200.60   2
   4  -1   8 6012.79 1582.65   4
   4  -1   8 3873.50 1151.04   3
  -4   3   8 3766.73 1203.32   4
   4  -1   8 4281.56 1196.04   2
   1  -4   8 5263.83 1337.28   2
  -1  -3   8 6264.72 1428.46   2
  -3   4   8 6649.41 1244.08   2
  -4   3  11 1422.87 1012.41   2
  -1  -3  11 627.227 842.133   2
  -4   3  11-731.789 995.964   4
  -3   4  11 255.405 735.468   2
   4  -1  11 1013.33 1156.35   2
   1  -4  11 1521.40 1223.72   4
   4  -1  11 424.499 1140.07   4
   3   1  11 1342.46 1413.04   4
  -1  -3  11 1883.03 1621.39   4
   1  -4  11 1172.62 1124.15   2
   3   1  11 1272.89 1153.47   2
  -3   4  11-1224.85 1147.72   4
   4   0 -11 794.366 1037.96   1
  -4   4 -11 529.974 1213.44   1
   0  -4 -11-111.176 955.081   1
   0  -4  -8 16892.4 2417.82   1
   4   0  -8 14853.6 2316.42   1
  -4   4  -8 13808.5 2097.81   1
  -4   4  -8 13108.3 1714.58   3
   0  -4  -5 641.118 643.221   3
   0  -4  -5-396.532 622.291   1
   4   0  -5-237.517 522.229   1
  -4   4  -5 447.275 565.714   1
  -4   4  -5 580.298 419.621   3
   4   0  -5-232.708 475.521   4
   4   0  -5 49.4706 543.632   2
  -4   4  -2 23578.4 1586.51   4
   0  -4  -2 24266.4 1394.66   1
   4   0  -2 25553.4 1399.59   2
   0  -4  -2 19929.5 1453.14   3
  -4   4  -2 25042.2 982.450   3
   4   0  -2 26705.3 1411.34   4
   4   0  -2 25639.3 1525.99   1
   0  -4   1 372.506 251.399   4
   4   0   1-189.496 249.068   3
   0  -4   1-89.9450 297.537   2
  -4   4   1 253.751 180.960   1
   0  -4   4 3132.20 740.737   4
   0  -4   4 3949.68 891.080   1
   4   0   4 3216.31 768.711   3
  -4   4   4 2504.36 766.887   1
  -4   4   4 2819.94 655.071   4
  -4   4   4 3748.69 533.288   2
   4   0   4 4145.70 787.813   1
   0  -4   4 2646.18 805.094   2
   4   0   7 64.0134 656.334   4
   4   0   7 649.725 707.682   3
  -4   4   7-95.9006 390.724   2
  -4   4   7-133.090 573.561   4
   0  -4   7 422.740 570.672   2
   0  -4   7-380.557 758.635   4
   4   0   7 81.5791 767.914   2
  -4   4  10 7349.38 1344.55   2
  -4   4  10 6579.05 1579.71   4
   4   0  10 5292.17 1799.17   4
   0  -4  10 7572.18 1785.38   2
   4   0  10 8408.71 1986.47   2
   0  -4  10 13067.2 2593.99   4
  -5   0 -11 1101.62 1134.87   1
   0   5 -11-1308.82 1140.92   1
   5  -5 -11 2734.74 1415.56   1
   5  -5  -8 2215.97 1142.66   1
   0   5  -8 348.457 528.761   3
   0   5  -8 1004.62 796.552   1
  -5   0  -8 2786.75 1092.91   1
  -5   0  -5-205.147 457.172   3
   5  -5  -5 21.1847 518.581   3
   5  -5  -5 610.807 349.063   2
   0   5  -5 427.434 528.622   2
   0   5  -5 659.306 351.985   3
   5  -5  -5 335.416 543.235   1
   0   5  -5 661.466 574.927   1
  -5   0  -5 94.1078 361.298   1
   0   5  -2 62048.6 2571.52   4
   0   5  -2 51689.4 2437.48   2
  -5   0  -2 57790.8 2366.83   3
   5  -5  -2 53576.3 1164.49   2
  -5   0  -2 57568.5 1845.03   1
   5  -5  -2 57497.9 2374.38   1
   5  -5   1-94.5858 148.058   3
   0   5   1-436.004 393.831   3
   0   5   1 188.012 168.700   2
   5  -5   1-516.421 314.740   4
  -5   0   1-248.329 234.470   3
  -5   0   1-488.938 302.412   2
  -5   0   1 374.154 258.489   4
  -5   0   1 41.6658 210.459   1
   0   5   1-483.685 273.328   1
   0   5   1-165.345 207.531   4
   5  -5   1 326.404 395.959   2
   5  -5   4 13096.7 1635.62   4
  -5   0   4 13465.5 1393.60   4
   5  -5   4 14776.0 1502.25   1
  -5   0   4 13916.2 1589.93   1
   5  -5   4 16424.7 1779.14   2
   0   5   4 14822.0 1586.78   1
   0   5   4 14529.4 1701.57   3
  -5   0   4 14086.2 1343.78   2
   5  -5   4 13710.7 1146.10   3
  -5   0   7 527.443 518.812   4
   5  -5   7 606.707 626.817   3
   5  -5   7 191.281 678.790   2
   0   5   7-598.549 821.492   4
   5  -5   7 781.368 681.193   4
   0   5   7 577.599 786.672   3
   0   5   7 10.1516 565.881   2
  -5   0   7-231.122 686.738   2
   0   5  10 6911.43 2087.92   4
   5  -5  10 9083.39 2265.80   2
   0   5  10 6292.48 1487.21   2
  -5   0  10 5576.16 1651.23   4
  -5   0  10 9399.09 1768.77   2
   5  -5  10 8472.20 2137.66   4
  -4  -1  -9 8817.51 1908.47   1
  -5   1  -9 6991.88 1636.34   1
   5  -4  -9 9323.52 2058.17   1
   4  -5  -9 8802.41 2038.79   1
   1   4  -9 7646.89 1774.42   1
  -1   5  -9 9788.20 2020.56   1
  -4  -1  -6 7966.61 1321.12   1
  -1   5  -6 11241.5 1735.11   1
   4  -5  -6 11627.4 1800.13   1
  -5   1  -6 8352.35 1415.54   3
   1   4  -6 10006.7 1621.93   1
   1   4  -6 9833.28 1205.20   3
  -5   1  -6 9161.35 1415.22   1
   5  -4  -6 12183.2 1329.10   2
   5  -4  -6 9900.72 1679.90   1
  -1   5  -6 9255.93 1097.29   3
  -4  -1  -3 22295.5 1539.32   1
  -1   5  -3 24586.5 1850.26   4
  -5   1  -3 21286.4 1429.15   1
   5  -4  -3 23658.3 1177.75   2
  -1   5  -3 22920.6 1804.23   1
   4  -5  -3 21066.4 1710.79   1
   4  -5  -3 23697.6 1861.16   3
  -4  -1  -3 23444.0 1741.54   3
   1   4  -3 25538.7 1890.17   4
   5  -4  -3 21361.0 1734.38   1
   4  -5  -3 20461.5 883.241   2
   5  -4  -3 23027.5 1541.20   4
  -1   5  -3 22621.1 1818.78   2
  -1   5  -3 19625.9 846.741   3
   1   4  -3 22613.2 1750.48   1
  -5   1  -3 19687.0 1500.74   3
   1   4  -3 22712.4 1839.86   2
  -4  -1   0 3258.15 435.288   3
  -4  -1   0 4288.99 544.160   2
  -1   5   0 4110.84 520.901   3
   1   4   0 3780.18 522.596   2
   4  -5   0 4034.56 515.844   2
  -5   1   0 3386.56 382.026   4
  -4  -1   0 3654.52 429.925   4
  -1   5   0 3389.29 478.641   2
   1   4   0 4019.94 482.691   4
   1   4   0 3831.90 529.860   3
   4  -5   0 4157.84 464.764   1
  -1   5   0 4556.62 448.070   4
   5  -4   0 3544.74 357.171   1
  -5   1   0 3801.24 449.358   3
  -5   1   3 56452.3 2409.43   4
   4  -5   3 57666.8 2584.98   1
  -5   1   3 57635.7 2250.91   2
  -1   5   3 55967.2 2627.86   1
   5  -4   3 58592.6 2967.17   2
  -4  -1   3 59803.0 2485.83   2
   5  -4   3 54602.2 2449.00   1
   4  -5   3 56300.1 1769.99   3
  -1   5   3 57144.6 2964.83   3
   4  -5   3 59939.2 3009.44   2
   4  -5   3 58753.3 2994.37   4
   5  -4   3 55935.2 2095.27   3
   1   4   3 53081.8 2828.71   3
  -4  -1   3 60614.1 2896.79   1
   1   4   3 51312.9 2418.01   1
  -4  -1   3 60150.1 2564.66   4
   5  -4   3 59978.9 3019.80   4
  -5   1   3 60312.9 2925.62   1
   1   4   6 4672.78 1335.87   4
  -1   5   6 7296.40 1513.51   4
   1   4   6 6243.09 1348.41   3
   4  -5   6 6048.24 1347.31   4
  -5   1   6 8137.71 1172.71   2
  -1   5   6 6785.22 1121.14   2
   4  -5   6 5727.70 1264.32   2
   5  -4   6 6055.80 1020.18   3
   1   4   6 6385.80 1070.35   2
   5  -4   6 7003.44 1381.09   2
   5  -4   6 7744.24 1655.01   4
  -5   1   6 7192.56 1288.29   4
   4  -5   6 7238.78 1089.20   3
  -4  -1   6 7600.60 1367.69   4
  -4  -1   6 9805.72 1453.34   2
   1   4   9 18459.8 2313.76   2
  -5   1   9 18089.4 2510.01   4
   4  -5   9 14362.3 2648.19   4
  -5   1   9 16980.5 2153.66   2
  -1   5   9 18304.3 2914.88   4
   5  -4   9 18957.0 2958.01   4
  -4  -1   9 16082.9 2147.69   2
  -4  -1   9 20335.5 2694.40   4
  -1   5   9 15195.6 1941.52   2
   1   4   9 21850.5 3072.58   4
   5  -4   9 19544.2 2823.92   2
   4  -5   9 17556.6 2608.83   2
  -5   2 -10 7239.67 1816.79   1
   3  -5 -10 5494.13 1770.74   1
   2   3 -10 3583.32 1650.57   1
  -2   5 -10 4662.87 1493.24   1
  -3  -2 -10 4654.98 1663.57   1
   5  -3 -10 5164.58 1708.76   1
  -2   5  -7 11711.9 1836.80   1
  -3  -2  -7 11285.0 1819.39   1
   2   3  -7 9794.09 1280.32   3
   5  -3  -7 12895.4 1911.48   1
   2   3  -7 8656.24 1664.70   1
   5  -3  -7 11390.1 1478.77   2
  -2   5  -7 11191.3 1360.45   3
  -5   2  -7 12545.1 1834.35   1
   3  -5  -7 9608.52 1740.99   1
  -5   2  -4 1889.30 617.104   3
  -2   5  -4 1945.27 789.538   4
   3  -5  -4 1715.80 674.571   1
   5  -3  -4 3370.85 793.587   4
  -3  -2  -4 2512.27 747.338   3
   2   3  -4 2317.70 686.815   4
   2   3  -4 1987.51 663.169   2
  -2   5  -4 1671.05 687.705   1
   5  -3  -4 3801.10 1005.54   1
   5  -3  -4 2108.16 533.449   2
  -5   2  -4 2494.95 669.800   1
  -2   5  -4 2024.26 687.351   2
  -3  -2  -4 1847.69 647.311   1
   2   3  -4 2299.25 666.865   1
   3  -5  -4 933.188 498.233   3
  -2   5  -4 2010.62 432.405   3
   5  -3  -1 11451.6 812.359   1
   2   3  -1 13216.1 933.793   4
  -2   5  -1 12137.7 1025.30   2
  -2   5  -1 12310.9 919.958   4
   2   3  -1 12743.3 692.564   3
   3  -5  -1 11316.7 836.702   1
   2   3  -1 10698.5 950.601   2
   5  -3  -1 12517.3 703.641   2
  -3  -2  -1 13104.9 1044.33   3
  -3  -2  -1 12416.3 674.639   1
  -5   2  -1 12865.4 844.902   3
   5  -3  -1 13063.9 619.427   4
  -3  -2   2 15642.1 1222.61   4
   2   3   2 15099.2 1037.45   1
  -2   5   2 13805.2 1322.16   3
   3  -5   2 15496.3 1289.69   4
   5  -3   2 15578.9 1048.54   3
  -2   5   2 15901.1 1230.97   1
   3  -5   2 16027.7 1342.89   2
  -3  -2   2 17563.0 1334.93   1
   3  -5   2 15232.2 1131.96   1
  -5   2   2 18267.2 1386.89   1
  -3  -2   2 17049.4 1245.24   2
   5  -3   2 16674.2 1069.80   1
  -5   2   2 16971.8 1034.94   4
   2   3   2 13760.6 1267.02   3
  -5   2   2 16809.0 1001.63   2
   2   3   5 3063.61 760.121   2
  -3  -2   5 4036.09 1069.74   1
  -2   5   5 3814.71 1072.08   4
  -5   2   5 6436.62 1126.00   4
  -3  -2   5 3190.78 805.237   4
   5  -3   5 3554.51 1003.58   4
   2   3   5 2988.89 870.738   1
   5  -3   5 4056.01 860.774   3
  -3  -2   5 5111.00 1018.50   2
  -5   2   5 3425.63 1052.03   1
   3  -5   5 4033.74 1122.65   4
   3  -5   5 4233.91 669.649   3
  -2   5   5 4060.31 958.760   1
   2   3   5 3053.36 889.538   3
   5  -3   5 3500.17 929.095   2
   3  -5   5 3248.98 931.602   2
  -5   2   5 3663.61 786.302   2
   3  -5   5 3688.33 951.077   1
   5  -3   5 3389.41 865.066   1
  -2   5   5 3993.24 733.698   2
   2   3   8 12190.7 1874.45   2
   3  -5   8 12652.0 2101.31   2
  -5   2   8 12659.8 2012.43   4
   5  -3   8 10983.3 1858.13   3
   5  -3   8 10659.5 2060.02   4
  -2   5   8 10882.9 1552.32   2
   2   3   8 12250.6 2106.83   3
  -5   2   8 11787.7 1619.97   2
  -2   5   8 11284.1 2032.62   4
   2   3   8 9693.66 2000.19   4
   3  -5   8 10220.2 2068.82   4
   5  -3   8 12137.2 2153.02   2
  -3  -2   8 11450.9 1966.80   4
  -3  -2   8 11751.3 1791.27   2
   5  -3  11 1121.70 1446.91   4
   3  -5  11 959.646 1055.41   2
  -3  -2  11 1789.87 977.047   4
  -2   5  11-660.067 1080.13   4
  -5   2  11 1461.35 1350.95   4
   2   3  11 228.585 971.688   2
   5  -3  11 1141.24 1459.49   2
   2   3  11-2.81532 1248.54   4
  -2   5  11 1127.59 841.421   2
   3  -5  11 2308.57 1335.98   4
  -3  -2  11 503.364 813.845   2
  -5   2  11 71.7927 804.403   2
   3   2 -11 2312.02 1434.21   1
   2  -5 -11 474.625 900.210   1
  -5   3 -11 1301.06 1293.53   1
  -2  -3 -11 541.537 915.515   1
   5  -2 -11-237.544 1085.68   1
  -3   5 -11 1428.38 1234.92   1
  -2  -3  -8 8413.02 1668.11   1
   2  -5  -8 12186.0 2080.54   1
  -3   5  -8 10147.6 1865.84   1
  -3   5  -8 7481.10 1327.36   3
  -5   3  -8 11825.4 2005.70   1
   5  -2  -8 8333.25 1765.89   1
   3   2  -8 9608.80 1977.00   1
   3   2  -5 3068.16 993.293   4
  -2  -3  -5 2599.20 845.945   1
   5  -2  -5 3168.28 871.081   1
  -3   5  -5 2484.17 836.944   1
   3   2  -5 3457.55 966.968   1
  -3   5  -5 3120.65 1041.55   4
  -2  -3  -5 3337.82 950.514   3
   2  -5  -5 2997.58 900.127   1
   2  -5  -5 4280.75 991.226   3
   3   2  -5 3127.75 798.695   3
  -5   3  -5 3785.03 892.543   1
  -3   5  -5 4369.30 710.023   3
   5  -2  -5 4582.27 855.857   2
  -3   5  -5 3085.09 901.021   2
   5  -2  -5 3750.76 894.250   4
  -5   3  -5 2682.39 676.400   3
   3   2  -5 4018.35 899.534   2
  -2  -3  -2 16181.2 1370.57   3
   2  -5  -2 14698.6 1289.69   3
   5  -2  -2 15825.2 994.622   2
  -3   5  -2 16012.1 1327.79   2
   2  -5  -2 14242.9 1178.61   1
   3   2  -2 16520.8 1231.41   4
  -2  -3  -2 13828.0 1058.14   1
   3   2  -2 14343.6 799.240   3
  -5   3  -2 13176.7 913.615   3
  -3   5  -2 15997.7 1310.87   4
   5  -2  -2 13221.0 968.247   4
  -5   3  -2 14885.9 972.652   1
   3   2  -2 13795.5 1151.91   1
   3   2  -2 16119.4 1268.89   2
   5  -2  -2 16008.5 1284.45   1
  -3   5   1 12752.8 527.514   4
  -2  -3   1 13032.4 894.953   1
  -5   3   1 12779.3 849.197   1
  -2  -3   1 12205.8 1009.83   2
   3   2   1 13146.5 891.222   2
   3   2   1 13337.7 876.472   4
   2  -5   1 13980.2 1075.44   2
   3   2   1 13599.1 1079.20   3
  -3   5   1 12157.7 880.367   1
   3   2   1 13104.6 645.315   1
  -2  -3   1 12871.8 668.028   3
   2  -5   1 12177.8 890.820   4
  -5   3   1 12819.7 572.644   4
   5  -2   1 13149.3 851.342   3
  -2  -3   1 12695.3 926.930   4
   5  -2   1 12154.4 569.644   1
  -5   3   1 13627.3 748.019   2
  -2  -3   4 1808.31 697.496   4
  -5   3   4 2138.73 568.570   4
  -2  -3   4 2765.23 739.324   2
   3   2   4 2909.13 809.964   3
   5  -2   4 2492.42 752.607   1
  -5   3   4 3431.02 628.230   2
   2  -5   4 1620.82 636.620   2
   5  -2   4 1167.09 575.676   2
  -5   3   4 2158.65 732.570   1
   2  -5   4 3543.62 907.365   4
   2  -5   4 3648.40 814.538   1
  -3   5   4 986.621 464.532   1
  -3   5   4 1591.77 619.152   4
   5  -2   4 3253.04 917.595   4
   3   2   4 1670.85 634.218   1
  -2  -3   4 1062.92 461.658   1
   5  -2   4 1506.61 560.720   3
  -3   5   4 2280.04 456.944   2
   3   2   7 13726.1 1885.82   2
   2  -5   7 10609.3 1880.00   4
  -5   3   7 11498.9 1725.09   4
   5  -2   7 14583.1 1909.87   3
   3   2   7 12309.8 2060.07   4
  -3   5   7 12008.2 2031.91   4
  -3   5   7 10442.9 1301.38   2
  -2  -3   7 12971.4 1805.67   2
   2  -5   7 16530.0 2152.94   2
   5  -2   7 10786.1 1864.95   4
   3   2   7 11472.2 1841.92   3
  -5   3   7 11945.3 1437.14   2
   5  -2   7 12727.1 2029.32   2
  -2  -3   7 13649.7 1989.95   4
   2  -5  10 5744.91 1726.11   4
  -3   5  10 4281.57 1193.17   2
   5  -2  10 5418.08 1791.10   4
   3   2  10 6516.11 2049.67   4
  -5   3  10 4632.68 1588.68   4
  -2  -3  10 5065.14 1389.20   2
   3   2  10 6109.03 1778.42   2
  -3   5  10 4690.59 1646.32   4
   5  -2  10 4376.66 1634.18   2
  -2  -3  10 5361.93 1747.13   4
   2  -5  10 7312.18 2005.16   2
  -5   3  10 5957.12 1357.68   2
   4   1  -9 16024.8 2501.79   1
   1  -5  -9 11228.1 2155.97   1
   5  -1  -9 20914.8 2966.67   1
  -1  -4  -9 13829.7 2383.42   1
  -5   4  -9 18129.3 2485.67   1
  -4   5  -9 16245.7 2498.96   1
  -4   5  -6 7115.99 1396.29   1
   4   1  -6 7674.07 1260.14   2
   5  -1  -6 5477.94 1141.42   3
   4   1  -6 5772.95 1127.79   3
   5  -1  -6 8017.86 1494.73   1
   5  -1  -6 8245.40 1291.00   2
  -1  -4  -6 5761.40 1232.25   1
  -5   4  -6 5051.79 977.497   3
  -4   5  -6 6736.42 1004.32   3
   4   1  -6 10136.7 1659.04   1
   1  -5  -6 4791.82 1223.06   1
  -5   4  -6 4350.35 1064.36   1
   4   1  -3 53075.4 2622.57   1
  -1  -4  -3 51960.0 2776.33   3
   1  -5  -3 59254.6 2916.04   3
   5  -1  -3 60438.1 2413.95   2
  -1  -4  -3 56631.8 2622.84   1
   4   1  -3 59938.7 2757.85   4
  -4   5  -3 57648.0 1650.01   3
  -4   5  -3 55169.3 2502.09   1
  -4   5  -3 56791.8 2866.44   2
   5  -1  -3 59417.3 2634.55   4
  -4   5  -3 57111.3 2888.13   4
   1  -5  -3 53601.6 2605.78   1
  -5   4  -3 61325.8 2506.80   1
  -5   4  -3 57911.5 2024.16   3
   5  -1  -3 56865.5 2727.12   1
   4   1  -3 62199.9 2638.02   2
  -1  -4   0 5951.60 640.344   2
   1  -5   0 5180.78 570.042   2
   4   1   0 5781.63 547.708   4
   5  -1   0 5392.95 600.085   2
   4   1   0 3857.35 490.861   3
  -1  -4   0 4275.40 534.212   3
  -1  -4   0 4341.78 487.293   4
   5  -1   0 3703.10 457.908   3
   1  -5   0 4808.68 549.522   3
   1  -5   0 4725.53 473.841   4
   5  -1   0 5559.98 467.624   4
   4   1   0 3648.60 516.564   2
   4   1   3 25853.6 1606.15   1
  -1  -4   3 25998.3 1870.86   1
  -1  -4   3 23751.5 1742.84   2
  -5   4   3 24578.3 1834.79   1
   1  -5   3 23074.1 1714.99   1
  -4   5   3 27259.6 1667.83   4
   1  -5   3 25802.5 1895.41   4
  -4   5   3 25533.3 1920.40   1
  -4   5   3 23214.0 880.346   2
   1  -5   3 26619.3 1946.18   2
  -5   4   3 25799.5 1544.27   4
   5  -1   3 23707.7 1685.39   3
   4   1   3 22959.8 1762.63   3
   5  -1   3 26030.9 1589.01   1
  -5   4   3 24374.6 1108.38   2
  -1  -4   3 19644.4 1647.72   4
   4   1   6 11282.5 1627.31   2
  -1  -4   6 8604.23 1557.19   4
  -4   5   6 10522.7 1593.38   4
  -5   4   6 10227.4 1210.41   2
  -5   4   6 12751.4 1737.42   4
   4   1   6 10217.2 1783.66   4
   4   1   6 10581.9 1615.36   3
  -4   5   6 9746.02 1094.25   2
   5  -1   6 9119.23 1541.02   2
   1  -5   6 9386.78 1557.74   2
   1  -5   6 12250.2 1828.76   4
   5  -1   6 10098.0 1792.38   4
  -1  -4   6 13521.9 1750.07   2
   5  -1   6 11773.1 1645.37   3
   1  -5   9 11347.1 2112.78   4
  -1  -4   9 7046.93 1606.01   2
   5  -1   9 10317.7 2087.34   2
   4   1   9 8644.72 2171.22   4
  -5   4   9 9129.00 1919.02   4
  -5   4   9 8488.88 1325.68   2
  -4   5   9 8747.37 1451.43   2
  -4   5   9 6703.31 1722.87   4
  -1  -4   9 7229.74 1805.06   4
   5  -1   9 9593.19 1941.89   3
   4   1   9 7302.61 1756.90   3
   5  -1   9 10245.3 2346.94   4
   1  -5   9 7008.84 1672.15   2
   4   1   9 5353.12 1482.78   2
   0  -5 -10 5012.35 1706.79   1
  -5   5 -10 6471.58 1717.11   1
   5   0 -10 6048.73 1880.91   1
   5   0  -7 211.502 838.837   1
  -5   5  -7-159.069 608.070   1
  -5   5  -7-307.648 518.946   3
   0  -5  -7-344.160 685.785   1
  -5   5  -4 13171.5 1081.20   3
   0  -5  -4 15022.7 1664.76   1
   5   0  -4 12964.4 1501.15   1
   5   0  -4 16109.9 1563.44   2
  -5   5  -4 14396.0 1490.58   1
   0  -5  -4 14085.2 1643.41   3
   5   0  -4 17030.2 1644.05   4
   5   0  -1-184.735 249.235   1
   0  -5  -1-319.553 262.411   1
   5   0  -1 275.139 260.151   2
   0  -5  -1 83.7702 177.461   4
   0  -5  -1-101.831 172.820   2
   5   0  -1-98.5953 191.220   4
   5   0  -1-88.5260 184.891   3
   0  -5  -1 528.932 421.532   3
   0  -5   2 58343.4 2365.06   1
  -5   5   2 55129.5 1105.02   2
   0  -5   2 57919.0 2510.88   2
  -5   5   2 59575.3 2398.98   1
   5   0   2 57061.7 2396.18   3
   5   0   2 58360.2 1813.26   1
   0  -5   2 57144.2 2280.69   4
  -5   5   2 57504.7 1685.92   4
   0  -5   5 638.277 542.898   4
   5   0   5 270.231 502.258   3
  -5   5   5 250.209 284.151   2
  -5   5   5-304.595 461.042   4
   5   0   5-652.814 563.476   2
   0  -5   5 230.884 507.266   2
   5   0   5 306.389 550.282   1
   0  -5   8 1173.27 891.515   4
   0  -5   8 3061.45 1169.60   2
  -5   5   8 958.477 504.840   2
  -5   5   8 439.584 674.454   4
   5   0   8 1401.60 892.856   2
   5   0   8 1135.32 1061.51   4
   5   0   8 1571.53 1068.10   3
  -5   5  11-2070.31 1582.30   4
   0  -5  11 646.311 1134.47   2
   5   0  11 1416.40 1122.30   2
  -5   5  11 321.119 702.679   2
   5   0  11-471.879 1271.07   4
   0  -5  11 1438.20 1303.97   4
  -6   0  -9 690.213 1092.50   1
   6  -6  -9 204.766 1073.36   1
   0   6  -9 1022.25 994.816   1
   6  -6  -6 8635.04 1640.10   1
   0   6  -6 10361.1 1736.71   1
  -6   0  -6 9408.11 1455.68   1
   0   6  -6 10531.6 1123.49   3
   6  -6  -6 11021.3 1143.23   2
   0   6  -3 31.2499 487.966   2
   0   6  -3 288.107 626.565   4
  -6   0  -3-42.8984 319.842   1
   0   6  -3 271.862 135.517   3
   6  -6  -3 836.506 475.295   1
   6  -6  -3 290.700 177.369   2
  -6   0  -3-127.821 417.221   3
   0   6   0 2406.05 470.491   4
   6  -6   0 2584.17 418.061   1
   0   6   0 2517.13 510.315   2
  -6   0   0 1491.42 377.587   3
  -6   0   0 2559.41 568.217   2
   0   6   0 2146.10 500.438   3
  -6   0   0 2326.43 428.230   4
   0   6   3-384.949 524.643   3
   6  -6   3 135.915 282.001   1
   6  -6   3-104.952 579.939   2
  -6   0   3 511.367 427.566   1
  -6   0   3 200.528 390.281   4
   0   6   3 264.280 310.308   1
   0   6   3 502.777 244.104   2
  -6   0   3 426.833 396.152   2
   6  -6   3 44.5193 233.092   3
   6  -6   3 407.598 523.843   4
   6  -6   6 16953.6 1632.40   3
  -6   0   6 17137.0 1843.70   2
  -6   0   6 13181.2 1672.14   4
   6  -6   6 18131.2 2307.07   2
   0   6   6 15731.7 2233.67   3
   6  -6   6 17428.5 2281.68   4
   0   6   6 14756.8 1608.16   2
   6  -6   9-819.214 1029.82   4
   6  -6   9-1386.67 941.815   2
  -6   0   9 193.947 667.028   2
  -6   0   9-42.8036 747.187   4
   0   6   9 37.2268 610.647   2
   0   6   9-1073.08 1335.40   4
   1   5 -10 1441.77 1101.12   1
  -1   6 -10 241.004 818.358   1
  -5  -1 -10-77.1416 1031.18   1
  -6   1 -10 510.619 945.855   1
   5  -6 -10 526.404 1072.65   1
   6  -5 -10-816.098 1363.41   1
  -1   6  -7 13760.6 1432.90   3
  -5  -1  -7 10919.3 1618.36   1
   1   5  -7 13065.3 2034.10   1
   6  -5  -7 11821.9 1879.34   1
  -6   1  -7 12256.1 1734.92   1
   1   5  -7 9593.24 1289.09   3
   6  -5  -7 9763.98 1260.75   2
  -1   6  -7 14912.2 2143.30   1
   5  -6  -7 12551.1 2062.31   1
   6  -5  -4 651.753 347.538   2
  -5  -1  -4 838.159 513.468   1
  -1   6  -4 11.9413 434.018   1
  -6   1  -4 819.894 361.356   1
  -1   6  -4 676.980 504.517   2
   5  -6  -4 523.223 533.399   3
   1   5  -4 801.294 601.146   1
  -1   6  -4 196.911 228.475   3
   5  -6  -4-192.661 399.532   1
   1   5  -4 767.828 740.985   4
   5  -6  -4 57.7564 200.143   2
   6  -5  -4 1055.62 606.844   4
   1   5  -4 633.675 521.468   2
  -6   1  -4-26.7122 442.962   3
  -5  -1  -4 1036.38 549.321   3
   6  -5  -4-539.696 515.114   1
  -1   6  -4 80.6141 478.111   4
   6  -5  -1 36741.7 1563.55   1
  -5  -1  -1 37148.5 1755.99   3
  -1   6  -1 34779.7 1153.34   3
  -6   1  -1 36328.1 1653.41   3
   1   5  -1 37841.4 1905.93   2
   5  -6  -1 34955.3 1559.69   1
  -1   6  -1 35099.3 1853.54   2
   1   5  -1 35488.8 1278.76   3
  -5  -1  -1 35025.5 984.961   1
  -1   6  -1 36909.0 1720.10   4
   1   5  -1 40348.1 1760.82   4
  -6   1   2 452.239 297.743   4
   6  -5   2 111.305 478.909   2
  -5  -1   2 597.153 398.515   1
   6  -5   2 114.462 281.067   1
   5  -6   2 258.953 315.199   4
   1   5   2 333.015 204.774   2
   6  -5   2 833.431 531.373   4
   5  -6   2 528.070 462.392   2
   5  -6   2 332.097 165.361   3
   1   5   2 215.741 228.914   1
  -6   1   2 593.526 396.019   1
  -5  -1   2 311.820 254.957   4
   6  -5   2 467.224 261.008   3
  -1   6   2 559.690 368.130   3
  -5  -1   2 336.206 333.374   2
  -1   6   2 163.009 227.170   1
   1   5   2 242.869 453.343   3
  -6   1   2 280.178 295.293   2
  -1   6   2 440.662 195.395   2
   6  -5   5 5321.21 923.903   3
   5  -6   5 5256.37 1160.46   4
   6  -5   5 6647.88 1275.38   2
   5  -6   5 7134.26 1248.29   1
  -6   1   5 7591.99 1065.24   2
  -5  -1   5 6116.69 1047.40   4
   1   5   5 5247.21 1091.00   1
  -6   1   5 5503.21 992.001   4
  -1   6   5 6045.25 845.771   2
  -5  -1   5 7296.54 1113.17   2
  -1   6   5 7108.86 1396.64   3
   5  -6   5 6100.04 840.588   3
   1   5   5 6368.79 1072.05   2
   6  -5   5 5640.20 1107.13   1
   1   5   5 8635.99 1369.43   3
   5  -6   5 6610.37 1317.67   2
   6  -5   5 5722.20 1330.64   4
   6  -5   8 1318.22 1026.36   4
  -6   1   8 990.698 700.174   2
   1   5   8-550.731 927.776   3
   5  -6   8 3240.12 1386.60   4
   1   5   8 1567.67 894.348   2
  -1   6   8 546.884 719.948   2
  -1   6   8 1610.33 788.059   4
   6  -5   8 532.368 598.648   3
   5  -6   8-639.791 914.674   2
  -6   1   8 1199.20 710.671   4
  -5  -1   8 1224.68 929.501   4
   6  -5   8 1724.57 1022.62   2
   1   5   8 85.0175 903.529   4
  -5  -1   8 873.870 858.242   2
   6  -5  11 1194.45 1396.13   4
  -5  -1  11 464.804 972.480   2
   5  -6  11-818.356 1287.45   2
   5  -6  11 1800.07 1485.16   4
   6  -5  11 819.416 1097.25   2
  -1   6  11 2412.62 1249.12   2
  -5  -1  11 2027.48 1327.51   4
   1   5  11 2437.20 1654.39   4
  -1   6  11 989.747 1166.47   4
   1   5  11 1909.10 1179.89   2
  -6   1  11 1821.68 1282.20   4
  -6   1  11 1631.25 1229.81   2
  -2   6 -11 1164.17 895.468   1
   6  -4 -11 2005.04 1218.83   1
   2   4 -11 3921.49 1545.45   1
  -4  -2 -11 3674.53 1641.53   1
  -6   2 -11 4301.37 1663.36   1
   4  -6 -11 2409.66 1565.55   1
  -4  -2  -8 1319.89 916.682   1
   2   4  -8 773.376 775.647   3
  -2   6  -8-95.5786 734.868   1
   6  -4  -8 1670.27 953.059   1
  -6   2  -8 1392.27 905.330   1
   6  -4  -8 208.884 550.200   2
   4  -6  -8 205.550 745.509   1
  -2   6  -8 434.032 615.048   3
   2   4  -8-843.852 723.817   1
  -4  -2  -5 12342.7 1591.28   1
  -4  -2  -5 11916.7 1566.22   3
  -6   2  -5 13569.1 1472.46   1
  -2   6  -5 11402.6 1587.45   1
  -6   2  -5 11639.2 1426.40   3
  -2   6  -5 9687.08 1495.49   2
   2   4  -5 12096.1 1214.45   3
   6  -4  -5 12148.3 1472.19   4
   4  -6  -5 10297.6 1570.73   3
   6  -4  -5 12429.5 1228.21   2
   2   4  -5 10858.6 1491.84   2
   4  -6  -5 9832.27 1538.39   1
  -2   6  -5 12232.6 1014.82   3
   2   4  -5 12888.3 1670.03   1
   6  -4  -5 13404.2 1798.49   1
   2   4  -2 11707.0 1174.00   4
   4  -6  -2 11125.8 1099.34   1
  -6   2  -2 9905.84 772.290   1
   6  -4  -2 8680.55 744.890   4
  -4  -2  -2 10346.3 878.021   1
   2   4  -2 9385.70 1042.05   2
  -2   6  -2 11289.8 1227.26   2
  -2   6  -2 9391.00 1119.47   4
  -4  -2  -2 10225.5 1091.28   3
   6  -4  -2 11219.7 1079.72   1
   2   4  -2 10183.2 622.661   3
  -6   2  -2 9748.82 968.512   3
   6  -4  -2 11030.1 735.630   2
   6  -4   1 9019.37 710.166   3
  -2   6   1 10132.6 814.462   1
   2   4   1 8978.78 740.902   2
  -4  -2   1 8737.38 874.755   2
  -6   2   1 8885.67 756.085   2
   2   4   1 9139.53 758.102   4
  -2   6   1 8777.30 589.222   2
  -4  -2   1 8790.77 765.487   1
  -4  -2   1 9674.16 708.841   3
  -6   2   1 9139.75 757.496   1
   2   4   1 9098.92 675.706   1
  -2   6   1 10184.7 1039.31   3
   4  -6   1 8493.24 950.732   2
  -4  -2   1 10292.7 835.041   4
  -2   6   1 8613.17 572.067   4
  -6   2   1 8224.24 617.967   4
   4  -6   1 8744.41 802.349   4
   2   4   1 8404.51 911.020   3
   4  -6   4 6753.78 704.330   3
  -2   6   4 6451.11 1068.96   1
   2   4   4 5620.09 958.716   1
   4  -6   4 6599.39 1194.71   2
  -6   2   4 10868.2 1107.61   2
   6  -4   4 5984.49 884.162   3
   6  -4   4 7753.69 1228.30   2
  -4  -2   4 5834.55 1106.36   1
  -2   6   4 6942.79 746.577   2
  -2   6   4 8038.13 1348.65   3
  -4  -2   4 6610.73 1014.54   2
   6  -4   4 5393.49 1046.78   4
   6  -4   4 6503.41 985.911   1
  -6   2   4 9886.80 1215.62   4
  -6   2   4 5966.55 1067.23   1
   4  -6   4 6825.26 1131.32   1
   2   4   4 6846.81 1217.22   3
  -4  -2   4 6948.21 1154.31   4
   4  -6   4 7378.20 1306.03   4
   2   4   7 16461.5 2416.48   4
   2   4   7 15667.2 2213.38   3
   6  -4   7 16899.1 1922.32   3
  -2   6   7 17967.0 2320.57   4
   2   4   7 14850.8 1959.80   2
  -6   2   7 16365.5 1791.28   2
  -6   2   7 16232.7 2013.59   4
  -2   6   7 16015.3 1691.12   2
   4  -6   7 15820.7 2269.84   4
   6  -4   7 16309.6 2215.05   2
  -4  -2   7 17619.2 2062.16   2
   4  -6   7 17456.4 2333.18   2
   6  -4   7 15255.6 2329.23   4
  -4  -2   7 13418.4 1855.44   4
  -2   6  10 1947.88 1018.96   2
   2   4  10 1822.40 1192.58   2
  -6   2  10 2763.59 1043.55   2
  -2   6  10 1532.52 1002.12   4
   6  -4  10-4.53394 1108.76   2
  -4  -2  10 1914.97 1152.81   4
   6  -4  10-367.811 918.365   4
  -4  -2  10 1257.91 871.464   2
  -6   2  10 1788.61 1314.78   4
   4  -6  10 493.453 1050.36   2
   4  -6  10 1549.03 1211.59   4
   2   4  10-587.407 1203.80   4
   3  -6  -9 1310.43 1267.82   1
  -6   3  -9-453.695 677.411   1
  -3   6  -9 832.535 986.488   1
   6  -3  -9 599.517 908.700   1
   3   3  -9-806.198 910.536   1
  -3  -3  -9-1364.84 1037.50   1
  -3   6  -6 18600.3 1487.55   3
   3   3  -6 16647.4 1759.50   3
   6  -3  -6 18035.9 1707.03   2
  -6   3  -6 14935.3 1775.95   3
   3   3  -6 20818.2 2335.53   1
  -3  -3  -6 18334.3 2105.23   1
   3  -6  -6 18675.4 2246.04   1
  -6   3  -6 18893.7 2001.18   1
  -3   6  -6 19132.9 2192.83   1
   6  -3  -6 19164.9 2210.38   1
   3   3  -3 3100.15 703.131   2
   6  -3  -3 3694.23 597.397   2
  -3   6  -3 2500.88 731.828   4
  -3   6  -3 2288.33 252.486   3
   3  -6  -3 2251.15 590.896   1
   3  -6  -3 3472.13 823.588   3
  -3  -3  -3 2791.72 668.054   1
  -6   3  -3 2627.58 577.342   3
   6  -3  -3 4271.91 790.863   1
   3   3  -3 3794.60 844.320   4
  -3   6  -3 3625.99 865.463   2
   3   3  -3 3570.26 798.635   1
   6  -3  -3 3313.83 661.677   4
  -6   3  -3 2711.10 567.302   1
  -3  -3  -3 2736.46 739.079   3
  -3   6   0 163336. 2501.93   4
  -6   3   0 151721. 2951.72   3
   3  -6   0 164399. 2281.29   4
  -3  -3   0 167731. 2991.70   4
  -3  -3   0 164077. 3252.44   2
   6  -3   0 152869. 2009.81   1
   3  -6   0 157022. 2997.93   2
  -6   3   0 159540. 1881.07   1
   3   3   0 162803. 3328.27   2
  -3  -3   0 162630. 3102.52   3
   6  -3   0 156612. 2228.95   4
  -3   6   0 148564. 3004.59   2
   3   3   0 140747. 2798.88   4
   3   3   0 159155. 3232.08   3
   6  -3   0 164764. 3067.55   3
   3   3   3 2465.50 511.095   1
   3   3   3 3806.02 894.997   3
   3  -6   3 2428.61 302.071   3
  -6   3   3 2765.90 721.230   1
   3  -6   3 2919.63 792.483   4
  -3   6   3 1785.04 275.105   2
  -3  -3   3 3660.78 731.067   2
  -3   6   3 3700.47 852.855   1
  -3  -3   3 2294.56 531.790   4
  -6   3   3 2881.90 582.365   4
  -3  -3   3 2331.18 645.883   1
  -6   3   3 3674.42 530.159   2
   3  -6   3 2609.62 611.967   1
   6  -3   3 3337.54 664.039   1
   3  -6   3 4056.65 921.779   2
   6  -3   3 2984.39 577.500   3
   6  -3   6 20177.3 2011.39   3
  -3   6   6 19284.7 2204.97   4
   3  -6   6 20922.7 2339.54   2
   3   3   6 17481.9 1951.89   2
   3   3   6 18045.0 2137.90   3
  -3  -3   6 21268.4 2117.44   2
  -6   3   6 18188.0 1669.89   2
   3  -6   6 20495.5 2416.86   4
   6  -3   6 18774.9 2259.51   2
  -6   3   6 18527.4 1990.08   4
   6  -3   6 15079.9 2100.52   4
  -3   6   6 19591.4 1565.71   2
  -3  -3   6 18915.9 2123.03   4
   3  -6   9-644.837 929.419   2
   6  -3   9-81.4286 642.118   3
  -3   6   9 421.827 928.023   4
   3   3   9-1572.33 1380.13   3
  -6   3   9 2097.57 1093.12   4
   6  -3   9 1597.78 1174.99   4
   3   3   9 186.259 780.947   2
  -3   6   9-28.4104 600.564   2
  -3  -3   9 255.575 1239.13   4
  -3  -3   9-892.778 796.849   2
   3  -6   9-964.903 883.859   4
   3   3   9 358.426 911.701   4
  -6   3   9 638.162 778.938   2
   6  -3   9-159.286 837.292   2
   2  -6 -10-204.962 1097.23   1
  -6   4 -10 1852.20 1362.63   1
  -4   6 -10 1788.29 1058.19   1
   6  -2 -10 3214.47 1467.62   1
   4   2 -10 3019.58 1473.85   1
  -2  -4 -10 344.606 852.448   1
   2  -6  -7 13913.5 2127.88   1
   4   2  -7 12997.4 1674.14   3
  -4   6  -7 15380.8 2096.45   1
   6  -2  -7 14551.5 1717.34   2
   4   2  -7 16660.9 2279.01   1
  -2  -4  -7 14111.6 2035.78   1
  -4   6  -7 15348.7 1575.36   3
   6  -2  -7 16740.0 2282.59   1
  -6   4  -7 14433.0 1765.36   3
  -6   4  -7 14682.2 1946.92   1
  -4   6  -4 4992.73 1106.38   2
   4   2  -4 8900.54 1272.73   4
   2  -6  -4 6004.08 1062.37   1
  -6   4  -4 5931.56 930.106   1
  -2  -4  -4 5579.97 1059.61   1
  -4   6  -4 6139.54 1041.33   1
   6  -2  -4 5656.89 1014.27   4
   6  -2  -4 6113.58 1109.53   1
  -4   6  -4 6125.83 609.013   3
   6  -2  -4 7098.78 996.408   2
   4   2  -4 5663.70 1016.93   2
  -4   6  -4 4817.83 1011.25   4
  -2  -4  -4 6946.75 1212.56   3
   4   2  -4 5972.86 1111.54   1
  -6   4  -4 5295.79 773.505   3
   2  -6  -4 6576.92 1205.94   3
  -2  -4  -1 10013.2 779.622   2
  -2  -4  -1 11075.9 773.419   1
  -6   4  -1 10312.6 766.473   3
   6  -2  -1 8330.30 735.410   1
   6  -2  -1 9556.49 776.750   2
   2  -6  -1 10001.2 821.115   1
   4   2  -1 10375.0 758.443   3
  -2  -4  -1 9383.52 758.580   4
   4   2  -1 9536.26 813.774   4
   6  -2  -1 9756.74 694.500   4
   6  -2  -1 9772.56 829.312   3
  -4   6  -1 8858.64 953.991   2
  -4   6  -1 8984.21 832.580   4
   2  -6  -1 9686.25 578.021   2
  -2  -4  -1 9206.99 945.775   3
   4   2  -1 8324.73 823.907   2
   2  -6  -1 9513.79 953.923   3
  -2  -4   2 10262.4 1050.07   1
   6  -2   2 9280.29 944.525   3
   6  -2   2 9369.07 763.304   1
  -2  -4   2 7945.65 863.147   4
  -4   6   2 10692.5 1037.61   1
   4   2   2 9081.03 756.495   1
   2  -6   2 10287.6 1034.08   4
  -6   4   2 10280.4 1064.71   1
   2  -6   2 9488.99 1109.96   2
  -2  -4   2 10632.7 1086.04   2
  -6   4   2 9829.54 681.363   2
  -6   4   2 9677.98 725.332   4
   4   2   2 10763.9 1188.57   3
   4   2   5 10831.7 1414.47   1
  -2  -4   5 10881.0 1493.78   4
  -4   6   5 13228.8 1050.80   2
   6  -2   5 11563.1 1581.44   2
  -6   4   5 13648.3 1571.95   4
   6  -2   5 12541.4 1473.11   1
   2  -6   5 12616.4 1730.49   4
  -2  -4   5 12667.2 1546.05   2
   2  -6   5 13827.4 1824.88   2
  -4   6   5 11493.7 1486.45   4
   6  -2   5 12104.5 1506.75   3
   4   2   5 12693.4 1694.28   3
  -6   4   5 12953.5 1166.79   2
   6  -2   5 12162.7 1799.25   4
  -6   4   8 594.558 542.824   2
   4   2   8 461.977 635.996   2
  -2  -4   8-139.426 626.599   2
   4   2   8 774.931 742.882   3
   4   2   8 462.542 851.941   4
  -6   4   8 326.986 637.191   4
   2  -6   8-327.100 882.850   4
  -2  -4   8 1310.31 1296.35   4
   6  -2   8-558.617 784.540   4
   6  -2   8 197.856 717.740   2
   6  -2   8-1083.15 944.270   3
  -4   6   8 1138.48 545.620   2
  -4   6   8 127.443 649.158   4
   2  -6   8 440.877 718.221   2
   4   2  11 2065.40 1188.22   2
   6  -2  11 5549.21 2029.30   4
   2  -6  11 1462.86 1576.93   4
  -2  -4  11 2031.66 1014.68   4
  -2  -4  11 3975.52 1415.30   2
  -6   4  11 3042.89 1359.47   4
  -4   6  11 1650.00 924.760   2
   2  -6  11 2662.13 1199.13   2
  -4   6  11 2244.82 1566.62   4
   4   2  11 6244.69 1968.43   4
   6  -2  11 2411.36 1380.60   2
  -6   4  11 3649.12 1315.75   2
   6  -1 -11 2351.08 1157.71   1
   1  -6 -11 652.854 1075.06   1
   5   1 -11 1726.32 1106.73   1
  -6   5 -11 1597.65 1188.97   1
  -1  -5 -11 763.611 1046.89   1
  -5   6 -11 2533.96 1601.96   1
  -5   6  -8 944.194 645.440   3
   6  -1  -8 579.581 976.846   1
  -6   5  -8 350.677 750.006   1
  -5   6  -8 1945.28 954.096   1
   5   1  -8 251.557 792.584   1
  -1  -5  -8 1380.92 987.833   1
   1  -6  -8 438.235 1023.33   1
   5   1  -5 5069.94 1126.51   4
   6  -1  -5 6015.32 1229.54   1
   6  -1  -5 5727.59 1120.73   4
  -5   6  -5 5830.77 747.723   3
   5   1  -5 3929.42 900.092   2
   5   1  -5 6164.49 1298.46   1
  -1  -5  -5 3772.05 944.596   3
  -6   5  -5 4723.50 811.981   3
  -1  -5  -5 3994.33 911.346   1
   1  -6  -5 6358.72 1196.19   1
  -5   6  -5 5590.55 1138.51   1
   6  -1  -5 7413.74 1134.24   2
  -6   5  -5 5780.73 1045.99   1
  -5   6  -2 1106.95 543.106   2
  -5   6  -2 787.872 202.749   3
  -1  -5  -2 603.256 347.651   1
   1  -6  -2 1150.56 470.574   1
   5   1  -2 668.964 289.874   2
   5   1  -2 220.381 271.841   4
   6  -1  -2 573.958 290.520   4
   1  -6  -2 959.270 576.217   3
   6  -1  -2 329.593 415.528   1
   6  -1  -2 863.011 258.309   2
  -5   6  -2 1311.76 538.548   4
  -1  -5  -2 1444.65 590.713   3
   5   1  -2 75.8691 281.819   1
   5   1  -2 830.488 339.199   3
  -6   5  -2 951.503 293.148   3
  -1  -5   1 37833.0 1868.72   2
  -1  -5   1 35290.2 1155.15   3
   6  -1   1 34873.9 1661.59   3
   5   1   1 37699.6 1556.00   4
  -5   6   1 37475.1 1578.71   1
  -1  -5   1 38646.4 1625.88   4
  -6   5   1 35795.5 1495.00   1
   1  -6   1 33341.0 1493.36   4
   5   1   1 38069.6 1741.30   2
   1  -6   1 35644.7 1088.40   3
   5   1   1 36136.4 869.977   1
   5   1   1 36455.1 1768.92   3
   1  -6   1 36019.1 1814.60   2
   1  -6   4 765.530 551.166   2
   5   1   4-150.375 525.946   3
   6  -1   4 18.6412 354.427   1
   6  -1   4 830.937 465.119   3
  -5   6   4-75.1529 462.893   1
   5   1   4-79.4119 402.591   1
  -5   6   4 246.507 431.172   4
  -1  -5   4 192.109 424.341   1
  -6   5   4 123.099 460.323   1
  -6   5   4-173.666 419.531   4
  -6   5   4 686.212 238.190   2
   1  -6   4 471.668 381.995   4
   1  -6   4 2.59164 401.345   1
  -1  -5   4 804.306 481.780   4
  -5   6   4-19.5783 188.656   2
  -1  -5   4 741.401 393.827   2
   5   1   7 11913.1 2102.49   4
  -1  -5   7 15790.4 2053.82   2
   5   1   7 18109.0 2254.34   3
  -1  -5   7 14300.4 2075.27   4
   6  -1   7 13443.7 2079.49   2
   6  -1   7 14586.7 2323.88   4
   6  -1   7 15711.0 2035.57   3
   5   1   7 13300.5 1969.94   2
   1  -6   7 13857.1 2094.91   4
  -5   6   7 13444.7 1963.69   4
  -5   6   7 13052.9 1362.44   2
   1  -6   7 14407.8 2073.03   2
  -6   5   7 13716.7 1449.57   2
  -6   5   7 15158.4 1925.09   4
   5   1  10 895.485 953.398   3
   5   1  10 1640.62 1376.92   2
   1  -6  10 2769.77 1393.79   2
  -6   5  10 184.369 693.700   2
   6  -1  10 2021.12 1347.16   2
  -6   5  10 1071.31 839.706   4
  -5   6  10-167.358 584.681   2
   6  -1  10 1535.71 1134.36   3
   6  -1  10 562.542 1326.17   4
  -1  -5  10 1904.84 1092.37   2
  -1  -5  10 332.077 1032.00   4
  -5   6  10 814.200 1085.75   4
   5   1  10 969.728 995.636   4
   1  -6  10 87.2881 926.459   4
  -6   6  -9-1032.58 780.948   1
   0  -6  -9 193.262 742.477   1
   6   0  -9-328.187 761.905   1
  -6   6  -6 14386.5 1388.27   3
   6   0  -6 17309.1 2104.21   1
   6   0  -6 16723.6 1961.88   2
   0  -6  -6 17051.4 2168.11   1
  -6   6  -6 17107.6 1953.50   1
   6   0  -3 797.719 533.482   1
  -6   6  -3-27.5940 205.275   3
   6   0  -3 821.845 489.632   4
   0  -6  -3 67.1360 320.534   1
   6   0  -3 237.549 333.049   2
   0  -6  -3 87.1663 390.914   3
   0  -6   0 4428.01 635.960   2
   6   0   0 4548.79 648.637   3
   0  -6   0 5154.26 595.504   4
   6   0   0 4792.42 660.729   2
   6   0   0 5477.49 593.213   4
   0  -6   0 4675.00 648.947   3
   0  -6   3-44.3289 367.868   2
  -6   6   3 205.702 144.152   2
   6   0   3-867.081 504.338   3
   0  -6   3 297.564 477.248   4
  -6   6   3-81.8807 230.508   4
   0  -6   3 152.235 443.471   1
   6   0   3 314.080 249.045   1
  -6   6   3 37.3001 364.531   1
  -6   6   6 14063.5 1756.88   4
  -6   6   6 14583.5 1268.63   2
   6   0   6 12837.9 1942.56   2
   6   0   6 13647.2 1820.39   3
   0  -6   6 14649.2 1961.18   2
   0  -6   6 14973.1 1997.05   4
  -6   6   9 633.233 585.101   2
   6   0   9 518.415 1344.08   4
   6   0   9-804.539 718.027   3
   0  -6   9 398.045 721.487   2
   6   0   9 1458.27 1047.03   2
   0  -6   9 1313.33 941.865   4
  -6   6   9 1230.09 1153.26   4
   0   7 -10 13684.9 2504.73   1
  -7   0 -10 14821.5 2322.66   1
   7  -7 -10 12508.3 2515.94   1
   0   7  -7 1010.02 915.655   1
   7  -7  -7 611.212 730.280   1
   0   7  -7 620.647 512.733   3
  -7   0  -7 465.449 520.199   1
   0   7  -4 3903.20 948.121   2
   0   7  -4 3745.56 335.825   3
   7  -7  -4 3784.61 475.454   2
   0   7  -4 3060.04 419.022   3
  -7   0  -4 3281.81 717.690   1
  -7   0  -4 6664.79 1212.05   3
   0   7  -4 4129.81 1050.39   4
   7  -7  -4 4547.31 1042.03   1
  -7   0  -1-74.4926 295.964   3
   0   7  -1-161.717 293.773   2
   7  -7  -1 302.376 297.949   1
   0   7  -1-102.234 298.390   4
   0   7  -1 866.365 358.411   3
  -7   0   2 24976.6 1587.36   2
  -7   0   2 24276.4 1644.64   1
   0   7   2 22169.2 1804.87   3
   7  -7   2 25854.5 2004.13   2
   7  -7   2 22825.8 1662.82   4
  -7   0   2 21978.1 1428.26   4
   0   7   2 22230.8 1448.72   1
   0   7   2 22069.4 1167.47   2
   0   7   2 23426.7 1340.09   4
   7  -7   2 22746.5 1152.45   3
   7  -7   5 109.792 348.062   3
   7  -7   5-62.0780 536.197   4
  -7   0   5-40.7640 393.846   4
   7  -7   5 112.711 438.118   1
   0   7   5-3.89407 853.724   3
   7  -7   5 355.579 603.860   2
  -7   0   5 203.422 420.057   2
   7  -7   8 22834.9 2211.04   3
   0   7   8 24646.6 2425.79   2
  -7   0   8 20943.1 2493.97   4
  -7   0   8 22446.5 2428.73   2
   0   7   8 22185.8 3010.90   4
   7  -7   8 24575.2 2973.96   2
   7  -7   8 22724.8 3079.35   4
   7  -7  11 632.564 1095.33   2
   0   7  11 1314.03 1111.73   2
   7  -7  11 1198.71 1458.28   4
  -7   0  11 1794.70 1149.66   2
   0   7  11 946.636 1428.02   4
  -7   0  11 592.417 922.404   4
   6  -7 -11 3207.01 1553.27   1
  -6  -1 -11 3021.11 1439.30   1
   1   6 -11 3454.24 1632.69   1
  -1   7 -11 2374.62 1307.09   1
  -7   1 -11 531.680 933.471   1
   7  -6 -11 6846.49 2199.86   1
   6  -7  -8 3450.28 1329.34   1
   7  -6  -8 1251.50 1236.17   1
  -7   1  -8 1706.79 748.728   1
   1   6  -8 1064.83 774.866   1
  -1   7  -8 2746.40 1088.76   1
  -1   7  -8 1275.48 655.499   3
  -6  -1  -8 1820.07 899.103   1
   1   6  -8 2040.90 775.692   3
   6  -7  -5 5918.99 1251.93   1
  -6  -1  -5 5966.01 1163.67   3
   1   6  -5 6730.64 1220.63   1
   1   6  -5 4934.86 698.355   3
  -6  -1  -5 5470.21 1029.96   1
  -1   7  -5 5657.08 665.786   3
  -7   1  -5 6293.09 1000.20   1
  -7   1  -5 5561.61 1080.50   3
   7  -6  -5 6325.56 784.318   2
  -1   7  -5 4984.16 1187.49   1
   7  -6  -5 6941.76 1341.98   1
   1   6  -2 2073.06 519.261   4
   1   6  -2 2693.10 333.666   3
  -1   7  -2 2340.71 568.974   4
  -7   1  -2 2420.52 558.229   3
   1   6  -2 2653.88 693.696   2
   6  -7  -2 2104.58 549.681   1
   7  -6  -2 1703.17 265.222   2
   7  -6  -2 2762.37 417.802   4
   7  -6  -2 2369.68 539.796   1
  -6  -1  -2 2208.10 385.679   1
  -1   7  -2 2755.68 717.587   2
  -7   1  -2 2707.59 390.664   1
  -6  -1  -2 2647.78 625.124   3
   6  -7   1 1990.38 336.694   3
   1   6   1 2083.37 572.922   3
  -6  -1   1 2169.57 452.545   4
   1   6   1 1487.94 383.902   2
   6  -7   1 1740.49 436.134   4
  -7   1   1 1864.97 381.038   3
   1   6   1 2059.70 415.703   4
  -7   1   1 1797.30 368.662   4
  -1   7   1 2131.89 411.221   2
  -7   1   1 2306.30 483.505   2
   7  -6   1 1902.94 456.375   4
   7  -6   1 2157.97 410.279   3
  -1   7   1 2224.61 333.297   4
  -6  -1   1 2136.74 437.395   3
  -7   1   1 2125.65 451.953   1
  -6  -1   1 1426.96 394.846   1
  -1   7   1 2052.02 676.024   3
  -6  -1   1 1869.12 490.305   2
   6  -7   1 2004.79 583.067   2
   1   6   4 10687.5 1510.76   3
   1   6   4 7926.46 1137.56   1
  -6  -1   4 8785.44 1326.62   1
  -6  -1   4 8210.03 1194.86   4
   6  -7   4 9200.51 1224.48   1
   7  -6   4 9844.66 1226.08   1
  -6  -1   4 8819.72 1148.97   2
   6  -7   4 7911.24 1337.32   2
  -7   1   4 8561.81 1324.42   1
   6  -7   4 9500.86 899.415   3
   7  -6   4 8682.68 1416.36   4
  -1   7   4 7617.30 1161.14   1
  -1   7   4 11210.8 1600.93   3
  -7   1   4 7548.56 952.162   2
   7  -6   4 7447.16 1404.13   2
   7  -6   4 9071.22 1011.40   3
  -7   1   4 8121.64 1036.55   4
   6  -7   4 10384.7 1499.13   4
  -1   7   7 4245.85 964.853   2
   1   6   7 6342.92 1588.28   4
   1   6   7 4426.74 1280.16   3
  -7   1   7 4459.06 1044.79   2
   6  -7   7 5533.67 1068.19   3
  -6  -1   7 3444.99 1016.30   4
  -7   1   7 3224.17 1055.50   4
   7  -6   7 7834.45 1854.30   4
   6  -7   7 3550.05 1180.28   4
   6  -7   7 4109.94 1226.20   2
   7  -6   7 6180.83 1536.36   2
  -1   7   7 4642.99 1373.05   4
  -6  -1   7 4410.97 1117.09   2
   7  -6   7 5039.79 1190.95   3
   1   6   7 3863.51 1014.85   2
   7  -6  10 1484.72 968.065   4
   1   6  10-35.5729 951.845   4
  -1   7  10 977.478 847.035   2
   1   6  10 2165.37 1324.77   2
   7  -6  10-569.813 931.409   2
   6  -7  10-2144.56 1366.57   4
  -7   1  10 453.433 794.210   2
  -7   1  10 1221.69 987.295   4
   6  -7  10-1371.09 882.067   2
  -6  -1  10 2390.99 1063.61   2
  -6  -1  10 603.337 1187.46   4
  -1   7  10 1097.30 1436.82   4
   2   5  -9 450.860 799.456   1
  -2   7  -9 1741.45 1208.04   1
  -5  -2  -9 1293.18 930.872   1
  -2   7  -9 1128.95 616.884   3
   5  -7  -9 2628.12 1300.10   1
   7  -5  -9 3510.37 1256.14   1
  -7   2  -9 4418.57 1310.93   1
   2   5  -6 5522.92 929.874   3
  -5  -2  -6 10085.0 1608.81   1
  -2   7  -6 9467.77 1630.76   1
   7  -5  -6 8463.37 1595.02   1
  -2   7  -6 8226.60 892.737   3
  -7   2  -6 6679.96 1226.45   3
   2   5  -6 8548.69 1429.73   1
   7  -5  -6 8204.49 1084.44   2
   5  -7  -6 7063.96 1470.22   1
  -7   2  -6 8427.93 1338.61   1
   7  -5  -3 34610.7 1800.42   4
   2   5  -3 36537.6 2377.27   4
  -2   7  -3 33105.4 2367.43   2
   2   5  -3 36318.9 2383.15   2
   7  -5  -3 34594.4 1471.22   2
  -7   2  -3 35861.3 1738.65   1
  -7   2  -3 32261.2 2035.55   3
   5  -7  -3 35081.9 2392.83   3
   2   5  -3 33582.3 1187.45   3
   5  -7  -3 34647.6 2290.26   1
   2   5  -3 37684.3 2299.71   1
  -5  -2  -3 34812.7 1934.43   1
   7  -5  -3 36918.0 2318.25   1
  -5  -2  -3 36859.2 2315.41   3
  -2   7  -3 38387.2 2515.98   4
  -5  -2   0 61895.6 2077.01   3
  -2   7   0 61689.3 1837.84   4
  -2   7   0 56395.5 2085.75   2
   7  -5   0 63106.2 2002.73   3
  -5  -2   0 62465.0 1994.79   4
  -2   7   0 62078.4 2171.09   3
  -5  -2   0 66205.2 2274.51   2
   7  -5   0 62984.2 1627.00   1
   5  -7   0 60133.7 1288.46   4
   5  -7   0 65371.3 2024.33   1
  -7   2   0 61420.1 2106.39   3
   2   5   0 62605.4 2056.71   4
   2   5   0 67270.9 2353.94   2
  -7   2   0 61167.3 1801.19   4
   2   5   0 64097.0 2265.36   3
   5  -7   0 57933.0 2035.15   2
   5  -7   3 37560.3 2402.04   4
   2   5   3 40783.3 2082.10   1
   7  -5   3 42488.3 2662.55   4
   2   5   3 37470.3 1735.85   2
  -7   2   3 34588.7 1818.11   2
   7  -5   3 37819.8 2012.92   1
   7  -5   3 36478.9 1829.16   3
  -7   2   3 38463.1 1972.37   4
   2   5   3 42459.0 2706.05   3
  -5  -2   3 43234.1 2319.43   4
  -2   7   3 37397.9 2202.45   1
   5  -7   3 34628.5 2118.99   1
   5  -7   3 36738.3 1280.58   3
  -5  -2   3 39155.0 2222.43   2
   5  -7   3 38835.6 2524.92   2
  -2   7   3 38325.9 1143.34   2
  -2   7   3 31251.6 2372.07   3
   7  -5   3 41935.2 2625.06   2
  -7   2   3 40964.1 2432.88   1
  -5  -2   3 41276.4 2447.68   1
   7  -5   6 5197.25 1284.04   4
  -2   7   6 5185.38 1286.05   4
  -2   7   6 3889.76 787.312   2
   5  -7   6 3809.44 779.420   3
  -7   2   6 4816.41 963.636   2
   2   5   6 3496.50 1318.52   3
   7  -5   6 4738.98 983.278   3
   5  -7   6 3235.05 1230.56   4
   5  -7   6 3909.96 1053.59   2
  -5  -2   6 5759.04 1202.51   2
  -5  -2   6 3135.90 902.408   4
  -7   2   6 4362.16 1031.50   4
   2   5   6 3038.23 757.465   2
   7  -5   6 3208.23 1103.55   2
  -2   7   9 14496.2 2506.88   4
  -7   2   9 10038.7 1879.87   4
   2   5   9 9894.07 1903.95   2
  -5  -2   9 9871.75 1772.32   2
   7  -5   9 13629.7 2564.91   4
  -2   7   9 10972.1 1616.27   2
   5  -7   9 11716.4 2288.44   2
  -7   2   9 14608.7 1965.08   2
   7  -5   9 10961.6 2211.21   2
   2   5   9 10649.8 2292.29   4
   5  -7   9 11474.4 2266.25   4
   7  -5   9 11685.7 1916.84   3
  -5  -2   9 9160.84 1824.37   4
  -3   7 -10 1402.54 1126.56   1
   7  -4 -10 690.285 1010.50   1
  -7   3 -10 932.044 773.553   1
   3   4 -10 1367.94 838.215   1
  -4  -3 -10 2963.93 1370.75   1
   4  -7 -10 1709.20 1110.21   1
   3   4  -7-53.2064 700.962   1
   7  -4  -7 399.140 567.763   2
   3   4  -7 322.700 496.131   3
  -3   7  -7 1167.97 895.385   1
   4  -7  -7 601.567 631.883   1
  -4  -3  -7 1160.95 632.225   1
  -7   3  -7-159.540 545.611   1
  -3   7  -7 916.223 474.103   3
   7  -4  -7-497.233 690.669   1
   3   4  -4 12379.7 1516.16   1
   4  -7  -4 14861.0 1744.02   3
  -4  -3  -4 12214.6 1399.28   1
   3   4  -4 13031.2 1569.82   2
  -7   3  -4 13720.6 1377.33   1
  -4  -3  -4 14247.0 1557.40   3
  -7   3  -4 12877.6 1334.71   3
   7  -4  -4 13997.1 1396.73   4
  -3   7  -4 14439.0 1703.62   4
   7  -4  -4 11325.9 1441.58   1
   3   4  -4 14891.9 1720.90   4
   7  -4  -4 16234.6 1303.57   2
  -3   7  -4 12045.6 639.091   3
  -3   7  -4 12690.5 1614.03   2
   4  -7  -4 10052.7 1401.51   1
   7  -4  -1 24668.6 1177.75   2
  -4  -3  -1 22429.3 984.393   1
  -4  -3  -1 23401.3 1519.62   3
  -3   7  -1 22024.9 1345.24   4
   4  -7  -1 23922.0 1353.00   1
  -4  -3  -1 22798.4 1373.46   2
   4  -7  -1 22130.2 894.268   2
  -3   7  -1 22554.1 1559.39   2
   3   4  -1 19153.0 1223.98   4
  -7   3  -1 23877.7 1287.59   3
   3   4  -1 26400.3 1635.50   2
   7  -4  -1 23077.8 1235.30   1
   3   4  -1 23126.8 1164.52   3
   7  -4  -1 22658.7 913.837   4
   7  -4   2 6029.51 780.317   3
   3   4   2 6436.68 680.365   1
   4  -7   2 7478.77 1059.79   2
  -7   3   2 6703.85 714.597   2
   4  -7   2 6391.36 360.991   3
  -3   7   2 5779.23 775.954   1
  -4  -3   2 6801.52 888.749   1
   3   4   2 5178.89 895.073   3
   7  -4   2 7825.02 721.982   1
  -7   3   2 7371.57 693.728   4
   3   4   2 6054.50 710.704   2
  -4  -3   2 7198.60 831.828   4
   4  -7   2 6983.54 873.008   4
  -4  -3   2 8848.67 980.005   2
  -4  -3   2 7028.63 612.233   3
  -7   3   2 8352.38 991.547   1
   7  -4   5 2219.08 1007.17   2
  -7   3   5 2075.70 590.451   2
   4  -7   5 792.043 746.779   4
  -7   3   5 1581.68 603.520   4
  -3   7   5 1923.82 521.954   2
   4  -7   5 2227.10 867.890   2
   3   4   5 1216.44 634.837   1
  -3   7   5 2659.61 966.313   4
  -4  -3   5 1599.15 584.822   2
   3   4   5 2341.26 830.529   3
   7  -4   5 1000.67 543.287   3
   7  -4   5 3463.11 1002.42   4
  -4  -3   5 924.138 776.172   4
   7  -4   5 2439.63 805.073   1
  -4  -3   8 3785.10 1203.37   4
   3   4   8-420.901 929.270   4
   7  -4   8 529.401 844.430   2
   3   4   8 2633.66 1173.82   2
  -7   3   8 3880.97 1062.02   2
   7  -4   8 2882.84 1124.33   3
  -3   7   8 3960.65 1360.70   4
  -3   7   8 1943.11 639.227   2
  -7   3   8 2605.60 1026.20   4
   4  -7   8 1989.85 1169.35   4
   4  -7   8 3097.32 1247.09   2
   7  -4   8 1308.67 757.571   4
  -4  -3   8 1793.16 869.920   2
   3   4   8 3481.85 1163.74   3
  -3   7  11 554.420 1232.62   4
   4  -7  11 162.406 1095.86   4
   3   4  11 1026.08 935.162   2
   4  -7  11 993.890 1036.62   2
   3   4  11 1114.83 1123.36   4
   7  -4  11 1897.79 1261.67   4
  -4  -3  11 891.473 850.336   2
  -7   3  11 922.526 842.596   2
   7  -4  11 1412.53 1307.37   2
  -3   7  11-144.723 771.716   2
  -7   3  11 1342.00 1086.73   4
  -4  -3  11 3283.20 1659.30   4
  -3  -4 -11 2362.89 1454.07   1
   4   3 -11 1792.22 1585.59   1
   3  -7 -11 1257.74 954.761   1
   7  -3 -11 2914.51 1559.76   1
  -4   7 -11 274.190 988.174   1
  -7   4 -11 2994.45 1520.22   1
   3  -7  -8 1221.63 972.495   1
  -4   7  -8 971.214 691.029   3
  -3  -4  -8 1044.42 703.590   1
   7  -3  -8 3511.64 1293.60   1
  -7   4  -8 2499.27 1061.50   1
  -4   7  -8 2914.25 902.237   1
   4   3  -8 88.8732 678.440   1
   7  -3  -5 2516.40 751.492   4
  -3  -4  -5 1189.67 634.525   1
  -7   4  -5 2776.41 819.089   3
   7  -3  -5 2140.46 877.791   1
   7  -3  -5 2835.51 707.355   2
  -7   4  -5 1963.51 592.917   1
   4   3  -5 1097.72 705.411   2
   3  -7  -5 1650.13 687.503   1
  -4   7  -5 1829.87 546.754   1
   4   3  -5 2371.29 751.731   1
  -4   7  -5 1464.56 380.514   3
  -4   7  -2 9991.80 1128.30   4
   7  -3  -2 10077.1 861.735   2
  -3  -4  -2 9600.74 1152.27   3
   4   3  -2 9694.71 741.522   3
  -7   4  -2 9112.30 862.181   3
   7  -3  -2 9037.28 826.464   4
   4   3  -2 9235.62 986.937   1
   4   3  -2 8407.42 961.202   4
  -4   7  -2 9219.32 1157.81   2
   7  -3  -2 8800.60 987.030   1
   3  -7  -2 8635.50 984.484   1
  -3  -4  -2 8678.26 870.033   1
   4   3  -2 9165.82 1075.99   2
   3  -7  -2 8968.24 1099.52   3
   3  -7   1 21311.6 961.509   3
  -4   7   1 21219.3 923.635   2
   7  -3   1 21948.2 1278.83   3
  -3  -4   1 22533.7 1067.99   3
   4   3   1 23871.5 1583.42   3
   4   3   1 24075.2 1299.91   4
  -3  -4   1 21922.8 1434.94   2
  -4   7   1 23274.8 769.718   4
   3  -7   1 23701.7 1525.46   2
   4   3   1 23084.6 1328.30   2
  -3  -4   1 22602.8 1359.13   4
   7  -3   1 20840.8 740.351   1
  -7   4   1 21200.1 782.341   4
  -4   7   1 24314.0 1325.92   1
  -7   4   1 22681.1 1171.64   1
   3  -7   1 21830.3 1240.92   4
   3  -7   4 12158.2 1435.51   1
  -4   7   4 13637.9 1442.74   4
  -4   7   4 14565.0 1670.95   1
  -3  -4   4 14652.1 1536.03   2
  -4   7   4 9284.34 658.855   2
   4   3   4 12679.1 1553.86   3
   3  -7   4 13906.1 1689.27   2
  -7   4   4 14932.9 1759.38   1
  -7   4   4 11529.8 1214.37   4
   4   3   4 11279.3 1225.52   1
  -7   4   4 12069.9 1058.08   2
   7  -3   4 13769.4 1364.07   3
   7  -3   4 11531.1 1272.13   1
  -3  -4   4 12001.9 1481.29   1
  -3  -4   4 14501.7 1489.74   4
   3  -7   4 14443.6 1661.21   4
   4   3   7 921.958 679.596   2
  -3  -4   7 1976.84 896.074   2
   7  -3   7 1484.54 874.881   3
  -7   4   7 679.979 669.491   4
   7  -3   7 1770.12 856.927   2
  -3  -4   7 647.872 689.939   4
   4   3   7 949.685 664.385   3
  -7   4   7 1127.32 571.872   2
   4   3   7 531.160 941.350   4
   7  -3   7 911.467 911.271   4
   3  -7   7 581.856 614.997   4
  -4   7   7 784.652 693.206   4
  -4   7   7 929.542 501.849   2
   3  -7   7 1000.73 790.440   2
   3  -7  10 3990.57 1791.32   4
  -7   4  10 2558.21 979.837   2
   4   3  10 2507.78 1440.27   2
   4   3  10 1972.87 1315.41   4
  -7   4  10 1966.13 1189.18   4
   7  -3  10 3569.55 1341.21   3
  -3  -4  10 833.600 1095.08   2
  -3  -4  10 2299.50 1239.80   4
   3  -7  10 2406.65 1281.33   2
  -4   7  10 2283.50 755.922   2
  -4   7  10 2808.59 1216.53   4
   7  -3  10 2949.11 1367.44   2
   7  -3  10 1639.96 1061.15   4
   5   2  -9 11770.4 2286.43   1
   7  -2  -9 11184.0 2232.58   1
  -5   7  -9 11075.5 2124.29   1
  -2  -5  -9 9715.02 1994.54   1
  -7   5  -9 13372.6 2146.98   1
   2  -7  -9 9129.34 2089.12   1
  -5   7  -6 5850.89 1289.92   1
  -5   7  -6 3654.04 675.583   3
   7  -2  -6 4833.28 1070.02   2
   7  -2  -6 6017.83 1446.04   1
   5   2  -6 2854.73 917.193   1
  -7   5  -6 3227.69 841.712   1
  -2  -5  -6 3478.96 961.669   1
   2  -7  -6 2888.35 1054.32   1
  -7   5  -6 3322.31 851.857   3
   5   2  -3 42329.8 2356.78   4
  -5   7  -3 38564.6 1139.41   3
   5   2  -3 42318.8 2413.33   2
  -5   7  -3 38029.9 2435.67   4
   7  -2  -3 42751.0 2436.57   1
   2  -7  -3 40226.8 2377.45   1
  -2  -5  -3 41679.3 2559.83   3
  -5   7  -3 42684.9 2644.70   2
  -2  -5  -3 41940.0 2280.43   1
   5   2  -3 40763.6 2359.24   1
   2  -7  -3 38765.1 2519.48   3
   7  -2  -3 40779.4 2133.98   4
  -7   5  -3 36678.0 1732.78   3
   5   2  -3 38533.8 1688.15   3
   7  -2  -3 40352.9 2023.42   2
   2  -7   0 67359.7 1805.08   4
   7  -2   0 68496.1 2298.76   2
  -5   7   0 62833.9 1546.33   4
   7  -2   0 65118.6 1772.98   4
  -5   7   0 63800.4 2135.73   2
   5   2   0 65701.2 2354.27   2
  -2  -5   0 70057.1 2237.39   3
   2  -7   0 65008.2 2134.66   2
   7  -2   0 66692.4 2204.74   3
   5   2   0 65750.9 2239.55   3
   2  -7   0 64715.7 2185.07   3
  -2  -5   0 65324.9 2018.11   4
   5   2   0 68881.9 2116.32   4
  -2  -5   0 69087.9 2302.95   2
   2  -7   3 36713.2 2454.40   2
  -5   7   3 34348.8 1839.26   4
  -7   5   3 34609.8 2205.59   1
   5   2   3 33821.6 2291.55   3
   7  -2   3 31847.4 1685.14   1
  -2  -5   3 35202.8 2244.38   2
   2  -7   3 32803.3 2179.02   4
  -2  -5   3 28464.0 1935.40   4
   5   2   3 34258.2 1747.60   1
  -5   7   3 35790.0 2217.64   1
   7  -2   3 34151.2 2121.97   3
   2  -7   3 33757.2 2147.96   1
  -7   5   3 34755.2 1376.87   2
  -2  -5   3 35495.2 2260.94   1
  -7   5   3 32958.3 1636.94   4
  -5   7   6 6536.61 1252.51   4
  -5   7   6 8078.81 879.736   2
  -7   5   6 7996.92 1301.52   4
   2  -7   6 9162.39 1722.58   4
   5   2   6 7939.91 1534.02   3
   7  -2   6 9733.67 1663.83   2
   7  -2   6 5944.84 1256.80   3
   5   2   6 6884.37 1323.33   2
  -2  -5   6 7135.21 1380.04   4
  -7   5   6 9838.80 1131.36   2
  -2  -5   6 6415.83 1326.30   2
   2  -7   6 10736.0 1729.56   2
   7  -2   6 8096.83 1780.98   4
   2  -7   9 3279.09 1130.83   2
   2  -7   9 2298.26 1148.42   4
   7  -2   9 1958.40 1242.03   4
  -2  -5   9 3726.24 1293.59   2
  -5   7   9 1843.39 869.269   2
   7  -2   9 3236.84 1341.88   2
   5   2   9 1800.74 1246.17   4
  -7   5   9 3086.36 1198.85   4
   5   2   9 3736.96 1506.23   3
   7  -2   9 1512.86 1052.56   3
   5   2   9 2207.93 1109.03   2
  -2  -5   9 2058.68 957.741   4
  -7   5   9 585.624 794.577   2
  -5   7   9 1994.98 1201.33   4
   1  -7 -10 813.347 815.794   1
  -1  -6 -10-875.230 964.583   1
   7  -1 -10 843.125 1072.27   1
  -6   7 -10 1283.77 1027.08   1
   6   1 -10-18.6073 935.630   1
  -7   6 -10 664.495 704.097   1
   7  -1  -7 4313.23 1269.68   1
   1  -7  -7 3382.87 956.879   1
  -6   7  -7 3243.46 781.558   3
  -7   6  -7 3311.30 1077.77   1
  -6   7  -7 4869.90 1224.29   1
  -7   6  -7 3137.80 841.153   3
  -1  -6  -7 4645.65 1232.89   1
   6   1  -7 5667.04 1465.78   1
   7  -1  -4 10206.6 1322.52   4
  -6   7  -4 8261.98 739.801   3
  -1  -6  -4 8255.85 1340.11   3
   6   1  -4 9355.12 1324.70   4
   6   1  -4 10897.7 1343.44   2
   1  -7  -4 8123.50 1293.99   3
  -7   6  -4 8400.91 1133.58   1
  -6   7  -4 6997.69 1245.30   4
  -7   6  -4 7682.82 860.081   3
  -1  -6  -4 8342.12 1252.22   1
   7  -1  -4 7619.96 1069.37   2
   7  -1  -4 9328.64 1363.43   1
   6   1  -4 9595.73 1376.24   1
   1  -7  -4 8326.69 1337.20   1
   1  -7  -1 2450.81 422.473   4
   7  -1  -1 2954.78 533.771   3
   7  -1  -1 1509.14 339.827   1
   6   1  -1 2341.44 484.232   3
   1  -7  -1 2549.82 391.354   2
  -6   7  -1 1884.96 443.863   4
   1  -7  -1 2331.11 493.559   1
   6   1  -1 1799.39 381.109   1
  -1  -6  -1 2373.55 587.014   3
  -1  -6  -1 2839.96 475.218   2
   7  -1  -1 2654.49 425.403   4
   1  -7  -1 2535.06 602.716   3
  -1  -6  -1 2118.60 411.660   4
   6   1  -1 2310.75 481.825   4
  -1  -6  -1 2237.15 470.815   1
   6   1  -1 2095.46 553.794   2
   7  -1  -1 1872.68 474.380   2
  -1  -6   2 2330.78 590.717   4
  -1  -6   2 3001.16 329.441   3
   6   1   2 2461.26 663.747   3
   1  -7   2 2657.39 683.881   2
   6   1   2 2774.19 408.579   1
  -1  -6   2 2921.59 681.852   2
  -1  -6   2 3172.66 687.291   1
  -6   7   2 2890.05 407.886   4
   7  -1   2 3442.37 648.851   3
  -7   6   2 2490.05 562.312   1
  -6   7   2 3168.59 638.391   1
   7  -1   2 2420.33 369.174   1
   1  -7   2 3112.51 703.693   4
  -7   6   2 2624.42 354.305   4
   6   1   5 6844.41 1325.48   3
  -1  -6   5 7188.09 1280.39   2
  -6   7   5 5550.52 1018.92   4
   6   1   5 7601.80 1180.48   1
   7  -1   5 7153.97 1077.15   1
  -7   6   5 5850.80 1034.16   4
   1  -7   5 6471.41 1258.82   4
  -1  -6   5 7443.71 1273.10   4
  -6   7   5 7643.53 746.402   2
   7  -1   5 7361.08 1264.14   3
  -7   6   5 8682.63 858.375   2
   1  -7   5 7252.06 1311.95   2
   1  -7   8 3371.44 1233.71   4
   7  -1   8 2786.52 1187.63   3
  -7   6   8 2488.71 751.572   2
   7  -1   8 3870.69 1418.08   4
  -1  -6   8 2008.03 1186.48   4
  -7   6   8 1881.18 765.419   4
   6   1   8 2092.11 919.327   3
   6   1   8 2672.51 1237.54   2
  -6   7   8-216.300 851.523   4
   1  -7   8 2938.05 1149.53   2
  -1  -6   8 4319.08 1387.24   2
   6   1   8 1995.90 960.218   4
  -6   7   8 1361.86 659.965   2
   7  -1   8 3096.49 1241.51   2
   1  -7  11 2330.93 1545.26   2
   6   1  11 5366.32 2011.39   4
  -1  -6  11 4734.37 1868.73   4
   7  -1  11 3326.29 2042.18   4
   7  -1  11 4560.35 1822.17   2
   6   1  11 2809.50 1517.24   2
  -6   7  11 3253.64 911.964   2
  -7   6  11 2870.80 1334.42   4
  -6   7  11 3155.17 1604.93   4
  -1  -6  11 3602.26 1386.80   2
   1  -7  11 4926.70 1830.30   4
  -7   6  11 4913.19 1331.56   2
   7   0 -11 209.106 1487.04   1
  -7   7 -11 490.855 1083.88   1
   0  -7 -11 1928.77 1270.21   1
  -7   7  -8 21310.6 2562.78   1
   7   0  -8 26677.3 3091.70   1
   0  -7  -8 23581.8 2869.67   1
  -7   7  -8 18377.4 1787.27   3
   7   0  -5-185.794 498.939   2
   0  -7  -5 400.494 527.184   1
   7   0  -5 287.283 561.246   1
  -7   7  -5 238.766 249.799   3
  -7   7  -5 46.9005 360.900   1
   7   0  -5 324.499 545.372   4
   7   0  -2 22381.7 1459.74   4
   0  -7  -2 22842.2 1132.09   2
   7   0  -2 23671.7 1521.58   1
  -7   7  -2 21245.1 1087.51   3
   7   0  -2 20101.9 1509.84   2
   7   0  -2 23458.1 1429.54   3
   0  -7  -2 20745.9 1504.71   1
   0  -7  -2 23292.9 1843.62   3
   0  -7   1 291.297 312.422   2
   0  -7   1-77.3621 223.864   4
   0  -7   1 374.659 238.876   3
   7   0   1-375.380 288.561   2
   7   0   1 518.810 442.326   3
  -7   7   1-102.392 207.122   1
   7   0   1-98.5564 242.351   4
   7   0   4 5381.72 1081.14   3
  -7   7   4 7145.44 1240.21   1
   0  -7   4 3941.09 964.989   2
  -7   7   4 4986.61 809.616   4
  -7   7   4 5256.70 485.774   2
   0  -7   4 5455.03 1102.46   1
   0  -7   4 3952.68 887.748   4
   7   0   4 5584.46 878.971   1
  -7   7   7-459.133 358.644   2
   0  -7   7 1181.86 1004.40   4
   7   0   7 66.4573 602.617   3
   0  -7   7 695.916 629.763   2
   7   0   7-456.086 830.642   4
  -7   7   7-290.033 561.120   4
   7   0   7-1248.32 974.211   2
   7   0  10 12461.4 2562.86   2
   0  -7  10 15596.4 2717.74   4
   0  -7  10 14157.9 2481.87   2
   7   0  10 16301.6 2593.12   3
  -7   7  10 14810.1 2449.78   4
  -7   7  10 17478.4 1923.11   2
   7   0  10 12942.0 2814.27   4
  -8   0 -11-523.771 1118.44   1
   0   8 -11 1378.87 1205.86   1
   8  -8 -11 1936.55 1330.71   1
   0   8  -8 5021.01 910.261   3
  -8   0  -8 6421.08 1432.95   1
   0   8  -8 2606.64 1301.17   1
   8  -8  -8 4159.76 1385.05   1
   8  -8  -5 314.507 540.621   1
  -8   0  -5-135.986 334.529   1
   0   8  -5 91.5107 189.113   3
   0   8  -5 324.618 163.456   3
   8  -8  -5 492.090 334.647   2
   8  -8  -2 37484.1 2145.82   1
   8  -8  -2 36205.3 1133.91   2
  -8   0  -2 37984.1 2206.21   3
  -8   0  -2 31424.7 1214.54   1
   0   8  -2 36090.6 1309.92   3
   0   8  -2 35702.3 2368.26   2
   0   8  -2 37431.6 2248.44   4
  -8   0   1-528.581 433.227   2
   8  -8   1 325.041 396.314   2
  -8   0   1-353.857 335.350   3
   0   8   1 321.592 302.474   4
   8  -8   1-67.1167 171.783   3
   0   8   1 413.336 329.893   2
   0   8   1 1205.75 487.683   3
  -8   0   1 195.751 219.007   1
   8  -8   1-131.982 234.316   4
  -8   0   1 26.8916 239.863   4
   8  -8   4 12049.4 1061.04   3
   0   8   4 9308.41 1215.20   1
   8  -8   4 11093.7 1420.32   1
  -8   0   4 11765.6 1343.31   4
  -8   0   4 11585.9 1530.95   1
   8  -8   4 12018.3 1661.78   4
   8  -8   4 12267.9 1663.56   2
  -8   0   4 12311.3 1367.49   2
   0   8   4 12706.8 1814.91   3
   0   8   4 12034.2 978.738   2
   8  -8   7-735.385 759.021   4
   0   8   7 1278.60 988.012   3
  -8   0   7-1306.10 749.176   2
   0   8   7 218.769 559.700   2
   8  -8   7 414.983 540.177   3
  -8   0   7 1394.66 832.907   4
   8  -8   7-558.360 614.730   2
   0   8  10 6813.95 1479.17   2
   8  -8  10 6619.02 1852.61   4
   8  -8  10 5520.09 1913.55   2
   0   8  10 3262.03 1774.92   4
  -8   0  10 6734.79 1520.94   2
  -8   0  10 6869.00 1793.96   4
   8  -7  -9 2546.34 1278.71   1
   7  -8  -9 2874.21 1406.76   1
  -1   8  -9 2403.37 1416.62   1
  -7  -1  -9 1414.98 681.782   1
   1   7  -9 4048.21 1432.27   1
  -8   1  -9 2711.65 1070.16   1
  -7  -1  -6 1489.29 784.634   1
  -8   1  -6 111.347 423.671   1
   1   7  -6 209.926 355.567   3
  -1   8  -6-77.1553 285.194   3
   1   7  -6 1493.94 915.749   1
   8  -7  -6 520.116 776.284   1
   8  -7  -6 16.4970 327.665   2
   7  -8  -6 1039.19 726.780   1
  -1   8  -6-200.516 712.613   1
   1   7  -3 2579.81 354.285   3
  -1   8  -3 2826.60 846.141   4
   8  -7  -3 1596.21 631.070   1
   8  -7  -3 2039.67 350.554   2
  -7  -1  -3 1179.94 543.157   3
  -8   1  -3 2312.45 742.600   3
  -8   1  -3 2275.01 497.673   1
   1   7  -3 3951.49 940.107   2
  -1   8  -3 2194.57 719.635   2
   1   7  -3 2253.07 716.495   4
   7  -8  -3 2625.88 750.265   1
  -7  -1  -3 2034.96 440.023   1
   1   7   0 583.888 343.915   4
  -7  -1   0 274.163 271.442   4
   1   7   0-158.878 293.555   3
  -1   8   0 910.689 381.408   3
  -8   1   0 393.723 304.989   3
  -1   8   0 565.956 396.848   2
  -7  -1   0 569.718 213.163   1
  -8   1   0 743.487 296.110   4
  -1   8   0 795.155 292.714   4
   7  -8   0 422.499 160.076   4
   7  -8   0 1065.73 316.857   1
  -7  -1   0 430.325 325.928   2
  -7  -1   0 971.301 383.983   3
   8  -7   0 464.018 198.427   1
   8  -7   0 845.943 240.118   4
   1   7   0 1023.73 462.833   2
   7  -8   0 624.577 266.849   2
  -8   1   3 17178.3 1472.03   2
   7  -8   3 15370.3 1727.14   2
  -1   8   3 14215.7 893.525   2
  -8   1   3 15763.5 1558.26   1
   8  -7   3 15965.3 1673.85   4
   8  -7   3 18605.2 1848.13   2
  -1   8   3 14641.9 1751.68   3
   7  -8   3 15135.4 962.697   3
  -7  -1   3 14334.0 1318.20   4
  -1   8   3 14121.3 1336.40   1
  -7  -1   3 17327.2 1481.70   2
   1   7   3 15953.6 1096.22   2
   8  -7   3 13659.3 1290.14   1
  -7  -1   3 15182.2 1578.70   1
   7  -8   3 13521.1 1313.94   1
   1   7   3 13490.8 1237.61   1
   7  -8   3 15049.1 1578.97   4
   1   7   3 13949.6 1626.65   3
  -8   1   3 18057.0 1428.66   4
   8  -7   3 14721.5 1119.79   3
  -1   8   6 820.966 789.160   3
  -8   1   6 1513.40 650.367   2
   1   7   6 3152.99 1166.58   3
  -1   8   6 1188.32 581.567   2
   1   7   6 580.561 681.415   2
  -7  -1   6 1473.71 613.148   2
   8  -7   6 1687.92 646.788   3
   8  -7   6 960.876 818.528   2
  -8   1   6 1304.22 674.738   4
   7  -8   6-77.9467 566.591   4
   7  -8   6 1584.20 515.950   3
   7  -8   6 2931.91 1041.84   2
   8  -7   6 789.673 606.617   4
  -7  -1   6 1642.79 681.911   4
   1   7   9 12799.3 2600.62   4
  -1   8   9 13494.4 1767.52   2
  -7  -1   9 14297.9 2055.84   2
   7  -8   9 16535.4 2660.63   2
   7  -8   9 15874.2 2682.26   4
  -8   1   9 16069.0 2135.41   2
   8  -7   9 12111.8 1903.10   3
  -1   8   9 11139.8 2436.83   4
  -8   1   9 11497.8 1929.62   4
   8  -7   9 11272.1 2345.96   4
   1   7   9 13782.9 1954.83   2
   8  -7   9 12989.7 2536.24   2
  -7  -1   9 13590.0 2200.75   4
  -8   2 -10 1432.55 849.800   1
  -6  -2 -10 501.864 1000.77   1
  -2   8 -10 1225.47 1160.98   1
   6  -8 -10 3072.52 1544.77   1
   8  -6 -10 4340.53 1642.50   1
   2   6 -10 1088.12 1017.47   1
   8  -6  -7 15208.6 1550.83   2
  -6  -2  -7 16781.2 2128.21   1
   2   6  -7 15221.4 1481.82   3
  -2   8  -7 15576.5 1259.87   3
   2   6  -7 18585.5 2406.82   1
   8  -6  -7 16258.3 2355.57   1
  -2   8  -7 20782.5 2523.58   1
   6  -8  -7 13170.0 2142.43   1
  -8   2  -7 15423.5 1910.36   1
   6  -8  -4 10140.3 1418.43   1
  -2   8  -4 7286.46 1353.55   4
   8  -6  -4 6830.65 1109.18   1
  -6  -2  -4 7872.11 1125.94   1
  -8   2  -4 7990.99 1155.54   3
   8  -6  -4 8331.18 807.674   2
  -8   2  -4 7629.42 986.378   1
   2   6  -4 8844.05 1362.26   1
   8  -6  -4 7501.10 1007.67   4
  -6  -2  -4 7252.93 1272.51   3
   2   6  -4 7443.17 608.439   3
  -2   8  -4 6896.39 1284.14   2
   6  -8  -4 8230.47 1364.85   3
   2   6  -4 7607.76 1227.09   4
   2   6  -4 10918.1 1515.56   2
  -2   8  -1 6708.40 814.523   4
  -8   2  -1 6567.20 793.158   3
   2   6  -1 8282.82 793.863   3
  -6  -2  -1 7121.06 499.775   1
  -6  -2  -1 6039.93 817.628   3
   8  -6  -1 7006.60 787.883   1
  -2   8  -1 7401.83 658.940   3
   6  -8  -1 6221.85 607.977   2
   2   6  -1 6998.63 970.993   2
   2   6  -1 7837.70 898.290   4
  -2   8  -1 6412.19 949.337   2
   8  -6  -1 6140.97 390.975   4
   6  -8  -1 7191.14 828.260   1
   6  -8   2 10743.8 662.584   3
  -6  -2   2 11116.8 1127.85   1
   8  -6   2 9371.28 859.163   3
  -8   2   2 9738.65 942.705   2
  -2   8   2 10231.9 729.301   2
  -2   8   2 10911.8 1402.04   3
  -2   8   2 10611.6 1081.35   1
  -6  -2   2 10328.6 1100.80   2
  -2   8   2 10947.6 863.827   4
  -6  -2   2 9306.42 844.553   3
   8  -6   2 9417.10 1107.10   4
   6  -8   2 11094.8 1170.99   4
  -8   2   2 10741.0 910.756   4
  -8   2   2 9562.81 1017.21   1
   2   6   2 10987.6 949.593   2
   6  -8   2 10257.2 1305.61   2
   2   6   2 11530.1 1014.64   4
  -6  -2   2 10154.2 1043.44   4
   2   6   2 11424.4 1324.65   3
   2   6   2 9682.32 918.475   1
   8  -6   2 10153.5 901.264   1
   2   6   5 4231.84 973.822   1
   8  -6   5 3997.18 850.179   3
   6  -8   5 5000.31 750.245   3
  -8   2   5 4153.05 870.797   2
   8  -6   5 2578.47 659.887   1
  -8   2   5 4197.14 924.668   4
  -2   8   5 4701.71 1219.73   3
   2   6   5 3773.51 1100.51   3
   6  -8   5 3427.78 997.959   4
  -2   8   5 3890.66 682.988   2
   6  -8   5 3298.58 1068.73   2
  -6  -2   5 3387.48 955.443   2
  -6  -2   5 3970.77 881.326   4
   8  -6   5 4447.27 1185.90   4
   8  -6   5 4215.32 1165.68   2
  -8   2   8 5205.88 1244.77   4
   2   6   8 4007.27 1495.44   4
   8  -6   8 4662.88 1498.05   2
  -8   2   8 3483.06 996.069   2
   8  -6   8 6288.99 1329.41   3
  -2   8   8 2933.77 670.661   2
  -6  -2   8 6155.25 1418.96   2
   2   6   8 5206.85 1650.55   3
   6  -8   8 4281.90 1365.41   2
  -2   8   8 3768.09 1511.89   4
   6  -8   8 6590.36 1723.33   4
   2   6   8 4135.84 1189.39   2
  -6  -2   8 5737.62 1482.81   4
   8  -6   8 6376.08 1774.29   4
  -2   8  11 3282.29 1119.34   2
  -2   8  11 5432.86 2163.31   4
  -6  -2  11 6185.56 1782.65   4
  -6  -2  11 5075.13 1475.16   2
  -8   2  11 2306.02 1060.75   2
   8  -6  11 3974.07 2018.02   4
   6  -8  11 5327.25 1949.07   4
   8  -6  11 5516.87 1958.22   2
   2   6  11 3743.45 1378.76   2
  -8   2  11 3780.34 1647.91   4
   6  -8  11 2748.06 1779.86   2
   2   6  11 4018.96 2102.06   4
  -3   8 -11 3514.34 1580.70   1
   8  -5 -11 1753.92 1095.88   1
   3   5 -11-94.7138 1050.66   1
   5  -8 -11 3419.01 1520.05   1
  -5  -3 -11 1313.38 1192.93   1
  -8   3 -11 513.410 1173.38   1
   5  -8  -8 7313.10 1820.59   1
  -5  -3  -8 7338.25 1591.97   1
  -3   8  -8 5752.86 916.429   3
   8  -5  -8 6547.56 1595.49   1
  -3   8  -8 5555.88 1605.17   1
   8  -5  -8 6371.04 1235.49   2
  -8   3  -8 9550.26 1711.59   1
   3   5  -8 5046.42 1082.30   3
   3   5  -8 8180.90 1846.58   1
   3   5  -5 6107.73 1168.57   1
  -8   3  -5 5613.76 1073.27   3
   8  -5  -5 7208.73 1323.20   1
   5  -8  -5 6487.19 1262.05   1
  -3   8  -5 5381.67 510.703   3
  -5  -3  -5 6138.57 1166.74   1
  -8   3  -5 5389.65 934.593   1
   8  -5  -5 5873.57 899.326   2
   8  -5  -5 5310.30 1103.34   4
   8  -5  -2 4651.38 546.546   2
  -5  -3  -2 3022.39 663.906   3
   3   5  -2 5058.80 836.493   4
  -3   8  -2 4926.92 842.813   2
   5  -8  -2 5164.77 945.943   3
   8  -5  -2 3949.07 497.935   4
   5  -8  -2 3935.10 712.480   1
   3   5  -2 5203.95 910.315   2
  -3   8  -2 4656.11 795.399   4
   8  -5  -2 4527.19 806.185   1
   3   5  -2 4336.14 515.631   3
  -8   3  -2 4271.95 690.078   3
  -5  -3  -2 4566.71 610.368   1
  -5  -3   1 24089.9 1302.47   1
   8  -5   1 23719.9 1324.30   3
   3   5   1 23965.6 1379.32   4
  -5  -3   1 25217.8 1431.64   4
  -3   8   1 24034.1 1039.15   4
  -8   3   1 24950.4 1244.63   1
  -3   8   1 23053.5 1163.01   2
  -3   8   1 25008.4 1437.98   1
   5  -8   1 23523.7 1666.45   2
  -8   3   1 23837.2 1061.10   4
  -8   3   1 23989.0 1408.72   2
   5  -8   1 22024.9 1257.56   4
   3   5   1 25820.0 1476.01   2
  -5  -3   1 23914.4 1275.67   3
   3   5   1 24071.6 1698.18   3
  -5  -3   1 20373.0 1433.64   2
  -8   3   4 23103.2 1755.46   4
  -8   3   4 21332.0 1547.59   2
  -3   8   4 19850.7 873.382   2
   8  -5   4 22164.8 1706.09   3
   8  -5   4 20626.3 1695.54   1
   5  -8   4 23211.3 2173.30   4
  -5  -3   4 22693.6 1919.19   2
   3   5   4 20676.6 1731.53   1
  -8   3   4 21806.5 2087.27   1
   8  -5   4 21599.9 2179.75   4
   8  -5   4 22316.8 2210.88   2
  -5  -3   4 21695.1 2067.47   1
   5  -8   4 22129.5 1937.23   1
   5  -8   4 22408.7 2185.61   2
   5  -8   4 19576.2 1040.34   3
  -5  -3   4 19397.9 1711.19   4
  -3   8   4 21666.8 1961.73   1
  -3   8   4 17567.5 976.639   2
   3   5   4 20826.2 2104.92   3
   8  -5   7 2752.59 1051.14   3
  -8   3   7 2689.76 875.265   2
  -5  -3   7 4117.09 1159.11   2
   3   5   7 2487.52 948.716   2
   5  -8   7 3477.15 1389.72   4
   8  -5   7 2541.30 1010.13   2
  -3   8   7 1993.84 710.786   2
   5  -8   7 2531.34 1049.62   2
  -8   3   7 2674.28 974.657   4
  -5  -3   7 2844.24 1068.84   4
   3   5   7 4186.23 1407.48   3
   8  -5   7 1479.56 913.765   4
  -3   8   7 3614.77 1268.63   4
  -3   8  10 1560.08 774.044   2
  -5  -3  10 1749.72 1177.07   4
   8  -5  10 1197.20 996.919   4
   8  -5  10 4578.43 1437.74   2
   8  -5  10 1337.43 788.311   3
   5  -8  10 3160.33 1478.67   4
   3   5  10 1926.49 1205.31   2
  -3   8  10 2753.06 1511.79   4
  -8   3  10 2582.99 1198.55   4
   3   5  10-15.5539 1151.15   4
  -8   3  10 781.951 697.663   2
  -5  -3  10 2956.55 1198.04   2
   5  -8  10 1475.31 1111.94   2
  -4   8  -9 4436.47 1380.24   1
   8  -4  -9 3270.50 1274.60   1
   4   4  -9 4001.17 1366.19   1
   4  -8  -9 3147.50 1316.97   1
  -8   4  -9 3681.28 1218.17   1
  -4  -4  -9 3519.83 1294.46   1
  -4   8  -6 584.370 268.112   3
  -8   4  -6 935.087 397.100   1
  -4   8  -6 899.439 753.143   1
   8  -4  -6 1196.64 537.766   2
   4   4  -6 1262.27 797.817   1
  -8   4  -6 958.390 649.659   3
   4  -8  -6 244.212 756.801   1
  -4  -4  -6 549.155 614.646   1
   8  -4  -6 1161.28 822.188   1
   8  -4  -3 23610.1 1439.96   2
   4  -8  -3 19775.4 1689.67   1
   8  -4  -3 23329.2 1861.72   1
   4   4  -3 23287.9 1838.97   1
  -4  -4  -3 24411.2 2014.69   3
   4  -8  -3 20150.7 1901.06   3
  -4   8  -3 22376.8 1973.18   2
   4   4  -3 25284.3 1958.64   2
  -4  -4  -3 23111.5 1641.10   1
  -8   4  -3 23355.0 1439.85   1
  -4   8  -3 20869.1 1869.56   4
   8  -4  -3 21758.6 1502.84   4
   4   4  -3 23726.2 1216.63   3
   4   4  -3 22863.9 1864.32   4
  -8   4  -3 22723.1 1569.32   3
   4   4   0 8791.51 959.311   3
   4  -8   0 7451.98 778.005   2
  -4  -4   0 8885.67 886.602   3
  -8   4   0 8044.62 801.422   3
  -4   8   0 8074.72 655.284   4
   8  -4   0 8842.64 831.459   3
   4  -8   0 8087.28 826.987   3
   8  -4   0 9105.23 590.060   1
   4  -8   0 8612.00 609.831   4
  -4  -4   0 8099.35 785.675   4
  -8   4   0 9085.23 524.458   1
   4   4   0 8127.27 898.331   2
  -4  -4   0 7410.91 866.475   2
   8  -4   0 8207.69 603.206   4
   4   4   0 8337.25 825.309   4
  -4   8   0 9339.34 918.201   2
   4  -8   3 18205.6 1604.45   1
  -8   4   3 21552.5 1804.11   1
   4   4   3 21100.2 1930.59   3
   4   4   3 21448.8 1422.59   1
  -4  -4   3 22981.5 1731.99   4
  -4  -4   3 21274.8 1790.66   1
  -4  -4   3 22427.6 1845.98   2
  -8   4   3 22357.8 1338.06   2
   8  -4   3 19998.3 1390.30   1
   4  -8   3 21946.4 2028.13   2
   8  -4   3 20625.9 1562.72   3
   4  -8   3 20747.6 1781.80   4
  -4   8   3 22288.9 1758.76   1
  -8   4   3 23202.8 1429.28   4
   8  -4   6-15.0740 532.546   2
   4   4   6 25.2901 630.835   3
  -4  -4   6 1466.13 733.569   4
  -4  -4   6 1843.22 720.632   2
   8  -4   6 367.715 547.487   3
  -8   4   6 414.169 510.503   2
  -4   8   6 1074.03 769.587   4
   4  -8   6 780.390 652.949   2
   4  -8   6 2671.40 853.228   4
  -8   4   6 945.736 643.426   4
  -4   8   6-119.144 383.956   2
   8  -4   6 1406.53 1027.17   4
  -8   4   9 6920.68 1300.19   2
  -8   4   9 3323.08 1224.85   4
  -4  -4   9 6228.31 1602.16   2
   8  -4   9 5318.25 1462.90   3
   4   4   9 3308.00 1689.97   4
   4   4   9 2587.84 1191.72   2
   4   4   9 4450.57 1508.71   3
   4  -8   9 5756.96 1807.05   4
  -4  -4   9 5001.70 1543.53   4
   8  -4   9 5021.22 1429.64   2
   8  -4   9 4909.32 1792.04   4
   4  -8   9 3457.57 1401.71   2
  -4   8   9 2287.92 788.620   2
  -4   8   9 3477.05 1592.09   4
   5   3 -10 129.810 924.698   1
  -3  -5 -10-184.529 781.535   1
  -5   8 -10 1373.42 1254.73   1
   3  -8 -10 1049.15 1132.87   1
   8  -3 -10 1174.39 1168.92   1
  -8   5 -10 454.051 824.668   1
  -8   5  -7 1342.35 751.998   1
   8  -3  -7 4887.82 1373.99   1
   8  -3  -7 2460.19 938.579   2
   5   3  -7 2718.77 1207.80   1
   3  -8  -7 2966.91 1107.97   1
  -8   5  -7 597.451 548.753   3
  -3  -5  -7 2748.00 1038.74   1
   5   3  -7 3637.42 1106.93   3
  -5   8  -7 2051.25 562.034   3
  -5   8  -7 2480.60 1111.59   1
  -3  -5  -4 21303.6 1854.13   1
   5   3  -4 23341.3 2115.75   4
  -5   8  -4 17172.1 787.460   3
   3  -8  -4 20066.9 1988.24   1
  -8   5  -4 21316.3 1646.20   1
  -8   5  -4 20286.1 1531.32   3
   8  -3  -4 20884.5 2010.00   1
  -5   8  -4 18802.8 2013.74   2
  -3  -5  -4 20620.6 2019.86   3
   5   3  -4 20666.5 1329.75   3
   3  -8  -4 21092.9 2079.72   3
   5   3  -4 25001.5 2096.49   1
   8  -3  -4 20134.3 1731.08   4
   8  -3  -4 21520.2 1597.33   2
  -5   8  -4 18040.2 2021.36   4
   5   3  -4 20503.7 1951.57   2
  -5   8  -1 21686.9 1553.31   2
   5   3  -1 25147.8 1490.52   4
   3  -8  -1 24003.3 1125.78   2
  -3  -5  -1 23815.9 1401.16   2
   8  -3  -1 25366.1 1474.65   3
   3  -8  -1 24545.2 1069.67   4
   8  -3  -1 26172.5 1416.05   2
   8  -3  -1 23987.8 1261.79   1
  -5   8  -1 23133.4 1402.07   4
   5   3  -1 22462.4 1308.55   3
  -8   5  -1 25697.6 1378.25   3
  -3  -5  -1 25184.3 1222.47   1
   8  -3  -1 24685.3 1174.65   4
   3  -8  -1 25511.6 1695.40   3
  -3  -5  -1 25205.0 1693.63   3
   3  -8  -1 23139.5 1399.64   1
   5   3  -1 27053.9 1705.00   2
  -3  -5  -1 25490.2 1423.40   4
  -8   5   2 4072.73 479.552   4
   3  -8   2 4535.00 828.988   2
   3  -8   2 4965.18 832.327   4
   5   3   2 4657.57 538.225   1
  -3  -5   2 4431.03 497.408   3
   8  -3   2 3637.14 498.389   1
   8  -3   2 3167.92 617.525   3
  -3  -5   2 5303.05 869.403   2
   5   3   2 3425.42 782.805   3
  -5   8   2 5544.17 799.490   1
  -8   5   2 4197.94 742.244   1
  -3  -5   2 5110.54 746.833   4
  -8   5   2 4083.81 537.967   2
   5   3   2 5204.55 747.035   2
  -3  -5   2 3442.27 655.708   1
   5   3   5 8232.04 1412.78   3
  -3  -5   5 8425.68 1360.39   2
  -8   5   5 7791.06 931.407   2
  -5   8   5 6418.31 1141.37   4
   3  -8   5 8108.94 1462.98   4
  -8   5   5 6662.04 1043.55   4
   5   3   5 6041.05 1013.15   1
  -3  -5   5 6497.32 1214.76   4
   3  -8   5 7498.47 1336.91   2
   8  -3   5 6142.72 1093.80   3
   8  -3   5 6239.88 1065.65   1
   8  -3   5 8600.85 1438.54   2
  -5   8   5 5609.29 579.358   2
  -8   5   8 8058.45 1587.89   4
   8  -3   8 10928.4 1682.59   3
  -5   8   8 9383.19 1904.60   4
   3  -8   8 8063.70 1795.16   4
   5   3   8 12059.6 2147.09   3
   3  -8   8 8120.20 1800.24   2
  -5   8   8 8883.59 1154.14   2
   8  -3   8 11674.1 2173.03   4
  -3  -5   8 8652.62 1715.26   2
  -8   5   8 8296.88 1291.78   2
  -3  -5   8 10623.5 1866.29   4
   8  -3   8 8222.09 1855.57   2
   5   3   8 7379.74 1710.78   2
   5   3   8 8246.25 1924.25   4
   3  -8  11 3268.75 1463.30   2
  -8   5  11 1497.44 984.645   2
   5   3  11 2226.97 1468.74   4
  -5   8  11 4223.43 1839.48   4
   8  -3  11 2627.72 1619.86   4
  -3  -5  11-333.913 1136.41   4
   3  -8  11 1210.72 1141.40   4
  -8   5  11 2907.36 1266.79   4
   8  -3  11 2042.72 1378.54   2
   5   3  11 1126.95 1145.04   2
  -3  -5  11 1952.45 1325.43   2
  -8   6 -11 3013.27 1453.62   1
   6   2 -11 5357.96 2294.76   1
   8  -2 -11 4364.13 1858.30   1
  -6   8 -11 2187.25 1295.15   1
   2  -8 -11 5273.74 1530.50   1
  -2  -6 -11 3877.33 1833.71   1
  -2  -6  -8 3851.34 1404.12   1
   2  -8  -8 3911.82 1337.78   1
   6   2  -8 6879.77 1756.25   1
   8  -2  -8 5591.85 1505.90   1
  -6   8  -8 4079.88 830.682   3
  -8   6  -8 5054.21 1296.10   1
  -6   8  -8 3729.78 1318.94   1
   8  -2  -5 4688.83 1026.88   2
  -2  -6  -5 3175.93 915.868   1
   8  -2  -5 3266.33 884.231   1
  -6   8  -5 3150.75 483.784   3
  -8   6  -5 3148.50 827.034   1
   8  -2  -5 2552.38 844.228   4
   6   2  -5 3420.48 1023.81   1
   6   2  -5 2788.70 942.923   2
   2  -8  -5 3048.50 1008.29   1
  -8   6  -5 3207.40 683.273   3
  -2  -6  -2 8794.81 1139.42   3
   6   2  -2 10409.0 949.336   3
  -2  -6  -2 9630.42 993.671   1
   8  -2  -2 9710.87 996.458   1
  -6   8  -2 8421.34 1082.85   4
  -8   6  -2 9336.09 826.910   3
   6   2  -2 10407.5 1142.65   2
   6   2  -2 11595.0 1093.96   1
   8  -2  -2 9346.62 909.220   4
   2  -8  -2 10664.0 1323.83   3
   2  -8  -2 10197.2 630.637   2
   8  -2  -2 10544.0 1009.51   3
   8  -2  -2 10661.3 1019.28   2
  -6   8  -2 8382.24 1158.11   2
   6   2  -2 11534.5 1135.91   4
   2  -8  -2 9883.40 1103.69   1
  -2  -6   1 8441.75 907.008   4
   8  -2   1 9796.00 1023.25   3
  -8   6   1 8037.08 404.082   4
   2  -8   1 9138.36 1048.69   2
   2  -8   1 8746.92 855.147   4
  -8   6   1 10429.2 860.278   1
   6   2   1 8164.63 1031.77   3
   6   2   1 9546.46 971.351   2
   6   2   1 8468.54 874.524   4
   8  -2   1 8076.31 783.094   4
   2  -8   1 9524.58 730.721   3
  -2  -6   1 9852.14 1050.89   2
  -2  -6   1 10582.0 794.147   3
  -6   8   1 8679.52 845.486   1
   8  -2   4 10161.5 1322.88   3
   2  -8   4 8201.84 1217.11   1
   6   2   4 9309.14 1086.49   1
  -2  -6   4 10002.8 1381.87   4
  -8   6   4 9526.26 1362.59   1
   2  -8   4 10798.8 1512.50   2
  -8   6   4 9429.46 799.914   2
  -6   8   4 6747.92 1186.92   1
  -2  -6   4 8056.87 1229.22   1
   2  -8   4 9791.89 1321.74   4
   8  -2   4 8948.97 1071.04   1
  -8   6   4 8206.38 991.051   4
  -2  -6   4 10087.8 1409.33   2
   6   2   4 7056.05 1179.27   3
  -6   8   4 6956.70 986.782   4
  -6   8   7 16986.3 1359.93   2
   6   2   7 17264.7 2157.67   2
   6   2   7 20055.0 2504.50   3
   2  -8   7 19972.1 2545.93   4
  -8   6   7 14142.8 1845.51   4
   2  -8   7 21452.2 2568.65   2
  -6   8   7 18545.2 2269.46   4
   8  -2   7 14555.3 2378.09   4
  -2  -6   7 19715.6 2375.08   4
  -8   6   7 18200.1 1655.19   2
  -2  -6   7 14467.5 1990.25   2
   8  -2   7 17956.7 2167.17   3
   8  -2   7 14419.8 2176.38   2
  -8   6  10 3184.86 1464.86   4
  -6   8  10 1539.00 717.204   2
  -2  -6  10 4271.70 1510.86   4
   6   2  10 1496.48 1290.17   4
   8  -2  10 157.873 986.178   4
   8  -2  10 5070.91 1742.77   2
  -8   6  10 3528.24 1103.55   2
   2  -8  10 4338.17 1764.19   4
  -6   8  10 2813.40 1239.84   4
   8  -2  10 1502.13 851.186   3
   2  -8  10 4120.01 1622.74   2
   6   2  10 2182.43 1276.77   2
   6   2  10 2382.84 1330.43   3
  -2  -6  10 4578.81 1581.21   2
   8  -1  -9 16871.1 2714.27   1
  -8   7  -9 15852.6 2287.21   1
   1  -8  -9 11503.1 2326.84   1
  -7   8  -9 9168.98 1914.09   1
  -1  -7  -9 12414.7 2318.90   1
   7   1  -9 16773.4 2642.74   1
   8  -1  -6 2525.94 911.791   2
  -7   8  -6 1219.34 482.383   3
  -1  -7  -6 765.569 748.240   1
  -8   7  -6 906.733 571.571   1
   1  -8  -6 884.918 862.578   1
   7   1  -6 1668.27 913.993   1
   8  -1  -6 2068.96 936.494   1
  -7   8  -6 1172.65 804.709   1
  -8   7  -6 1267.99 433.019   3
  -1  -7  -3 16343.0 1507.43   1
   8  -1  -3 14998.5 1379.72   4
   7   1  -3 16440.5 1493.70   4
  -1  -7  -3 16781.2 1759.91   3
  -8   7  -3 14471.3 1053.94   3
   8  -1  -3 16604.3 1543.68   1
   7   1  -3 16058.6 1283.99   3
   7   1  -3 17205.2 1593.93   2
   1  -8  -3 13933.4 1618.09   3
   8  -1  -3 15038.3 1279.38   3
   8  -1  -3 15268.9 1400.60   2
  -7   8  -3 16891.8 1695.58   4
   7   1  -3 16541.6 1529.98   1
  -7   8  -3 14886.5 884.178   3
   1  -8  -3 15345.0 1503.21   1
  -1  -7   0 903.334 314.178   4
  -1  -7   0 889.376 353.768   3
   1  -8   0 1019.08 379.111   3
   7   1   0 574.886 287.078   4
   8  -1   0 369.629 298.803   2
   7   1   0 872.165 386.489   2
   1  -8   0 1174.92 433.602   2
   8  -1   0 2125.03 492.322   3
   7   1   0 851.330 427.837   3
   1  -8   0 1262.51 377.871   4
   8  -1   0 1034.82 403.331   4
  -1  -7   0 1388.66 419.074   2
  -1  -7   3 2781.78 725.056   4
   8  -1   3 3184.37 792.185   3
  -7   8   3 4759.69 912.547   1
  -8   7   3 2648.23 445.285   4
   1  -8   3 2804.00 673.538   4
  -7   8   3 2671.81 490.110   4
   8  -1   3 2918.22 537.445   1
   1  -8   3 3096.47 760.553   1
  -1  -7   3 3782.71 825.511   1
   7   1   3 3526.54 543.805   1
   7   1   3 3105.45 807.126   3
  -1  -7   3 3378.13 735.943   2
   1  -8   3 4076.52 942.165   2
  -8   7   3 3075.50 812.499   1
   7   1   6 35.5488 499.939   3
   8  -1   6-50.0326 617.078   2
  -8   7   6 245.804 462.802   4
   1  -8   6 312.589 553.708   4
   8  -1   6-390.680 539.893   3
  -1  -7   6-1153.74 723.587   2
   1  -8   6-72.8799 574.858   2
  -7   8   6 108.494 277.553   2
  -7   8   6 663.344 569.818   4
  -8   7   6 407.941 369.248   2
   8  -1   6 372.065 478.831   1
   7   1   6 299.735 462.813   1
  -1  -7   6 1938.67 785.303   4
   8  -1   9 3158.19 1255.50   3
  -8   7   9 4191.54 1455.10   4
  -1  -7   9 4271.16 1340.68   2
  -7   8   9 3078.15 900.143   2
  -8   7   9 3178.04 981.052   2
   7   1   9 1522.28 1048.67   3
  -1  -7   9 3412.43 1414.32   4
   7   1   9 3536.24 1374.97   2
   8  -1   9 2722.31 1172.44   2
   7   1   9 1818.61 1391.69   4
   1  -8   9 4672.41 1561.74   4
   8  -1   9 3834.67 1487.24   4
  -7   8   9 2065.52 1157.37   4
   1  -8   9 3441.62 1388.00   2
  -8   8 -10 6683.05 1733.55   1
   8   0 -10 6450.23 1800.53   1
   0  -8 -10 4065.02 1654.19   1
   8   0  -7 213.265 626.606   1
   0  -8  -7-38.7191 583.381   1
  -8   8  -7 132.551 342.416   3
  -8   8  -7-829.433 596.101   1
   0  -8  -4 9869.12 1351.44   1
  -8   8  -4 9542.15 858.603   3
   0  -8  -4 8966.39 1425.98   3
   8   0  -4 11228.7 1440.78   2
   8   0  -4 8160.29 1240.87   4
   8   0  -4 9074.14 1385.19   1
   0  -8  -1 113.795 225.244   1
   8   0  -1 16.3735 214.454   1
   8   0  -1-660.457 437.544   2
   0  -8  -1 307.525 237.443   2
   0  -8  -1 252.439 368.141   3
   0  -8  -1 106.849 283.842   4
   8   0  -1 250.886 329.986   4
   8   0  -1-356.874 326.838   3
   8   0   2 36344.8 2218.04   3
   0  -8   2 36229.7 1086.24   3
  -8   8   2 34686.8 1953.13   1
   0  -8   2 36506.8 2283.52   2
   8   0   2 34635.4 1121.25   1
   0  -8   2 34559.7 2010.58   4
   0  -8   5 601.993 584.817   2
  -8   8   5 111.344 463.074   4
   0  -8   5 1713.71 819.240   4
   8   0   5 1260.24 633.730   1
   8   0   5 1457.97 736.546   3
  -8   8   5 454.945 181.603   2
   8   0   8 5938.95 1973.83   4
   0  -8   8 5595.06 1534.49   2
   8   0   8 4884.64 1432.21   2
  -8   8   8 5465.29 894.313   2
  -8   8   8 6112.22 1383.75   4
   8   0   8 5767.54 1529.86   3
   0  -8   8 5133.36 1500.93   4
   8   0  11-209.502 1092.37   2
   8   0  11 165.193 1164.49   4
  -8   8  11 489.983 959.077   4
   0  -8  11 1070.61 1139.34   2
   8   0  11-1026.48 1320.96   3
   0  -8  11 497.156 1000.95   4
   0   9  -9 157.204 828.496   1
   9  -9  -9 1460.41 1438.16   1
  -9   0  -9 1800.27 1133.54   1
   0   9  -6 1877.16 427.074   3
   9  -9  -6 2716.98 511.369   2
   9  -9  -6 3335.98 1136.36   1
  -9   0  -6 3978.82 965.770   1
   0   9  -6 2638.58 349.824   3
   9  -9  -3 136.114 118.757   2
   0   9  -3-407.419 549.872   4
  -9   0  -3-70.9997 244.059   1
  -9   0  -3 23.1866 354.033   3
   0   9  -3 984.982 667.270   2
   0   9  -3-17.8086 129.149   3
   9  -9  -3-11.4388 411.481   1
  -9   0   0 16351.8 1427.94   2
  -9   0   0 11785.1 647.476   1
   0   9   0 15274.4 1360.20   2
   9  -9   0 12006.9 704.168   4
   9  -9   0 15946.3 1120.02   1
  -9   0   0 17568.5 1245.27   4
   0   9   0 17710.5 1452.69   3
  -9   0   0 16487.9 1320.91   3
   0   9   0 16491.6 1259.05   4
   0   9   3-34.1870 292.034   4
  -9   0   3 1465.27 596.371   2
   0   9   3 70.2473 251.129   2
   0   9   3-201.672 283.131   1
   9  -9   3 589.871 513.515   4
  -9   0   3 140.506 316.219   4
   9  -9   3-39.1752 557.085   2
   0   9   3 1265.70 592.225   3
   9  -9   3 339.373 368.380   1
  -9   0   3 982.600 519.594   1
   9  -9   3 266.387 241.515   3
  -9   0   6 2103.48 674.628   2
   9  -9   6 2041.46 1037.72   4
   0   9   6 1934.56 678.648   2
   0   9   6 2406.59 1205.40   3
  -9   0   6 1340.78 537.097   4
   9  -9   6 2164.97 998.259   2
   0   9   6 1879.98 555.990   2
   9  -9   6 2978.48 804.907   3
   9  -9   9 1556.13 1520.41   4
  -9   0   9 10.4500 755.531   2
   9  -9   9 1076.58 799.709   3
   0   9   9 467.585 957.306   4
   0   9   9-199.145 739.510   2
   9  -9   9-521.561 866.565   2
  -9   0   9 738.746 798.070   4
   8  -9 -10 1574.80 1209.28   1
   9  -8 -10 2500.74 1185.54   1
  -8  -1 -10 3735.43 1478.80   1
  -9   1 -10 2749.89 1175.72   1
  -1   9 -10 1549.55 1160.80   1
   1   8 -10 876.905 1339.09   1
   9  -8  -7 12813.7 2130.42   1
   1   8  -7 11068.4 875.214   3
  -1   9  -7 12248.7 1064.06   3
   1   8  -7 11721.7 1223.01   3
  -9   1  -7 12268.1 1673.67   1
  -8  -1  -7 11404.0 1764.49   1
   1   8  -7 13130.8 2095.79   1
   9  -8  -7 9964.96 1123.03   2
   8  -9  -7 11397.4 2010.34   1
   9  -8  -4 7497.50 1251.64   1
   9  -8  -4 6694.58 689.482   2
  -9   1  -4 6618.07 1108.19   3
  -8  -1  -4 8334.01 1069.84   1
   8  -9  -4 10281.8 1490.64   1
  -8  -1  -4 8103.37 1274.77   3
  -9   1  -4 8451.14 991.938   1
   1   8  -4 7738.78 565.561   3
  -1   9  -1 13802.6 1242.79   4
   1   8  -1 12220.6 1178.22   4
   1   8  -1 11411.1 1010.86   3
  -8  -1  -1 10674.5 536.351   1
   8  -9  -1 13361.4 1154.57   1
   1   8  -1 12281.8 1310.29   2
   9  -8  -1 12037.1 1082.14   1
   8  -9  -1 11801.2 958.975   2
  -1   9  -1 12381.0 1330.58   2
  -1   9  -1 12973.8 1042.99   3
  -8  -1  -1 11521.0 1217.80   3
  -9   1  -1 11836.4 1144.17   3
  -1   9   2 5992.47 708.397   2
   8  -9   2 6476.53 1103.29   2
   9  -8   2 5267.09 1036.68   2
  -8  -1   2 6562.67 859.571   4
   9  -8   2 7177.47 764.539   3
   1   8   2 4638.17 951.805   3
  -9   1   2 5948.82 880.078   2
  -8  -1   2 6805.48 840.706   3
  -1   9   2 7135.36 1206.09   3
  -8  -1   2 6150.66 865.241   1
  -9   1   2 4922.35 793.465   1
   1   8   2 5973.37 723.061   2
   8  -9   2 5117.77 793.599   4
   1   8   2 6117.08 760.521   4
  -8  -1   2 5457.32 886.799   2
   9  -8   2 4979.18 868.506   4
  -1   9   2 6497.31 754.405   4
   1   8   2 6111.91 789.712   1
  -1   9   2 5934.38 813.318   1
  -9   1   2 6889.61 787.199   4
   8  -9   2 6288.62 633.694   3
   9  -8   5 7208.97 1045.64   3
   8  -9   5 8697.11 963.670   3
  -1   9   5 8188.39 837.745   2
   1   8   5 9861.28 1064.35   2
  -9   1   5 9828.82 1350.82   4
   9  -8   5 8018.58 1567.23   4
   8  -9   5 7536.79 1584.25   2
   9  -8   5 8956.19 1649.49   2
  -8  -1   5 9280.57 1352.71   2
   9  -8   5 9146.60 1350.28   1
  -9   1   5 9819.59 1350.67   2
  -1   9   5 10431.3 1825.65   3
   8  -9   5 10667.9 1652.07   4
   1   8   5 10560.4 1742.80   3
  -8  -1   5 7964.10 1271.72   4
  -8  -1   8 2999.99 1018.01   2
   1   8   8 4503.82 1611.72   4
  -8  -1   8 6429.33 1496.03   4
  -1   9   8 3732.14 1355.69   4
   9  -8   8 4857.77 1634.80   4
  -9   1   8 5965.66 1602.09   4
   9  -8   8 5098.29 1235.32   3
   8  -9   8 9239.49 2064.49   4
   8  -9   8 3279.91 904.374   3
   1   8   8 5506.49 1694.25   3
  -1   9   8 4877.68 1083.72   2
  -9   1   8 6654.63 1337.31   2
   1   8   8 3604.93 1096.43   2
   8  -9   8 5778.54 1614.91   2
   9  -8   8 5754.87 1653.29   2
   8  -9  11 5770.90 2002.50   2
  -8  -1  11 3309.22 1250.84   2
   9  -8  11 5292.14 1949.56   4
   1   8  11 3885.46 1392.64   2
  -9   1  11 6506.76 1833.74   4
  -1   9  11 6049.58 1955.22   4
   1   8  11 3705.97 1987.94   4
  -9   1  11 3479.14 1322.96   2
  -8  -1  11 6100.75 1661.78   4
   9  -8  11 8098.13 2412.87   2
   8  -9  11 4969.99 1864.03   4
   9  -7 -11 5121.19 1921.43   1
  -9   2 -11 7590.48 2041.25   1
  -2   9 -11 4601.53 1782.96   1
  -7  -2 -11 4093.56 1648.02   1
   2   7 -11 3309.62 1675.95   1
   7  -9 -11 3841.68 1671.29   1
  -7  -2  -8 2872.78 1139.00   1
  -2   9  -8 654.377 665.623   1
   2   7  -8 1142.11 884.962   1
   9  -7  -8 1022.42 576.389   2
   7  -9  -8 870.691 827.613   1
   2   7  -8 1002.12 606.622   3
  -2   9  -8 907.756 458.719   3
   9  -7  -8 2143.57 1013.41   1
  -9   2  -8 1481.70 867.854   1
  -9   2  -5 17459.4 1618.87   1
   9  -7  -5 17909.6 1308.91   2
   9  -7  -5 18789.1 2112.52   1
   7  -9  -5 19551.8 2204.77   1
   2   7  -5 20137.1 2184.12   1
  -7  -2  -5 18601.4 1802.24   1
  -9   2  -5 13337.9 1728.28   3
   2   7  -5 18422.0 1019.80   3
  -7  -2  -2 13521.5 1383.55   3
   7  -9  -2 12662.7 1256.12   1
  -9   2  -2 12870.0 1239.40   3
   7  -9  -2 10025.8 563.478   2
  -2   9  -2 14116.5 1418.74   4
  -7  -2  -2 12018.6 863.573   1
  -9   2  -2 13140.3 695.050   1
   9  -7  -2 11645.1 748.380   4
   9  -7  -2 13441.8 1256.31   1
  -2   9  -2 15256.2 1559.51   2
   2   7  -2 14194.1 1401.46   4
   2   7  -2 14238.8 949.781   3
   9  -7  -2 13071.2 859.552   2
   2   7  -2 11898.1 1367.46   2
   7  -9   1 6752.42 719.951   4
  -9   2   1 8392.91 914.439   3
  -9   2   1 7556.04 701.256   4
  -2   9   1 9305.92 1194.77   3
   2   7   1 6631.27 814.583   2
  -7  -2   1 8503.88 1020.69   2
  -2   9   1 8085.65 821.828   2
   9  -7   1 8232.09 820.554   3
  -7  -2   1 8057.48 801.520   1
  -7  -2   1 8557.59 875.930   3
   7  -9   1 8660.34 1101.21   2
  -2   9   1 9617.95 797.201   4
  -9   2   1 8832.15 1013.76   2
   2   7   1 9195.21 1131.39   3
  -9   2   1 8942.60 787.562   1
  -7  -2   1 9020.44 885.669   4
   2   7   1 7997.32 846.596   4
   9  -7   4 1124.47 492.477   3
   2   7   4 1029.98 496.478   1
  -9   2   4 1671.51 538.219   2
   9  -7   4 1481.93 656.812   4
   9  -7   4 824.636 575.561   2
   2   7   4 414.170 276.625   2
  -7  -2   4 1733.16 731.837   4
   7  -9   4 1157.39 706.707   4
  -2   9   4 967.444 573.171   1
   7  -9   4 812.973 315.904   3
   2   7   4 1741.68 838.899   3
  -2   9   4 495.860 243.017   2
  -7  -2   4 819.972 643.506   1
   9  -7   4 2108.79 700.285   1
   7  -9   4 707.540 420.754   1
  -9   2   4 1367.92 547.469   4
  -2   9   4 2571.13 950.267   3
  -9   2   4 1671.97 710.037   1
   7  -9   4 1263.91 783.710   2
  -7  -2   4 1137.16 556.109   2
  -9   2   7 2559.75 914.842   4
   2   7   7 2340.13 1226.00   3
   2   7   7 738.680 577.992   2
   9  -7   7 2945.44 1181.03   4
  -9   2   7 1032.10 520.250   2
   7  -9   7 1494.31 579.954   3
   7  -9   7 712.255 646.725   4
   9  -7   7 2504.24 1167.43   2
   7  -9   7 2382.20 945.817   2
  -7  -2   7 3595.89 1122.49   4
   9  -7   7 1493.59 750.157   3
  -2   9   7 2122.88 1016.52   4
  -2   9   7 2083.33 698.315   2
  -7  -2   7 2477.18 919.407   2
  -9   2  10 2100.43 943.917   2
   2   7  10 39.1967 1006.30   4
   9  -7  10 2937.74 1595.54   2
   2   7  10 86.8744 971.699   2
  -7  -2  10 4368.08 1455.21   2
  -2   9  10 3104.93 1878.51   4
  -9   2  10 2881.58 1339.95   4
  -7  -2  10 4605.56 1534.44   4
   9  -7  10 3352.33 1175.82   3
   9  -7  10 2211.60 1432.25   4
  -2   9  10 2011.00 891.437   2
   7  -9  10 5279.61 1839.53   2
   7  -9  10 2471.25 1669.92   4
  -6  -3  -9-95.9365 889.715   1
   3   6  -9-1490.99 952.163   1
  -3   9  -9 56.0746 729.498   1
   6  -9  -9 1232.67 958.589   1
   9  -6  -9 1200.58 860.251   1
  -9   3  -9 489.522 805.173   1
   9  -6  -6 10746.6 1267.75   2
  -6  -3  -6 11000.2 1614.16   1
   3   6  -6 10041.7 1186.14   3
   9  -6  -6 10465.3 1510.24   4
   3   6  -6 11483.9 1814.85   1
  -3   9  -6 8928.14 672.674   3
   9  -6  -6 9698.12 1656.66   1
   3   6  -6 10848.6 953.592   3
  -9   3  -6 12057.1 1588.36   1
   6  -9  -6 10061.6 1727.06   1
   3   6  -3 2431.17 694.258   2
  -6  -3  -3 2968.13 813.358   3
   6  -9  -3 4358.67 964.053   3
  -9   3  -3 2204.89 537.429   3
   9  -6  -3 2463.63 631.616   1
   9  -6  -3 3748.14 657.532   4
   3   6  -3 2778.77 675.353   4
  -3   9  -3 4097.22 881.183   4
   3   6  -3 2903.91 445.225   3
  -9   3  -3 3648.94 577.679   1
  -6  -3  -3 2689.56 615.148   1
   9  -6  -3 2441.78 480.655   2
   6  -9  -3 3256.74 879.964   1
  -3   9  -3 759.082 462.451   2
   9  -6   0 5710.80 752.730   3
  -6  -3   0 5258.40 801.332   2
   9  -6   0 5594.92 483.731   4
  -3   9   0 4475.29 702.202   2
   9  -6   0 5027.49 530.850   1
  -6  -3   0 6020.51 747.421   4
   3   6   0 5727.07 837.821   3
   3   6   0 6128.54 778.026   4
  -6  -3   0 5635.82 760.020   3
  -9   3   0 5578.33 360.951   1
   6  -9   0 6001.98 801.949   2
  -3   9   0 5205.74 645.886   4
   6  -9   0 5333.50 484.161   4
   3   6   0 5578.55 811.034   2
  -9   3   0 5148.53 728.435   3
   6  -9   0 6300.70 726.977   1
   6  -9   3 210.808 439.651   2
   3   6   3 504.553 580.540   3
  -3   9   3-192.674 575.022   3
   9  -6   3 247.652 439.614   4
  -3   9   3 250.563 324.216   1
   6  -9   3 207.595 176.074   3
   3   6   3 184.464 332.938   2
   6  -9   3 725.451 497.252   1
  -6  -3   3 851.590 440.454   4
  -3   9   3 233.599 156.986   2
  -9   3   3 385.373 367.699   2
  -6  -3   3 673.107 407.829   2
  -9   3   3 473.453 361.278   1
   9  -6   3 476.120 327.460   1
   9  -6   3 107.055 271.629   3
   6  -9   3 646.541 570.255   4
   3   6   3 240.117 260.730   1
  -6  -3   3 631.173 464.583   1
  -9   3   3-320.569 395.390   4
   9  -6   6 3650.59 1232.82   2
   6  -9   6 5606.04 1418.61   4
   3   6   6 5725.07 1460.52   3
  -3   9   6 4416.07 686.738   2
  -9   3   6 5109.51 989.437   2
   9  -6   6 4839.56 990.832   3
  -6  -3   6 5642.48 1205.64   2
   6  -9   6 4664.46 707.739   3
  -9   3   6 5686.70 1140.66   4
  -6  -3   6 3766.21 1070.11   4
   6  -9   6 3649.32 1238.38   2
   9  -6   6 4545.62 1409.44   4
  -3   9   6 4780.11 1349.31   4
   6  -9   9-583.864 1008.05   2
  -9   3   9-211.136 686.765   4
  -6  -3   9-44.4633 930.394   2
  -9   3   9-1086.18 826.903   2
   3   6   9-592.628 919.939   2
   3   6   9-101.832 987.809   4
   9  -6   9 639.259 1104.67   2
  -3   9   9 1058.20 661.345   2
   9  -6   9-801.874 817.393   3
   9  -6   9 660.102 900.219   4
   3   6   9 1443.30 1180.39   3
  -6  -3   9 275.906 802.937   4
  -3   9   9-86.1723 899.905   4
   6  -9   9 731.480 908.776   4
  -9   4 -10 1660.01 794.463   1
  -4   9 -10 123.752 898.466   1
   5  -9 -10-235.286 934.358   1
  -5  -4 -10 547.558 1000.16   1
   4   5 -10 1158.15 1267.25   1
   9  -5 -10 1073.70 1274.38   1
  -4   9  -7 11166.8 944.571   3
   5  -9  -7 10260.6 1898.52   1
   9  -5  -7 13594.0 2076.74   1
  -9   4  -7 13012.5 1721.73   1
  -5  -4  -7 13103.3 1919.48   1
   4   5  -7 13045.8 1600.28   3
   4   5  -7 14811.6 2204.00   1
   9  -5  -7 12241.7 1561.22   2
   9  -5  -4 649.334 405.202   4
   9  -5  -4 613.872 331.894   2
  -5  -4  -4-198.750 350.465   1
   4   5  -4 360.737 259.752   3
   5  -9  -4 1185.31 679.090   1
   4   5  -4 1207.00 563.568   1
   4   5  -4 88.9029 565.310   4
   9  -5  -4 1175.50 667.723   1
  -9   4  -4 485.780 392.933   1
  -5  -4  -4-87.3803 463.844   3
  -4   9  -4 486.317 480.212   4
  -4   9  -4 212.559 656.377   2
   5  -9  -4 875.325 641.932   3
   4   5  -4 227.201 529.177   2
  -9   4  -4 382.616 478.441   3
  -5  -4  -1 25028.6 1733.21   3
   9  -5  -1 23756.1 1324.76   1
   5  -9  -1 23059.2 1680.17   3
   9  -5  -1 25428.3 1536.45   3
   5  -9  -1 24254.4 1507.83   1
  -5  -4  -1 23482.2 1550.62   2
   5  -9  -1 24113.2 1128.40   2
  -4   9  -1 25501.5 1564.60   4
  -5  -4  -1 23945.6 1472.85   4
   4   5  -1 26051.6 1827.13   2
   9  -5  -1 24397.6 1035.41   4
   9  -5  -1 26334.9 1425.97   2
  -4   9  -1 23205.3 1740.56   2
   5  -9  -1 24216.0 907.910   4
   4   5  -1 20550.7 1433.25   4
  -5  -4  -1 25380.0 1149.64   1
  -9   4  -1 24326.9 1463.79   3
   4   5  -1 25631.4 1447.75   3
  -4   9   2 3076.91 451.364   4
   5  -9   2 2919.07 616.461   4
  -5  -4   2 3221.89 494.362   3
  -9   4   2 3268.21 490.227   4
   4   5   2 5447.40 1013.27   3
  -9   4   2 2790.16 610.161   1
   9  -5   2 2986.60 589.334   3
   4   5   2 4314.80 678.373   4
  -9   4   2 3454.80 566.613   2
   4   5   2 3825.63 630.863   2
  -5  -4   2 3526.32 743.038   2
  -5  -4   2 3036.66 670.504   4
  -4   9   2 2151.38 315.097   2
   5  -9   2 3414.23 320.913   3
   9  -5   2 3128.94 451.133   1
   4   5   2 2576.71 457.315   1
  -4   9   2 3693.70 683.012   1
  -5  -4   2 3761.29 695.832   1
   5  -9   2 3312.17 784.258   2
  -9   4   5 9861.28 1170.25   2
   4   5   5 10444.1 1748.37   3
   9  -5   5 11522.6 1832.44   4
   9  -5   5 9643.34 1348.38   1
   9  -5   5 9262.49 1257.83   3
   9  -5   5 11351.5 1712.08   2
  -4   9   5 8012.73 698.042   2
  -5  -4   5 9336.83 1423.23   2
   5  -9   5 10539.0 1583.35   4
  -9   4   5 10964.5 1352.69   4
   4   5   5 9751.44 1318.31   1
   5  -9   5 11006.2 1764.19   2
  -5  -4   5 11134.5 1506.66   4
  -5  -4   8 2479.74 961.879   4
  -4   9   8 2041.15 620.303   2
   4   5   8 2508.91 1186.82   3
  -4   9   8 1817.15 1081.06   4
  -9   4   8 1546.70 673.259   2
   9  -5   8 2700.03 1391.61   2
  -9   4   8 2507.97 974.061   4
   4   5   8 4394.12 1288.46   2
   9  -5   8 3208.43 1035.69   3
   4   5   8 2525.13 1289.97   4
   5  -9   8 2042.49 1278.71   2
   9  -5   8 3786.91 1550.27   4
  -5  -4   8 3630.62 1217.69   2
   5  -9   8 3239.47 1345.80   4
   9  -5  11 9654.96 2496.82   4
  -5  -4  11 5828.97 1711.79   2
  -4   9  11 5483.53 1933.83   4
  -9   4  11 9310.75 2230.84   4
  -9   4  11 4554.62 1361.78   2
   5  -9  11 6398.55 2005.30   4
   4   5  11 5363.54 1677.92   2
   4   5  11 8608.96 2458.88   4
  -5  -4  11 4974.33 1606.16   4
   9  -5  11 4905.26 1740.05   2
   5  -9  11 8385.40 2184.29   2
  -4  -5 -11 5902.83 1927.05   1
   4  -9 -11 5304.42 2035.68   1
  -5   9 -11 4124.06 1513.76   1
   5   4 -11 7899.78 2100.90   1
   9  -4 -11 6727.05 2057.63   1
  -9   5 -11 4642.39 1640.12   1
  -5   9  -8 4863.51 1421.16   1
   9  -4  -8 3094.96 1308.55   1
   5   4  -8 1932.57 1047.67   1
  -9   5  -8 2650.94 973.510   1
   5   4  -8 2277.88 833.982   3
  -4  -5  -8 2788.09 1206.56   1
  -5   9  -8 2447.05 556.560   3
   4  -9  -8 2048.92 1248.81   1
   9  -4  -5 6972.59 1200.69   4
   9  -4  -5 10921.1 1578.28   1
  -9   5  -5 9869.38 1302.17   1
  -9   5  -5 6555.02 1036.20   3
  -5   9  -5 8812.12 592.778   3
   9  -4  -5 9148.70 1206.55   2
   4  -9  -5 8983.07 1565.89   1
   5   4  -5 9551.36 1530.11   1
   5   4  -5 9953.73 990.029   3
  -4  -5  -5 10133.6 1425.97   1
   9  -4  -2 4340.70 614.664   2
   5   4  -2 4287.51 582.765   3
   9  -4  -2 3037.46 501.212   4
   9  -4  -2 4743.33 783.408   1
  -4  -5  -2 3522.08 572.624   1
  -4  -5  -2 3176.84 743.456   3
   4  -9  -2 3055.28 674.745   1
   4  -9  -2 4872.14 948.769   3
   4  -9  -2 3523.68 310.723   2
   5   4  -2 4042.86 713.274   4
  -9   5  -2 3738.65 620.218   3
  -5   9  -2 2685.57 676.281   4
  -5   9  -2 4148.69 906.553   2
   5   4  -2 3518.64 817.655   2
   4  -9   1 27832.9 1309.95   3
   9  -4   1 26756.5 1592.46   3
   4  -9   1 26298.1 1424.41   4
  -5   9   1 29174.6 1337.95   2
   5   4   1 26632.3 1505.92   4
   4  -9   1 25839.0 1761.99   2
  -9   5   1 28281.4 1035.04   4
  -4  -5   1 29101.3 1633.09   4
  -5   9   1 26554.9 1522.06   1
  -4  -5   1 29017.6 1810.40   2
  -5   9   1 28363.9 1025.88   4
   5   4   1 26727.4 1849.65   3
  -4  -5   1 28688.6 1398.90   3
   5   4   1 27371.0 1683.69   2
  -9   5   1 30200.9 1396.08   1
   4  -9   4 833.280 704.519   1
   9  -4   4 119.308 366.075   3
  -4  -5   4 971.109 480.792   4
  -4  -5   4 148.609 435.160   2
  -5   9   4 378.263 433.625   1
  -9   5   4 773.008 348.830   2
   9  -4   4 321.416 312.723   1
  -9   5   4 94.4449 467.550   1
   5   4   4 1401.23 735.548   3
  -4  -5   4 359.118 437.118   1
   4  -9   4 835.946 570.573   4
   5   4   4 378.883 316.769   1
   4  -9   4 630.923 558.265   2
  -9   5   4 427.187 276.186   4
  -5   9   7 14194.0 1171.55   2
  -4  -5   7 14719.4 2106.34   2
  -9   5   7 16512.0 1692.14   2
   4  -9   7 18220.2 2538.68   2
   5   4   7 15454.2 2017.41   2
  -4  -5   7 17810.6 2212.97   4
   9  -4   7 11807.0 2001.76   2
   9  -4   7 17104.5 2676.54   4
   4  -9   7 14075.0 2314.93   4
  -5   9   7 18012.5 2319.39   4
  -9   5   7 13235.2 1810.99   4
   9  -4   7 20434.5 2243.24   3
   5   4   7 18609.8 2444.90   3
   5   4  10 1796.65 1667.71   4
  -9   5  10 2650.37 999.208   2
   9  -4  10 1352.30 1362.38   2
  -5   9  10 1463.45 1273.18   4
  -5   9  10 1078.14 612.905   2
  -9   5  10 5210.32 1696.24   4
   9  -4  10-161.235 757.608   3
  -4  -5  10 1744.18 1239.14   4
   5   4  10 3221.11 1365.34   3
  -4  -5  10 1538.79 1026.07   2
   5   4  10 3580.35 1262.34   2
   9  -4  10 1707.81 1287.68   4
   4  -9  10 1065.53 1438.39   4
   4  -9  10 3440.22 1616.90   2
  -9   6  -9 711.420 725.387   1
  -6   9  -9 270.541 693.998   1
  -3  -6  -9-1197.75 813.081   1
   9  -3  -9-1007.91 883.709   1
   3  -9  -9 14.6495 1129.26   1
   6   3  -9 749.144 895.698   1
  -6   9  -6 4132.58 572.206   3
  -9   6  -6 4387.13 965.253   1
   3  -9  -6 4759.27 1231.05   1
   6   3  -6 6746.69 1374.22   1
  -9   6  -6 4478.64 952.679   3
   9  -3  -6 4854.21 1081.94   2
   9  -3  -6 5424.08 1240.88   1
  -3  -6  -6 7213.02 1455.97   1
   9  -3  -3-133.628 412.914   1
   6   3  -3 556.891 364.184   3
  -6   9  -3 280.059 490.934   4
  -3  -6  -3 808.313 517.045   3
   9  -3  -3 390.975 320.755   2
   6   3  -3 180.320 486.345   2
   6   3  -3-46.3755 385.069   1
  -3  -6  -3 310.189 386.710   1
   3  -9  -3 1283.47 525.107   3
   3  -9  -3-158.491 397.241   1
  -9   6  -3 349.849 289.873   3
   9  -3  -3 467.945 379.771   4
   6   3  -3 603.094 482.838   4
  -6   9  -3 672.566 549.745   2
   9  -3   0 8007.66 977.341   2
   9  -3   0 5909.86 451.427   1
  -3  -6   0 8380.02 893.181   3
  -3  -6   0 8457.51 950.183   2
   3  -9   0 8171.43 870.363   2
  -3  -6   0 7862.95 839.488   4
   3  -9   0 9040.55 752.386   4
   3  -9   0 8292.56 920.957   3
  -6   9   0 6511.31 802.409   2
   6   3   0 7457.90 934.359   3
   6   3   0 8449.36 989.343   2
   6   3   0 7196.03 813.555   4
  -6   9   0 7129.21 634.414   4
   9  -3   0 8027.40 900.811   3
   9  -3   0 7570.73 676.497   4
   6   3   3 2026.39 447.833   1
   3  -9   3 3319.00 876.768   2
   6   3   3 2430.03 766.491   3
   9  -3   3 3389.24 568.565   1
  -3  -6   3 3002.89 732.901   1
  -6   9   3 2879.65 730.311   1
   9  -3   3 2817.82 803.561   3
  -3  -6   3 3259.02 757.457   4
  -9   6   3 2485.71 433.895   2
  -3  -6   3 3253.22 829.078   2
   3  -9   3 2340.92 701.041   1
  -9   6   3 3180.55 736.434   1
  -9   6   3 2302.68 445.847   4
   3  -9   3 2388.65 741.175   4
   3  -9   6 11576.0 1808.14   4
  -6   9   6 10714.9 859.621   2
   9  -3   6 10936.8 1614.67   3
   9  -3   6 11809.7 2064.37   4
   9  -3   6 10972.5 1893.09   2
  -6   9   6 10893.0 1691.02   4
  -3  -6   6 13183.1 1811.27   4
   6   3   6 10770.4 1787.90   3
   9  -3   6 11040.3 1536.59   1
  -3  -6   6 12980.5 1850.96   2
  -9   6   6 13654.6 1607.40   4
  -9   6   6 12870.9 1269.78   2
   3  -9   6 11036.5 1778.50   2
   9  -3   9-1053.67 1112.03   4
  -3  -6   9 369.425 853.143   2
   6   3   9-897.342 995.825   2
   9  -3   9-755.590 990.489   2
   9  -3   9-349.149 665.908   3
   3  -9   9-30.1081 815.633   4
   6   3   9 949.668 935.698   3
   6   3   9-993.689 944.620   4
  -9   6   9 447.414 564.213   2
  -3  -6   9-496.877 753.324   4
  -6   9   9-674.298 834.148   4
  -6   9   9-38.6282 453.253   2
   3  -9   9-273.232 917.219   2
  -9   6   9-682.291 781.491   4
  -2  -7 -10-206.731 1013.87   1
   7   2 -10 2569.26 1503.84   1
   2  -9 -10 1930.74 1065.58   1
  -9   7 -10 2662.26 1266.48   1
  -7   9 -10 178.881 945.836   1
   9  -2 -10 946.456 1084.23   1
   2  -9  -7 1621.27 695.954   1
  -7   9  -7 1626.00 506.228   3
  -9   7  -7 3270.39 905.788   1
  -9   7  -7 1577.95 624.321   3
  -2  -7  -7 2293.12 939.333   1
   7   2  -7 2503.21 1008.44   1
   9  -2  -7 4147.47 1221.87   1
   7   2  -4 1388.38 645.181   2
   9  -2  -4 1373.23 575.325   2
  -2  -7  -4 1191.57 649.219   1
  -7   9  -4 1226.29 276.596   3
   9  -2  -4 1898.80 662.902   4
   2  -9  -4 1069.69 671.904   1
   7   2  -4 1305.96 540.260   1
  -7   9  -4 1431.00 787.900   4
   9  -2  -4 167.866 410.749   1
  -9   7  -4 1347.05 445.506   3
   7   2  -4 2319.00 758.860   4
   7   2  -4 963.976 291.603   3
   9  -2  -1 9015.71 949.847   3
   7   2  -1 7720.05 912.069   3
  -2  -7  -1 8314.05 839.531   2
  -2  -7  -1 8433.23 1056.22   3
  -2  -7  -1 7572.79 823.922   4
   2  -9  -1 7942.97 1062.88   3
   7   2  -1 8501.99 930.767   4
  -2  -7  -1 6795.41 773.371   1
   9  -2  -1 6928.75 743.077   4
   9  -2  -1 6815.89 873.227   2
   9  -2  -1 6969.62 676.949   1
  -7   9  -1 7090.49 815.628   4
   2  -9  -1 6538.09 811.919   1
   2  -9  -1 7524.75 731.554   2
   2  -9  -1 7683.82 722.191   4
   7   2  -1 8067.05 1015.07   2
   9  -2   2 10979.0 681.068   1
  -2  -7   2 12906.9 1380.16   2
  -7   9   2 14451.8 1305.26   1
   7   2   2 11943.0 1188.84   2
  -9   7   2 12738.1 1210.35   1
   2  -9   2 12160.0 1420.59   2
  -2  -7   2 11167.9 1198.71   1
   2  -9   2 9982.17 498.209   3
   7   2   2 11726.2 1121.66   4
  -2  -7   2 13495.7 1250.46   4
  -9   7   2 12382.4 644.084   4
   7   2   2 13371.1 777.335   1
   9  -2   2 12987.0 1301.46   3
   7   2   2 13303.2 1448.17   3
  -2  -7   2 13139.3 792.263   3
  -7   9   2 11616.5 557.878   4
  -7   9   2 9698.25 670.534   4
   2  -9   2 12101.6 1145.90   4
   9  -2   5 16182.7 1867.55   3
  -2  -7   5 19410.4 2050.27   2
   7   2   5 17919.7 1670.02   1
   2  -9   5 19637.6 2104.24   4
  -2  -7   5 17760.3 1898.79   4
   2  -9   5 18828.9 2181.68   2
  -7   9   5 17243.6 1732.08   4
   7   2   5 19118.1 2138.44   3
  -9   7   5 20267.4 1718.67   4
   9  -2   5 18394.8 1740.65   1
  -9   7   5 18152.0 1210.84   2
  -2  -7   8 830.780 783.671   4
  -9   7   8 864.090 582.719   2
  -7   9   8 647.093 524.007   2
   2  -9   8 1521.15 1060.85   2
   9  -2   8 3278.93 1261.16   4
   7   2   8 1307.33 1130.37   4
   9  -2   8 418.636 813.554   2
   2  -9   8 1501.80 947.727   4
   7   2   8 30.6786 676.070   3
  -9   7   8 1810.59 723.629   4
  -2  -7   8 2818.54 1209.67   2
  -7   9   8 1608.99 843.249   4
   7   2   8 1048.91 802.382   2
   9  -2   8 1350.75 1038.09   3
  -9   7  11 6199.71 1705.14   4
   7   2  11 4106.93 1962.27   4
   2  -9  11 5110.20 1941.25   4
   2  -9  11 6259.96 2029.86   2
  -7   9  11 3534.69 1649.73   4
   9  -2  11 3525.27 1636.81   2
   9  -2  11 3724.12 1682.78   3
   7   2  11 5765.47 1777.94   3
  -2  -7  11 5151.23 1712.25   4
   9  -2  11 3664.53 1818.13   4
   7   2  11 5212.72 1928.11   2
  -2  -7  11 4967.00 1732.66   2
  -9   7  11 5428.34 1224.61   2
  -1  -8 -11 2276.66 1296.63   1
   1  -9 -11 2013.68 1245.35   1
  -9   8 -11 4834.64 1642.86   1
   8   1 -11 4366.43 1976.72   1
   9  -1 -11 7013.59 2057.87   1
  -1  -8  -8 1339.48 895.857   1
   9  -1  -8 3373.80 1041.67   1
   1  -9  -8 3244.03 1534.02   1
  -8   9  -8 3847.65 793.681   3
  -9   8  -8 4983.20 1322.79   1
  -9   8  -8 3248.61 805.709   3
   1  -9  -5 6709.82 1327.63   1
  -8   9  -5 8154.17 827.232   3
  -9   8  -5 7947.09 969.635   3
   9  -1  -5 8328.51 1395.93   1
   9  -1  -5 10621.9 1400.76   2
  -1  -8  -5 5836.50 1233.27   1
   8   1  -5 9398.48 1463.40   1
   8   1  -5 9812.52 1453.87   2
   9  -1  -5 7456.80 1298.76   4
  -1  -8  -2 3994.34 594.799   2
   8   1  -2 5629.90 783.471   3
   1  -9  -2 4947.68 855.195   1
  -1  -8  -2 5371.85 1008.54   3
  -9   8  -2 5402.30 662.744   3
   8   1  -2 5013.14 785.472   4
   1  -9  -2 5502.31 584.358   2
   9  -1  -2 5176.76 747.377   1
   8   1  -2 6857.00 1016.08   2
   1  -9  -2 5262.65 1016.52   3
   8   1  -2 5363.20 732.922   1
   9  -1  -2 5961.33 819.664   2
   9  -1  -2 5965.46 830.500   4
  -1  -8  -2 5608.80 828.424   1
   9  -1  -2 6345.40 858.541   3
   9  -1   1 13436.8 1318.23   2
  -1  -8   1 12433.9 1126.25   4
   1  -9   1 11538.9 1256.33   2
  -1  -8   1 12561.2 927.810   3
   8   1   1 13060.3 1238.41   2
  -8   9   1 14155.4 1139.85   1
   8   1   1 12513.6 1255.88   3
  -1  -8   1 11811.9 1308.28   2
   1  -9   1 13233.6 1086.44   4
   1  -9   1 10712.5 857.221   3
   9  -1   1 12812.2 1289.17   3
   9  -1   1 13825.1 1092.98   4
   8   1   1 12311.0 1081.09   4
  -9   8   1 12028.8 999.415   1
   8   1   4 5929.27 1180.71   3
   9  -1   4 8241.50 1319.32   3
   9  -1   4 8103.66 987.124   1
   1  -9   4 9709.49 1432.98   2
  -8   9   4 7905.35 959.096   4
  -9   8   4 8248.60 1289.80   1
  -1  -8   4 7861.10 1309.24   2
  -9   8   4 8134.85 913.694   4
   8   1   4 7900.97 953.395   1
  -9   8   4 6878.89 603.979   2
  -1  -8   4 7889.18 1203.82   4
   1  -9   4 7259.26 1164.54   4
   8   1   7 11973.0 1965.90   2
   1  -9   7 15754.6 2279.77   2
   9  -1   7 13059.5 2035.94   3
  -9   8   7 13776.5 1819.23   4
   8   1   7 14687.3 2098.65   3
   9  -1   7 12529.4 2258.81   4
  -1  -8   7 13159.8 2070.84   2
  -8   9   7 14165.5 1928.39   4
  -8   9   7 12498.4 1096.78   2
   1  -9   7 14537.4 2104.47   4
   9  -1   7 12584.5 2084.29   2
  -1  -8   7 15480.1 2244.33   4
  -9   8   7 15752.9 1353.24   2
  -8   9  10 3363.35 872.163   2
   8   1  10 4377.14 1769.60   3
  -9   8  10 4382.15 1036.50   2
   1  -9  10 1282.50 1108.58   2
   9  -1  10 7399.08 2033.93   2
   8   1  10 4536.69 1976.82   4
   8   1  10 2611.63 1336.55   2
   9  -1  10 5456.98 1725.69   3
   1  -9  10 5885.70 1650.94   4
  -1  -8  10 3774.88 1465.67   4
   9  -1  10 3256.22 1749.98   4
  -9   8  10 3294.76 1474.05   4
  -1  -8  10 3371.00 1430.93   2
  -8   9  10 2608.40 1320.51   4
   0  -9  -9-143.540 809.875   1
   9   0  -9 1863.45 1037.39   1
  -9   9  -6 1256.03 443.037   3
   9   0  -6 3383.85 1078.67   1
   0  -9  -6 1254.23 918.505   1
   0  -9  -3 846.612 672.396   3
   9   0  -3-446.182 486.452   2
  -9   9  -3 515.471 234.810   3
   0  -9  -3-254.349 503.266   1
   9   0  -3-75.4924 368.322   1
   9   0  -3-333.972 419.703   4
   9   0  -3 280.638 289.267   3
   0  -9   0 19042.9 1265.94   4
   9   0   0 17461.2 1420.63   3
   9   0   0 17502.7 1464.90   2
   9   0   0 17294.6 1240.33   4
   0  -9   0 18022.7 1383.36   2
   0  -9   0 17426.7 1404.56   3
  -9   9   3 291.017 392.423   1
   0  -9   3-802.153 630.862   2
   0  -9   3-301.171 511.837   1
   9   0   3-275.129 436.785   3
   0  -9   3-258.607 419.999   4
   9   0   3-41.6075 195.434   1
  -9   9   3 65.9833 188.485   4
  -9   9   6 1815.53 670.534   4
   0  -9   6 2455.52 888.101   2
   9   0   6 2592.41 1165.59   3
   0  -9   6 2348.47 1031.38   4
  -9   9   6 2258.20 378.245   2
   9   0   6 1984.33 700.952   1
   0  -9   9 484.116 752.771   4
   9   0   9 1850.71 1102.96   4
  -9   9   9 943.438 586.389   2
   0  -9   9-328.369 772.092   2
   9   0   9 123.538 841.438   2
   9   0   9-1265.08 912.614   3
  -9   9   9 674.814 912.016   4
  10 -10 -10 8510.06 2207.80   1
 -10   0 -10 12810.1 2500.50   1
  10 -10  -7 626.201 881.334   1
 -10   0  -7 829.596 665.511   1
   0  10  -7 150.037 268.499   3
   0  10  -7-198.580 166.452   3
  10 -10  -4 42012.9 3002.93   1
 -10   0  -4 44226.8 2177.07   1
  10 -10  -1-116.211 334.980   1
 -10   0  -1 65.4204 356.590   3
   0  10  -1-226.178 302.529   4
   0  10  -1 713.233 286.960   3
   0  10  -1-348.608 426.677   2
  10 -10   2 37049.8 1712.92   3
   0  10   2 35672.3 1943.94   2
   0  10   2 40082.6 2831.47   3
  10 -10   2 37031.5 2633.05   2
   0  10   2 39960.4 1991.69   4
  10 -10   2 34442.1 2121.31   4
 -10   0   2 34850.7 2065.05   1
 -10   0   2 40504.5 2053.89   4
 -10   0   2 37118.2 2246.49   2
  10 -10   5 345.249 772.191   2
  10 -10   5 203.186 288.111   3
  10 -10   5 62.4678 636.089   4
   0  10   5 446.544 712.204   3
 -10   0   5 305.014 590.981   2
   0  10   5-5.47111 264.781   2
 -10   0   5 187.055 536.615   4
   0  10   8 7255.46 1719.97   4
 -10   0   8 7289.62 1577.13   2
   0  10   8 7787.05 2027.88   3
  10 -10   8 10874.4 2112.99   4
 -10   0   8 8485.10 1655.82   4
  10 -10   8 5933.83 1156.53   3
  10 -10   8 7228.24 1920.69   2
   0  10   8 7098.35 1291.59   2
   0  10  11 1238.77 1144.79   4
 -10   0  11-115.046 963.444   4
  10 -10  11-1440.09 1373.81   4
 -10   0  11-754.017 1066.04   2
  10 -10  11 1528.42 1479.04   2
 -10   1 -11 2908.41 1372.91   1
  10  -9 -11-355.228 902.962   1
  -9  -1 -11 1304.56 1205.73   1
   9 -10 -11 2624.88 1675.76   1
   1   9  -8 343.072 288.721   3
   1   9  -8 1481.43 677.599   3
  -1  10  -8 859.778 345.115   3
   9 -10  -8 1603.00 1073.81   1
  -1  10  -8 531.733 236.565   3
 -10   1  -8-92.8278 561.933   1
  10  -9  -8-872.583 808.266   1
  -9  -1  -8 292.850 845.060   1
 -10   1  -5 2744.78 714.899   1
  10  -9  -5 2644.02 908.837   1
  -9  -1  -5 1968.66 648.629   1
   9 -10  -5 2750.81 959.235   1
   1   9  -5 1766.93 293.585   3
   1   9  -5 1376.53 315.359   3
  10  -9  -5 1800.47 364.269   2
   1   9  -2 3551.93 533.582   3
  10  -9  -2 3080.42 446.335   2
 -10   1  -2 3564.16 742.480   3
  -1  10  -2 3463.68 485.649   3
  -1  10  -2 3614.01 821.831   4
  -9  -1  -2 2425.86 388.684   1
  10  -9  -2 3050.10 729.243   1
  -9  -1  -2 2985.35 740.444   3
   9 -10  -2 3233.08 767.049   1
  -1  10  -2 2923.44 820.176   2
   1   9  -2 3124.29 857.957   2
   1   9  -2 4410.51 829.681   4
 -10   1   1 1300.11 328.810   4
   9 -10   1 2005.54 477.402   4
   9 -10   1 2368.95 460.975   3
  -1  10   1 1882.95 525.470   2
  -9  -1   1 1640.19 444.852   4
  -9  -1   1 1704.94 427.665   1
  10  -9   1 2683.07 517.600   3
   1   9   1 1634.95 516.340   2
  -9  -1   1 1236.46 458.719   2
  -9  -1   1 2101.75 568.339   3
   1   9   1 1768.28 637.700   3
  10  -9   1 1373.42 423.146   4
  -1  10   1 1716.08 718.060   3
 -10   1   1 1750.45 596.314   2
 -10   1   1 2392.16 430.649   1
   1   9   1 1544.87 455.637   4
   9 -10   1 2481.12 702.441   2
  -1  10   1 1608.79 373.925   4
 -10   1   1 3681.96 667.573   3
   1   9   4 6003.07 1321.19   3
  10  -9   4 4594.73 886.489   1
   9 -10   4 4707.79 914.471   1
   1   9   4 3888.06 866.262   1
  -1  10   4 2113.25 845.803   3
  -9  -1   4 5505.51 1003.31   4
  10  -9   4 6012.26 1268.89   4
  10  -9   4 4403.86 716.817   3
  -9  -1   4 6547.39 1119.63   2
 -10   1   4 4987.17 922.432   4
   9 -10   4 5258.94 1242.06   2
  -1  10   4 4490.55 583.893   2
   9 -10   4 6350.44 1306.66   4
 -10   1   4 6226.68 1132.57   1
  -9  -1   4 4525.82 1055.83   1
   9 -10   4 5098.60 710.550   3
  10  -9   4 6557.66 1437.65   2
   1   9   4 3721.58 638.000   2
 -10   1   4 5989.86 992.004   2
  10  -9   7 5350.99 1554.89   4
  -9  -1   7 4178.80 1180.07   2
  -1  10   7 4051.03 950.208   2
  10  -9   7 6315.18 1659.12   2
 -10   1   7 2986.30 937.116   4
   9 -10   7 2731.77 1012.83   2
   9 -10   7 2596.45 718.616   3
   1   9   7 3519.30 1300.62   3
  -1  10   7 2331.27 596.403   2
   9 -10   7 3847.16 1310.45   4
  -9  -1   7 4386.12 1047.99   4
   1   9   7 3332.29 928.953   2
  10  -9   7 4909.90 1014.86   3
 -10   1   7 5485.69 1105.52   2
  -1  10   7 4232.50 1434.33   3
  -1  10  10 1371.25 864.960   2
  -9  -1  10 3368.47 1308.27   2
 -10   1  10 2143.18 1148.11   2
  -9  -1  10 1183.61 1107.55   4
  10  -9  10 1918.52 1537.91   4
 -10   1  10 2003.09 999.396   4
   1   9  10 3608.35 1743.25   4
  -1  10  10 3466.83 1877.90   4
   1   9  10 2334.64 1167.45   2
  10  -9  10 1153.49 1037.73   2
   9 -10  10 2422.46 1340.95   2
   9 -10  10 3912.81 1809.18   4
   2   8  -9 1311.53 391.030   3
   2   8  -9 1676.43 1270.29   1
  -8  -2  -9 1573.73 996.369   1
   8 -10  -9 297.096 959.636   1
 -10   2  -9 118.305 767.283   1
  10  -8  -9 2432.12 1257.31   1
  -8  -2  -6 3024.94 955.493   1
   2   8  -6 2821.29 459.650   3
   2   8  -6 3112.29 654.459   3
  10  -8  -6 4066.81 1243.83   1
 -10   2  -6 3550.08 882.352   1
   8 -10  -6 1420.67 820.000   1
  10  -8  -6 2630.05 641.353   2
   2   8  -3 3208.14 901.595   2
 -10   2  -3 3118.08 788.836   3
  10  -8  -3 3697.59 886.660   1
  -8  -2  -3 4723.65 1028.21   3
  -8  -2  -3 4744.40 710.799   1
  -2  10  -3 2857.69 870.943   2
  10  -8  -3 4504.86 543.285   2
   2   8  -3 4345.87 1007.68   4
  -2  10  -3 5967.52 1118.12   4
   8 -10  -3 4592.31 905.254   1
  10  -8  -3 4502.99 596.284   4
 -10   2  -3 4888.68 608.447   1
   2   8  -3 5227.44 566.990   3
  10  -8   0 3504.29 640.990   3
  -8  -2   0 5179.06 792.252   3
  -8  -2   0 3153.37 687.940   2
  10  -8   0 3592.63 530.049   1
   2   8   0 2478.35 650.958   2
   8 -10   0 3985.15 386.456   4
  -8  -2   0 3364.66 431.305   1
  -2  10   0 5199.74 825.618   3
   2   8   0 4161.77 768.846   3
 -10   2   0 3952.84 679.032   3
  -2  10   0 4945.16 837.546   2
  -2  10   0 2960.89 573.468   4
   2   8   0 3305.76 635.301   4
   8 -10   0 4375.81 618.091   1
   8 -10   0 3972.93 690.988   2
 -10   2   0 4607.30 640.618   4
  -8  -2   0 3769.95 611.378   4
  -2  10   3 8323.33 1088.46   1
   2   8   3 8863.79 967.511   2
   8 -10   3 9066.09 759.687   3
  10  -8   3 9431.82 996.242   3
   2   8   3 9161.64 1042.38   4
  10  -8   3 9051.16 1046.50   1
   8 -10   3 7676.11 1395.50   2
   2   8   3 7674.30 1285.66   3
 -10   2   3 9103.61 1213.14   1
  -8  -2   3 10015.2 1178.08   4
  10  -8   3 10150.6 1504.50   2
   2   8   3 9657.12 1087.68   1
  -2  10   3 10766.1 1605.54   3
   8 -10   3 8961.87 1285.95   4
  -2  10   3 8329.20 739.460   2
 -10   2   3 8328.63 994.693   4
  -8  -2   3 9416.12 1229.07   2
   8 -10   3 8551.83 1124.03   1
 -10   2   3 10321.5 1157.85   2
  -2  10   3 9478.60 945.256   4
  10  -8   3 5490.65 985.688   4
  -8  -2   3 7271.59 1140.89   1
  10  -8   6-30.2958 517.267   3
  -2  10   6 479.541 389.997   2
  10  -8   6-747.664 841.517   4
  -2  10   6 389.872 294.750   2
  -8  -2   6 460.538 652.221   2
  10  -8   6 521.357 878.073   2
   8 -10   6-458.947 705.176   2
   8 -10   6 402.571 666.090   4
   8 -10   6 531.863 319.379   3
   2   8   6 618.567 644.995   3
 -10   2   6 470.530 381.291   2
 -10   2   6 801.566 570.555   4
  -8  -2   6 1622.01 716.766   4
  -2  10   6 2760.37 1271.59   3
   8 -10   9 4233.22 1558.45   4
  -2  10   9 2579.95 1383.42   4
   2   8   9 2994.67 1020.21   2
 -10   2   9 1821.48 951.805   2
 -10   2   9 3499.18 1216.74   4
  10  -8   9 2619.89 1155.54   4
  10  -8   9 4036.05 1715.08   2
   2   8   9 3347.85 1365.37   4
  10  -8   9 2869.85 1074.88   3
   2   8   9 2581.34 1217.81   3
   8 -10   9 2370.64 1381.58   2
  -2  10   9 3216.72 930.154   2
  -8  -2   9 3536.87 1113.56   4
  -8  -2   9 4068.80 1274.18   2
   3   7 -10 3584.95 1597.52   1
   7 -10 -10 6202.67 2116.38   1
 -10   3 -10 5279.10 1621.29   1
  -7  -3 -10 3072.57 1348.86   1
  10  -7 -10 6095.40 1947.61   1
   3   7  -7 179.443 411.303   3
 -10   3  -7 743.696 720.880   1
   3   7  -7 677.382 794.819   1
  -7  -3  -7 434.372 659.643   1
  -3  10  -7 61.4567 140.223   3
  10  -7  -7 1863.83 941.080   1
  10  -7  -7 618.626 560.752   2
   3   7  -7 433.571 338.451   3
   7 -10  -7-250.896 802.284   1
  -7  -3  -4 32182.7 2145.49   1
   3   7  -4 33443.0 1429.11   3
   7 -10  -4 28167.5 2413.76   1
  10  -7  -4 30213.0 2420.32   1
 -10   3  -4 33213.0 1889.63   1
  10  -7  -4 29154.0 1899.44   4
  10  -7  -4 27735.0 1532.62   2
 -10   3  -4 27700.2 2171.39   3
 -10   3  -1 2559.66 565.977   3
   3   7  -1 1238.38 521.297   2
  10  -7  -1 1899.40 278.347   4
   7 -10  -1 2301.62 522.386   1
  -3  10  -1 3221.24 651.971   4
  -7  -3  -1 1937.25 583.923   3
  -7  -3  -1 3544.62 723.562   2
   3   7  -1 2477.48 541.097   3
   7 -10  -1 2392.56 434.329   2
  10  -7  -1 1518.36 418.015   1
  10  -7  -1 3027.97 538.279   2
  -3  10  -1 2885.00 757.311   2
  -7  -3  -1 3531.49 643.266   4
  -7  -3  -1 1648.58 299.842   1
   3   7  -1 2580.04 602.704   4
  -3  10   2 13595.6 986.237   4
   7 -10   2 14043.3 787.184   3
   3   7   2 16025.2 1757.12   3
   3   7   2 12596.4 1180.43   4
  -3  10   2 12508.2 903.388   2
  -7  -3   2 14763.1 1495.65   2
   3   7   2 12709.0 1166.77   2
  -3  10   2 12872.6 1231.35   1
  -7  -3   2 11789.8 1021.20   3
 -10   3   2 13643.5 1037.18   4
   3   7   2 13712.1 1080.18   1
  -7  -3   2 13578.4 1299.08   1
   7 -10   2 13861.1 1299.65   4
   7 -10   2 12234.9 1484.76   2
  -3  10   2 16638.1 1778.68   3
  -7  -3   2 13586.4 1311.22   4
  10  -7   2 12743.4 1148.75   3
 -10   3   2 13708.1 1206.72   2
 -10   3   2 13794.2 1268.14   1
  -7  -3   5 271.587 453.440   4
   7 -10   5 1606.95 861.146   4
  -7  -3   5 1120.41 729.225   2
 -10   3   5 652.666 451.665   2
  10  -7   5 1648.50 621.062   3
  -3  10   5 1363.29 283.844   2
   7 -10   5 2494.46 874.284   2
   7 -10   5 2022.63 444.802   3
   3   7   5 2462.36 1000.54   3
  10  -7   5 1412.48 740.628   4
   3   7   5 562.048 469.354   2
  -3  10   5 1014.66 335.572   2
  10  -7   5 96.0099 534.731   2
 -10   3   5 1552.27 587.968   4
  10  -7   5 1434.98 810.359   1
 -10   3   8 14287.2 1841.48   2
  -3  10   8 11680.2 2122.61   4
   7 -10   8 16990.8 2651.68   2
   3   7   8 13897.9 2486.24   3
  10  -7   8 14143.0 2384.73   2
  10  -7   8 15124.1 2516.94   4
 -10   3   8 13676.2 1916.99   4
  -7  -3   8 14657.4 2094.07   4
   3   7   8 13429.3 1942.94   2
  -7  -3   8 12231.9 1991.07   2
   7 -10   8 18109.1 2654.31   4
  -3  10   8 12858.0 1402.44   2
  10  -7   8 15695.4 2044.61   3
   3   7  11 180.041 912.786   2
  -7  -3  11 2151.15 1399.24   4
  -7  -3  11 1887.33 1235.37   2
   7 -10  11 1847.27 1538.01   4
  -3  10  11 1553.39 1404.46   4
 -10   3  11-297.438 958.038   4
 -10   3  11 1119.57 1033.52   2
   7 -10  11 917.059 1379.25   2
  10  -7  11 13.8649 1452.17   2
   3   7  11 2379.07 1723.45   4
  10  -7  11-995.396 1511.62   4
 -10   4 -11 36.8527 781.556   1
  -6  -4 -11 1859.53 1246.66   1
  10  -6 -11-541.407 1153.68   1
   6 -10 -11 145.357 1000.78   1
   4   6 -11 1246.91 1334.57   1
   4   6  -8 2136.02 756.994   3
  -4  10  -8 3107.92 516.058   3
  -6  -4  -8 5298.47 1265.10   1
   6 -10  -8 4349.96 1395.65   1
 -10   4  -8 5911.48 1291.25   1
   4   6  -8 4216.87 1401.21   1
  10  -6  -8 3852.79 1051.91   2
  10  -6  -8 4759.51 1567.19   1
  -6  -4  -5 7779.49 1223.74   1
 -10   4  -5 8623.54 1161.66   1
 -10   4  -5 5492.44 1129.65   3
  10  -6  -5 9172.83 1590.33   1
   6 -10  -5 8429.29 1592.82   1
   4   6  -5 8653.70 818.270   3
   4   6  -5 11294.1 1672.37   1
  10  -6  -5 8341.13 1214.66   4
  10  -6  -5 7129.22 1016.96   2
   6 -10  -2 8788.15 521.296   2
 -10   4  -2 11812.8 1166.35   3
  -6  -4  -2 12056.2 1363.25   3
  -4  10  -2 10945.9 1425.96   2
  10  -6  -2 10381.2 914.530   2
  -4  10  -2 8666.02 1208.57   4
   6 -10  -2 10616.8 1200.11   1
  10  -6  -2 10164.5 826.356   4
   4   6  -2 9046.62 1143.04   4
   6 -10  -2 10916.1 1387.66   3
  10  -6  -2 12056.5 1201.42   1
  -6  -4  -2 11920.6 954.788   1
   4   6  -2 9425.04 1239.54   2
   4   6  -2 11356.5 971.256   3
  -4  10   1 2543.66 413.703   4
  -6  -4   1 2907.03 530.161   3
  10  -6   1 2454.83 506.072   3
   6 -10   1 3495.23 752.447   2
   4   6   1 2057.08 538.604   2
  -6  -4   1 3426.59 638.838   4
  -6  -4   1 2711.30 646.501   2
 -10   4   1 3385.23 488.764   1
   4   6   1 3894.08 789.764   3
  -4  10   1 3048.85 513.986   2
  -6  -4   1 2053.27 433.418   1
   4   6   1 2954.97 582.430   4
 -10   4   1 3604.67 493.517   4
   6 -10   1 3205.85 527.065   4
   4   6   4 5470.77 867.503   2
   4   6   4 5974.80 1328.98   3
  10  -6   4 4345.26 846.831   3
 -10   4   4 4779.07 983.824   1
   6 -10   4 5518.13 1138.21   4
  -6  -4   4 3787.14 925.608   2
  10  -6   4 5095.35 908.123   1
  -6  -4   4 5085.60 1147.60   1
  10  -6   4 5525.36 1178.01   4
  -6  -4   4 6342.66 1116.30   4
   6 -10   4 4078.60 942.251   1
 -10   4   4 6403.37 887.947   4
   4   6   4 5624.71 896.306   1
 -10   4   4 5352.45 852.562   2
   6 -10   4 3651.47 391.237   3
   6 -10   4 7471.70 1429.32   2
   4   6   7 1954.65 1027.04   3
  -6  -4   7 1436.73 790.477   2
  10  -6   7 974.874 565.757   3
  -4  10   7 2250.16 1129.52   4
   4   6   7 966.166 557.971   2
   6 -10   7 247.207 707.285   4
  10  -6   7-898.287 1017.77   4
 -10   4   7 1347.30 499.762   2
 -10   4   7 2117.02 883.398   4
  10  -6   7 1046.13 767.959   2
   6 -10   7 1970.04 1132.61   2
  -6  -4   7 2330.05 1018.24   4
  -4  10   7 1518.50 442.785   2
  -6  -4  10 6541.78 1726.47   2
  -6  -4  10 4561.17 1480.58   4
  -4  10  10 6429.21 2049.98   4
   6 -10  10 8560.19 2118.29   2
   6 -10  10 6172.81 1952.69   4
  10  -6  10 5261.51 1943.00   4
  10  -6  10 7624.48 1791.27   3
   4   6  10 7493.96 1906.28   3
 -10   4  10 5791.27 1567.29   4
  -4  10  10 4480.57 1027.63   2
  10  -6  10 5623.29 1739.51   2
   4   6  10 3033.75 1633.91   4
 -10   4  10 3021.66 960.342   2
   4   6  10 6878.83 1745.48   2
   5 -10  -9 1833.72 910.728   1
   5   5  -9 4544.73 1458.36   1
 -10   5  -9 4659.20 1287.05   1
  -5  -5  -9 3226.74 1346.07   1
  -5  -5  -6 4538.74 1137.38   1
  10  -5  -6 4995.56 1011.58   2
  10  -5  -6 4205.04 1221.43   1
   5   5  -6 4126.12 665.743   3
 -10   5  -6 2867.79 871.264   3
   5   5  -6 3411.80 1107.83   1
   5 -10  -6 4640.47 1284.08   1
  -5  10  -6 3607.02 399.019   3
 -10   5  -6 3670.23 826.100   1
  -5  -5  -3 10600.5 1430.37   3
  10  -5  -3 6349.00 1106.60   1
   5   5  -3 8438.26 820.211   3
 -10   5  -3 8538.32 1010.91   3
  -5  10  -3 7325.41 1338.56   2
   5 -10  -3 8553.92 1359.10   3
   5 -10  -3 7345.13 1154.57   1
   5   5  -3 6304.46 1119.44   2
  -5  10  -3 7880.10 1219.08   4
   5   5  -3 7746.13 1153.76   4
  -5  -5  -3 7128.14 954.329   1
  10  -5  -3 7223.19 848.939   2
  10  -5  -3 8402.36 1013.91   4
  -5  -5   0 21209.0 1470.88   3
  10  -5   0 20117.5 1044.38   4
   5   5   0 20459.8 1421.55   4
   5 -10   0 18710.1 1404.08   3
  -5  10   0 21565.1 1238.03   4
   5 -10   0 19348.8 1006.74   4
  -5  10   0 19161.3 1445.73   2
   5 -10   0 18721.6 1346.94   2
  -5  -5   0 21974.1 1399.53   4
 -10   5   0 18996.5 1386.91   3
   5   5   0 18666.4 1484.04   3
   5   5   0 18989.7 1525.90   2
  10  -5   0 19519.2 949.514   1
  10  -5   0 19692.0 1389.78   3
  -5  -5   0 18332.2 1416.86   2
  -5  -5   3 8201.52 1083.49   4
   5 -10   3 8832.41 1406.94   2
 -10   5   3 8351.12 896.338   2
   5   5   3 6408.60 1192.91   3
   5   5   3 8712.79 1057.45   2
  -5  -5   3 9049.02 1268.48   1
   5   5   3 7612.68 891.839   1
  10  -5   3 6462.69 812.729   1
   5 -10   3 7460.60 1138.70   4
  -5  10   3 7525.57 1120.62   1
 -10   5   3 7534.62 1107.89   1
 -10   5   3 8756.74 901.169   4
  10  -5   3 9295.14 1104.08   3
  -5  -5   3 8436.78 1246.58   2
   5 -10   6 3950.92 1195.14   4
  10  -5   6 3396.61 1027.40   2
   5   5   6 5209.81 1335.81   3
  10  -5   6 3049.11 1078.22   4
  -5  -5   6 3226.44 985.328   4
   5 -10   6 3239.00 1163.04   2
  -5  10   6 3374.61 456.821   2
  -5  10   6 2938.25 1064.50   4
 -10   5   6 5097.09 1003.28   4
  -5  -5   6 5285.27 1106.27   2
  10  -5   6 4045.28 1058.63   3
 -10   5   6 3945.63 842.838   2
   5   5   9 2608.84 1269.21   2
  -5  10   9 2970.84 667.090   2
 -10   5   9 5706.57 1460.95   4
  -5  -5   9 4231.90 1238.30   4
   5 -10   9 2317.37 1169.02   2
  -5  -5   9 5402.02 1629.07   2
  10  -5   9 5758.15 1429.88   3
  -5  10   9 4858.94 1440.62   4
   5   5   9 3073.42 1655.43   4
   5   5   9 5356.22 1912.27   3
  10  -5   9 6295.62 1945.96   4
 -10   5   9 6596.88 1351.29   2
  10  -5   9 4048.23 1765.98   2
   5 -10   9 4077.47 1516.73   4
  10  -4 -10 4937.74 1731.25   1
   4 -10 -10 4771.96 1661.34   1
 -10   6 -10 4897.92 1471.45   1
  -4  -6 -10 6786.88 1816.26   1
   6   4 -10 8335.59 2087.01   1
  10  -4  -7 355.888 587.676   1
   4 -10  -7 1623.61 1093.46   1
 -10   6  -7 1632.50 702.188   1
   6   4  -7 557.903 662.463   1
  -4  -6  -7 1895.43 943.104   1
  -6  10  -7 1556.69 373.702   3
  10  -4  -7 1651.29 867.572   2
  -4  -6  -4 4710.42 944.620   1
   6   4  -4 5792.14 1103.95   1
   4 -10  -4 4901.87 1063.99   1
  10  -4  -4 5282.39 867.691   2
  10  -4  -4 3481.25 899.369   1
  10  -4  -4 3804.15 775.898   4
  -6  10  -4 4212.00 1039.08   4
   6   4  -4 4683.24 1074.27   2
 -10   6  -4 4475.75 785.798   3
   6   4  -4 4818.52 679.361   3
  10  -4  -1 2733.22 558.039   3
  -4  -6  -1 2753.00 517.741   4
  -4  -6  -1 2043.83 521.552   2
   6   4  -1 2579.17 499.034   4
  -4  -6  -1 3006.14 480.440   1
   6   4  -1 3056.88 676.617   2
 -10   6  -1 2255.38 462.974   3
   4 -10  -1 3218.01 523.564   2
  -4  -6  -1 3321.54 691.517   3
  10  -4  -1 2120.66 471.776   1
   4 -10  -1 2639.42 732.147   3
   4 -10  -1 3218.23 435.609   4
   6   4  -1 3240.32 610.879   3
  -6  10  -1 3346.97 793.737   2
   4 -10  -1 2656.43 608.936   1
  10  -4  -1 2951.60 491.133   4
  -6  10  -1 2970.19 568.612   4
  10  -4  -1 2920.58 598.609   2
  -6  10   2 12946.6 1264.39   1
 -10   6   2 11625.1 747.583   4
  10  -4   2 9712.88 1078.65   3
  -4  -6   2 10145.0 1232.74   2
   6   4   2 12297.1 1248.30   2
   6   4   2 10906.6 810.792   1
   4 -10   2 9247.89 1029.51   4
  -4  -6   2 10318.1 1162.83   1
  -4  -6   2 12358.3 912.238   3
  10  -4   2 9872.04 718.128   1
  -4  -6   2 10678.5 1134.99   4
   4 -10   2 9448.46 616.533   3
  -6  10   2 10705.2 641.900   4
   4 -10   2 11540.1 1417.31   2
   6   4   2 11088.2 1383.64   3
   6   4   2 11594.5 1134.83   4
 -10   6   2 11277.9 1094.45   1
   4 -10   5 10056.1 1660.56   4
 -10   6   5 9582.97 1265.40   4
  10  -4   5 9076.49 1269.48   1
  -4  -6   5 8512.25 1367.43   2
   6   4   5 10281.4 1691.12   3
   6   4   5 7450.07 1144.95   1
  10  -4   5 6550.78 1277.22   3
  -4  -6   5 6472.87 1207.98   4
  -6  10   5 10417.1 1442.72   4
   4 -10   5 7369.37 1502.79   2
 -10   6   5 8234.17 956.471   2
  10  -4   8 5183.92 1690.94   4
 -10   6   8 4212.96 1287.74   4
 -10   6   8 4675.54 985.246   2
  -4  -6   8 6214.40 1497.54   4
   6   4   8 6903.50 1718.52   3
  10  -4   8 5884.79 1436.13   3
  -6  10   8 5647.75 1514.29   4
   4 -10   8 5075.64 1501.13   4
  -6  10   8 3724.65 745.373   2
  -4  -6   8 5023.10 1435.94   2
   4 -10   8 3645.42 1363.25   2
  10  -4   8 2585.13 1146.11   2
   6   4   8 2381.89 1182.09   2
   6   4  11 51.2071 1195.19   4
   6   4  11 2359.02 1405.57   3
   4 -10  11-441.008 1074.00   2
  10  -4  11-26.1541 1224.37   2
 -10   6  11 310.966 1094.19   4
  -4  -6  11 138.028 1121.28   2
  -4  -6  11-579.401 920.972   4
   6   4  11 277.583 927.133   2
  10  -4  11 2066.28 1378.43   3
  10  -4  11 885.188 1392.97   4
  -6  10  11 1317.71 1461.83   4
   4 -10  11 142.139 997.628   4
 -10   6  11 1182.74 867.730   2
  -3  -7 -11 1754.58 1437.96   1
  10  -3 -11-219.590 1076.72   1
   3 -10 -11-225.098 967.443   1
 -10   7 -11 1185.70 1151.91   1
   7   3 -11 606.778 1157.57   1
   7   3  -8 14470.5 2296.42   1
  -3  -7  -8 9141.44 1882.97   1
 -10   7  -8 12382.7 1878.34   1
  10  -3  -8 15931.5 2401.99   1
   3 -10  -8 13573.9 2297.27   1
  10  -3  -5 1173.30 678.128   2
  -7  10  -5 1180.14 267.245   3
   7   3  -5 1561.35 548.304   3
   7   3  -5 933.901 540.226   1
  10  -3  -5 1266.58 759.971   4
  -3  -7  -5 1994.52 793.943   1
   3 -10  -5 83.5180 502.426   1
 -10   7  -5 996.553 490.905   3
  10  -3  -5 770.663 531.906   1
   7   3  -2 12053.4 1114.75   3
 -10   7  -2 11915.5 1049.47   3
  -3  -7  -2 13678.7 1486.20   3
   7   3  -2 13667.4 1426.23   2
  10  -3  -2 12501.8 1142.47   1
  -3  -7  -2 12177.4 1105.19   2
  -3  -7  -2 11559.5 1086.86   1
   3 -10  -2 11304.2 717.843   2
   3 -10  -2 12273.2 1268.67   1
  10  -3  -2 12286.5 1158.63   2
  -7  10  -2 12841.1 1562.75   2
  -7  10  -2 13446.7 1379.22   4
  10  -3  -2 11270.1 1036.84   4
   7   3  -2 12530.8 1277.77   4
   3 -10  -2 10574.4 1373.35   3
  10  -3  -2 13302.0 1310.71   3
   3 -10   1 2780.16 576.883   4
   3 -10   1 2241.32 645.146   2
  -3  -7   1 1978.48 407.343   3
  -3  -7   1 2014.99 526.341   2
   7   3   1 2498.32 646.721   2
   3 -10   1 2041.12 400.813   3
  -7  10   1 2519.92 293.166   4
  10  -3   1 1887.27 450.610   4
 -10   7   1 2421.25 465.196   1
   7   3   1 1587.58 450.545   4
  10  -3   1 2497.80 583.971   3
   7   3   1 2504.97 680.541   3
  -3  -7   1 1760.70 452.249   4
  10  -3   4 29682.1 2340.30   3
   7   3   4 32078.2 2716.95   3
  10  -3   4 31146.9 1902.13   1
   3 -10   4 34500.3 2756.47   2
  -7  10   4 31285.5 2036.52   4
  -3  -7   4 27709.0 2193.46   4
  -3  -7   4 32692.4 2574.17   2
 -10   7   4 30003.2 1765.87   4
 -10   7   4 34366.2 2558.64   1
   3 -10   4 35496.4 2569.72   4
 -10   7   4 30482.7 1515.77   2
   7   3   4 34746.7 1973.32   1
   3 -10   7 443.482 717.132   2
 -10   7   7 678.335 662.968   4
  10  -3   7-159.185 725.332   4
   3 -10   7 277.260 793.702   4
  -7  10   7-203.854 216.089   2
 -10   7   7 625.583 621.900   2
  -3  -7   7 1303.66 854.142   2
   7   3   7 142.540 624.503   3
  10  -3   7 131.799 597.371   3
  -7  10   7-192.815 627.740   4
  -3  -7   7-621.876 786.672   4
  10  -3   7 43.4319 710.440   2
   3 -10  10 7056.65 1977.58   4
   7   3  10 3162.71 1743.82   4
 -10   7  10 5391.19 1271.21   2
  10  -3  10 6828.41 1930.35   3
 -10   7  10 5905.38 1610.45   4
   7   3  10 7338.04 2081.54   3
  -3  -7  10 7593.82 1963.56   4
  10  -3  10 8000.68 2213.76   2
  -7  10  10 4263.09 1582.01   4
  -3  -7  10 6762.83 1821.71   2
  -7  10  10 3671.46 872.670   2
   3 -10  10 4644.13 1817.12   2
  10  -3  10 1824.14 1490.32   4
   7   3  10 6136.44 1891.28   2
   8   2  -9 5564.80 1869.86   1
   2 -10  -9 3133.32 1445.71   1
  10  -2  -9 4083.31 1633.34   1
 -10   8  -9 4548.60 1335.40   1
  -2  -8  -9 3646.10 1505.51   1
   2 -10  -6 180.356 663.751   1
  -2  -8  -6 868.723 757.125   1
   8   2  -6 1575.22 656.647   1
  -8  10  -6 806.509 316.613   3
 -10   8  -6 908.136 491.733   3
   8   2  -6 241.762 329.510   3
  10  -2  -6 704.407 723.529   1
  10  -2  -3 9118.54 1108.47   4
  10  -2  -3 10713.3 1185.36   3
   8   2  -3 9382.54 995.564   3
   8   2  -3 7539.19 1139.10   2
   8   2  -3 11706.6 1327.57   1
  -2  -8  -3 7030.37 1058.26   1
   8   2  -3 7210.54 1100.19   4
   2 -10  -3 10546.7 1523.07   3
 -10   8  -3 9734.93 975.488   3
  10  -2  -3 8637.02 1162.44   1
  -2  -8  -3 7100.74 1258.73   3
   2 -10  -3 8567.72 1192.86   1
  10  -2  -3 8838.51 1095.58   2
  -8  10  -3 8884.91 1347.36   4
   8   2   0 3524.66 705.868   3
  -2  -8   0 3524.20 680.907   3
  10  -2   0 4701.99 774.438   3
   8   2   0 4036.34 761.360   2
   2 -10   0 4223.08 727.297   3
  10  -2   0 4589.23 614.078   4
   2 -10   0 4786.31 632.319   4
  -2  -8   0 4514.37 657.393   4
  -2  -8   0 4268.43 732.314   2
  10  -2   0 2973.98 655.082   2
   8   2   0 3835.96 632.636   4
   2 -10   0 2747.21 619.401   2
  -8  10   0 4165.04 472.582   4
   2 -10   3 6985.10 995.181   4
  -8  10   3 6117.95 1005.79   1
  10  -2   3 5026.91 993.358   3
  -2  -8   3 4343.46 905.582   1
   2 -10   3 5504.60 1066.84   1
  -2  -8   3 6314.10 989.782   4
  10  -2   3 6308.55 683.622   1
   8   2   3 5758.57 677.584   1
  -8  10   3 7310.89 743.775   4
 -10   8   3 6407.42 626.984   4
 -10   8   3 5916.08 1016.46   1
   2 -10   3 4432.96 1036.85   2
  -2  -8   3 6807.66 1198.25   2
   8   2   3 6059.30 1113.38   3
   2 -10   6 4141.06 1245.76   2
  10  -2   6 3157.02 1046.00   3
  10  -2   6 4595.74 1045.00   1
  -8  10   6 1887.66 732.757   4
   8   2   6 4738.94 1037.88   1
   8   2   6 2662.69 1106.02   3
 -10   8   6 4175.95 902.126   4
  -2  -8   6 5549.14 1386.69   4
 -10   8   6 4547.60 699.862   2
  -2  -8   6 3247.59 1110.22   2
   2 -10   6 4945.11 1141.64   4
 -10   8   9 2076.88 1013.38   4
  10  -2   9 733.388 899.980   4
  -2  -8   9 2220.58 1171.05   2
  -2  -8   9 2675.50 1281.70   4
  -8  10   9 2741.68 1201.02   4
   8   2   9 1446.39 1261.71   4
  -8  10   9 1190.67 552.372   2
 -10   8   9 2763.64 747.724   2
  10  -2   9 1090.73 1182.61   2
   8   2   9 2353.13 1157.90   2
   2 -10   9 149.303 916.276   4
   2 -10   9 4550.79 1534.63   2
  10  -2   9 1954.93 1140.40   3
   8   2   9 2919.51 1449.13   3
   9   1 -10 2010.42 1379.92   1
   1 -10 -10-347.955 998.028   1
  -1  -9 -10 1407.56 1305.10   1
  10  -1 -10 2131.31 1466.83   1
   1 -10  -7 3792.50 1174.44   1
 -10   9  -7 3121.54 714.187   3
  10  -1  -7 5241.96 1320.16   1
  -1  -9  -7 5283.10 1421.08   1
  -9  10  -7 2930.86 593.969   3
   9   1  -7 5430.95 1411.78   1
  10  -1  -4 5597.61 959.581   3
 -10   9  -4 4400.78 669.253   3
  10  -1  -4 3979.29 898.726   2
  10  -1  -4 4850.71 966.331   4
   1 -10  -4 3855.50 978.978   1
   9   1  -4 5171.84 884.281   3
   9   1  -4 5855.78 1074.47   1
  10  -1  -4 4252.69 943.603   1
  -1  -9  -4 4478.90 966.602   1
   9   1  -4 5005.25 1063.81   2
   9   1  -4 3648.30 887.483   4
  -9  10  -4 4370.76 566.043   3
  -1  -9  -1 3226.46 638.173   2
  -1  -9  -1 1995.16 480.356   1
   9   1  -1 2913.58 644.657   3
   1 -10  -1 2152.59 438.998   2
  -1  -9  -1 2650.22 579.658   4
  -1  -9  -1 3472.31 755.138   3
   1 -10  -1 1829.84 616.894   3
   9   1  -1 2622.58 618.494   4
  10  -1  -1 3232.92 678.911   2
  10  -1  -1 2395.61 545.612   3
   1 -10  -1 2284.96 438.367   4
   9   1  -1 3444.41 768.517   2
   1 -10  -1 2733.65 560.439   1
  10  -1  -1 2719.54 540.984   4
  10  -1  -1 2208.40 408.564   1
  10  -1   2 2904.87 261.261   1
 -10   9   2 2463.91 654.757   1
  -1  -9   2 3584.26 456.352   3
   1 -10   2 3191.89 384.802   3
  -1  -9   2 2845.35 770.543   2
  10  -1   2 4693.80 852.542   3
   1 -10   2 1962.80 522.586   4
   9   1   2 3241.09 841.134   3
   1 -10   2 3782.24 836.776   2
  -1  -9   2 3404.73 669.046   4
   9   1   2 3262.71 701.222   2
   9   1   2 3316.26 344.817   1
  -9  10   2 3302.75 681.551   1
   9   1   2 2572.07 597.066   4
 -10   9   5 1845.80 518.464   4
   1 -10   5 1097.87 660.398   2
  10  -1   5 389.027 496.621   3
   9   1   5 1254.45 656.162   3
   9   1   5 3198.68 705.729   1
 -10   9   5 2424.66 384.111   2
  -1  -9   5 3247.30 1044.81   4
  -1  -9   5 1534.92 815.333   2
   1 -10   5 3008.46 969.706   4
  10  -1   5 1898.48 605.051   1
  -9  10   5 2657.87 697.951   4
   1 -10   8 492.049 795.040   2
  -9  10   8 506.316 370.848   2
   9   1   8 286.522 734.953   2
 -10   9   8 539.271 386.880   2
  10  -1   8 1346.65 995.880   2
  -1  -9   8 1530.72 1058.30   2
  10  -1   8 2279.04 1386.84   4
  10  -1   8 510.143 633.101   3
   9   1   8 1178.05 1212.89   3
   9   1   8-145.461 867.929   4
  -1  -9   8-444.609 617.990   4
  -9  10   8 692.485 775.031   4
 -10   9   8 1220.34 728.117   4
   1 -10   8-1444.46 638.495   4
  -1  -9  11 2640.58 1657.93   4
   1 -10  11 3791.58 1632.82   2
  -9  10  11 1386.49 1154.85   4
  -1  -9  11 2878.97 1535.63   2
  10  -1  11 2504.26 1699.12   4
  10  -1  11 3927.93 1627.53   2
   9   1  11 1643.69 1793.01   4
 -10   9  11 4588.89 1568.59   4
  10  -1  11 2361.26 1441.86   3
   9   1  11 3857.13 1682.28   3
   1 -10  11 1489.30 1152.40   4
   9   1  11 2155.95 1480.92   2
   0 -10 -11-378.456 1130.45   1
  10   0 -11-590.633 939.893   1
 -10  10  -8 4240.70 872.350   3
  10   0  -8 7903.88 1912.96   1
   0 -10  -8 6548.95 1779.56   1
  10   0  -5 948.974 626.419   1
 -10  10  -5 175.937 279.560   3
   0 -10  -5-563.654 603.296   1
  10   0  -5 39.0042 403.337   3
  10   0  -2 38687.7 1988.45   1
   0 -10  -2 39480.9 2649.08   3
   0 -10  -2 37295.8 1720.77   2
  10   0  -2 42152.6 2256.23   3
  10   0  -2 34561.9 2229.25   2
   0 -10  -2 38611.0 2180.63   1
  10   0  -2 38315.9 2165.17   4
  10   0   1-85.6916 294.966   4
   0 -10   1 125.556 422.098   2
 -10  10   1 693.822 366.784   1
  10   0   1 11.2083 434.433   3
  10   0   1 316.651 366.300   2
   0 -10   1-466.990 304.298   3
   0 -10   1 159.207 295.968   4
   0 -10   4 46449.0 2949.95   4
 -10  10   4 44438.2 2021.93   4
   0 -10   4 46314.3 3158.33   2
  10   0   4 45564.6 2122.01   1
  10   0   4 47433.0 3132.82   3
 -10  10   7 499.061 696.241   4
   0 -10   7 600.047 824.480   2
   0 -10   7 1231.63 743.277   4
 -10  10   7 453.484 242.297   2
  10   0   7 1381.60 988.530   3
 -10  10  10 9818.00 1968.31   4
   0 -10  10 9292.16 2116.57   2
  10   0  10 7465.75 1935.57   2
  10   0  10 6478.50 1788.35   3
  10   0  10 9778.49 2725.59   4
   0 -10  10 8426.95 2192.89   4
 -11   0 -11 1101.18 1313.38   1
  11 -11 -11 835.276 1041.27   1
 -11   0  -8 3664.87 1176.39   1
  11 -11  -8 3536.24 1343.48   1
  11 -11  -5-114.703 108.795   2
  11 -11  -5-10.4661 460.591   1
 -11   0  -5-480.018 422.242   1
 -11   0  -2 3718.06 946.961   3
  11 -11  -2 5192.81 606.683   2
  11 -11  -2 5369.12 936.621   1
   0  11  -2 6589.72 1103.74   4
   0  11  -2 3787.58 583.081   3
   0  11  -2 3951.02 995.407   2
   0  11   1-204.737 353.074   2
  11 -11   1-182.960 305.779   3
 -11   0   1-121.931 287.803   1
   0  11   1-209.584 494.036   3
 -11   0   1-746.091 551.305   2
  11 -11   1 660.352 505.155   2
  11 -11   1-4.36962 266.418   4
 -11   0   1 416.535 410.151   3
   0  11   1 150.554 355.151   4
 -11   0   1 649.703 367.781   4
  11 -11   4 7073.25 876.197   3
  11 -11   4 6440.72 1121.41   1
   0  11   4 7588.95 890.542   2
   0  11   4 7582.62 1529.23   3
  11 -11   4 10652.3 1595.81   4
   0  11   4 5270.34 847.096   4
 -11   0   4 6806.38 1273.65   1
  11 -11   4 7029.63 1434.41   2
 -11   0   4 6485.31 984.829   4
 -11   0   4 5800.00 1020.01   2
 -11   0   7-298.079 628.668   2
   0  11   7-112.365 441.438   2
  11 -11   7-892.989 1057.76   2
 -11   0   7-647.835 662.621   4
  11 -11   7 612.257 569.503   3
  11 -11   7-905.584 819.857   4
   0  11   7-967.414 583.421   2
   0  11   7-322.989 835.168   3
   0  11  10 2031.43 1488.38   4
  11 -11  10 3514.86 1571.60   4
   0  11  10 4332.48 1230.15   2
 -11   0  10 1422.59 812.896   2
  11 -11  10 5102.57 1944.07   2
 -11   0  10 4788.81 1308.32   4
   1  10  -9 1898.45 401.306   3
 -10  -1  -9 4354.68 1360.78   1
  10 -11  -9 2103.68 1341.65   1
  11 -10  -9 3172.58 1386.84   1
 -11   1  -9 3250.70 1125.61   1
   1  10  -6 812.209 226.196   3
  10 -11  -6 610.232 854.160   1
 -10  -1  -6 41.6750 421.054   1
 -11   1  -6 2699.68 859.022   1
   1  10  -6 822.786 284.699   3
  11 -10  -6 2494.20 1068.81   1
  11 -10  -6 550.415 268.626   2
  10 -11  -3 1297.36 254.574   2
 -10  -1  -3 2015.52 470.874   1
  11 -10  -3 2552.96 400.405   2
 -11   1  -3 3496.61 497.847   1
   1  10  -3 2002.17 387.353   3
  10 -11  -3 2824.14 792.974   1
  11 -10  -3 1761.80 667.786   1
  -1  11  -3 3322.47 923.715   4
  10 -11  -3 1486.09 237.813   2
 -11   1   0 1174.81 434.110   4
 -10  -1   0 932.172 404.557   4
 -11   1   0 1431.90 479.447   3
   1  10   0-215.551 458.804   2
 -10  -1   0 1240.06 290.750   1
  11 -10   0 1027.28 275.275   1
  10 -11   0 683.507 196.574   4
   1  10   0 1034.67 477.149   3
 -10  -1   0 666.649 334.198   3
  -1  11   0 930.171 418.105   3
 -10  -1   0 731.400 471.884   2
  10 -11   0 1376.45 480.038   1
  11 -10   0 648.900 217.455   4
  -1  11   0 1268.43 571.230   2
  10 -11   0 1490.00 534.432   2
  -1  11   0 1314.51 485.270   4
   1  10   0 1290.46 480.392   4
  11 -10   0 1024.41 425.787   3
  -1  11   3 1712.23 495.034   4
  -1  11   3 2849.18 572.836   2
  11 -10   3 2447.13 524.662   3
   1  10   3 2007.81 519.501   2
 -11   1   3 1883.89 570.848   2
   1  10   3 2958.57 665.440   4
   1  10   3 1686.22 835.769   3
  -1  11   3 2419.40 944.175   3
   1  10   3 2651.39 640.307   1
  10 -11   3 2197.93 481.251   3
 -10  -1   3 2443.48 681.581   1
  10 -11   3 2514.56 726.392   4
 -11   1   3 2738.03 649.286   4
  11 -10   3 2182.55 735.798   4
 -11   1   3 2007.16 692.447   1
  11 -10   3 2251.59 851.657   2
  -1  11   3 1882.22 637.608   1
  10 -11   3 1960.32 895.235   2
  11 -10   3 2072.10 543.885   1
 -10  -1   3 1793.34 573.316   2
 -10  -1   3 2428.48 688.772   4
 -10  -1   6 312.659 557.148   2
 -11   1   6 1000.08 583.862   2
  11 -10   6 1491.08 571.074   3
   1  10   6 1177.55 526.816   2
  -1  11   6 1018.28 410.244   2
 -11   1   6 1143.26 604.072   4
  10 -11   6 843.751 456.610   3
   1  10   6 1797.18 841.016   3
  -1  11   6 574.868 915.190   3
  11 -10   6 2248.26 1112.13   2
  11 -10   6 1249.10 951.347   4
  10 -11   6 2036.58 1163.97   2
  10 -11   6 1656.96 936.351   4
 -10  -1   6 896.240 510.820   4
   1  10   9 3008.32 1664.43   3
   1  10   9 2060.92 1015.22   2
  10 -11   9 3819.31 1686.48   2
 -10  -1   9 744.993 842.692   2
 -11   1   9 2729.15 1179.31   2
 -10  -1   9 3042.90 1114.49   4
  10 -11   9 2582.44 1318.76   4
  11 -10   9 1617.30 753.748   3
  11 -10   9 1487.88 1313.77   2
  -1  11   9 1440.45 780.546   2
   1  10   9-503.905 851.767   4
  -1  11   9 1430.69 1237.19   4
  11 -10   9 551.357 1145.09   4
 -11   1   9 1513.62 959.350   4
  -9  -2 -10 1871.42 1166.52   1
 -11   2 -10 2400.43 1134.27   1
   9 -11 -10 159.872 901.983   1
  11  -9 -10 278.807 1052.84   1
   2   9  -7 7678.37 734.280   3
  11  -9  -7 6184.84 921.012   2
   2   9  -7 6356.42 887.935   3
  -9  -2  -7 9107.14 1481.88   1
 -11   2  -7 8034.06 1337.84   1
  11  -9  -7 9872.75 1957.36   1
   9 -11  -7 8069.96 1833.28   1
   2   9  -4 6546.58 637.871   3
   9 -11  -4 8365.67 1363.03   1
  -9  -2  -4 8285.40 1065.99   1
  11  -9  -4 6223.53 660.143   2
 -11   2  -4 6465.65 794.194   1
  11  -9  -4 8253.17 1291.34   1
   9 -11  -1 16690.2 1385.66   1
  -9  -2  -1 19651.6 1663.16   3
   2   9  -1 16623.4 1485.06   4
  -2  11  -1 19386.7 1845.42   2
  -2  11  -1 21424.1 1467.61   3
 -11   2  -1 20180.7 1589.41   3
  -2  11  -1 20813.0 1660.97   4
   2   9  -1 18971.5 1781.40   2
   9 -11  -1 17530.4 1259.78   2
  11  -9  -1 18405.9 1382.54   1
   2   9  -1 19030.1 1451.63   3
  -9  -2  -1 17216.2 782.419   1
 -11   2   2 6933.48 955.521   2
   2   9   2 7383.93 926.108   4
  -9  -2   2 6924.59 941.508   4
   2   9   2 6773.26 863.486   2
  11  -9   2 5806.95 759.862   3
   2   9   2 8129.87 1297.65   3
  -9  -2   2 7897.44 963.701   3
  -2  11   2 8040.84 1389.94   3
   9 -11   2 6903.12 1219.18   2
  -9  -2   2 6844.43 1025.80   2
 -11   2   2 7526.90 970.797   1
  -2  11   2 6011.69 785.674   2
  -9  -2   2 6515.66 968.469   1
 -11   2   2 7231.54 840.014   4
   9 -11   2 6937.03 691.857   3
  -2  11   2 7582.61 852.501   4
  11  -9   2 6248.56 1007.20   4
   9 -11   2 7142.17 990.653   4
  -2  11   2 5697.05 864.492   1
 -11   2   5 6314.51 1078.70   4
   2   9   5 4142.93 719.330   2
   9 -11   5 5766.02 740.743   3
  -9  -2   5 5526.57 1081.97   4
  11  -9   5 5273.60 1133.70   1
  11  -9   5 5187.66 881.520   3
  -2  11   5 6769.92 1650.38   3
  11  -9   5 5737.82 1375.59   4
  -2  11   5 5172.85 607.361   2
 -11   2   5 6516.50 1160.46   2
   2   9   5 5920.12 1337.05   3
  11  -9   5 7345.31 1626.47   2
  -9  -2   5 6144.62 1206.99   2
   9 -11   5 5997.09 1389.89   2
   9 -11   5 6739.80 1384.34   4
  -2  11   8 6584.95 1835.39   4
  -2  11   8 6515.61 1046.63   2
  -9  -2   8 7709.50 1507.09   2
  11  -9   8 5937.83 1699.84   2
 -11   2   8 4939.87 1257.16   4
  11  -9   8 5994.17 1682.30   4
  -9  -2   8 7069.26 1682.92   4
   9 -11   8 11126.2 2296.00   2
   9 -11   8 5661.17 1574.12   4
  11  -9   8 5071.95 1162.34   3
  -2  11   8 3637.21 758.226   2
   2   9   8 7497.45 2125.94   3
   2   9   8 4797.01 1208.83   2
 -11   2   8 7614.50 1440.81   2
 -11   2  11 6963.10 1811.56   4
  -9  -2  11 5299.45 1657.14   4
  -9  -2  11 8110.25 1863.16   2
   9 -11  11 7145.93 1949.52   2
   2   9  11 2136.08 1138.66   2
  -2  11  11 3680.41 1700.44   4
   9 -11  11 5176.10 1975.84   4
   2   9  11 2528.09 1640.87   4
  11  -9  11 3808.66 1812.25   4
 -11   2  11 6021.92 1673.45   2
  11  -9  11 6328.85 2059.56   2
   3   8 -11 1343.49 1580.96   1
  11  -8 -11 3351.58 1589.77   1
  -8  -3 -11 1200.97 1221.63   1
 -11   3 -11 2338.91 1391.93   1
   8 -11 -11 1185.67 1047.47   1
   3   8  -8 1965.31 514.866   3
  -3  11  -8 869.462 218.914   3
   8 -11  -8 1909.45 1099.68   1
  11  -8  -8 3211.91 1248.18   1
  -8  -3  -8 344.997 593.387   1
   3   8  -8 991.925 602.757   3
  11  -8  -8 1801.65 700.873   2
 -11   3  -8 1707.44 859.479   1
   3   8  -8 445.428 997.807   1
  11  -8  -5 6241.05 1025.17   4
  11  -8  -5 7663.12 1388.82   1
   3   8  -5 8198.86 748.171   3
   8 -11  -5 7075.58 1465.09   1
  11  -8  -5 6792.05 875.878   2
  -8  -3  -5 7337.68 1235.75   1
 -11   3  -5 7856.09 1072.77   1
  -8  -3  -2 15645.5 1620.38   3
  11  -8  -2 14495.3 1021.89   2
   3   8  -2 15876.3 1191.32   3
   8 -11  -2 13811.0 1426.34   1
 -11   3  -2 13225.9 1325.04   3
   3   8  -2 13585.4 1591.04   2
  -3  11  -2 13203.5 1424.16   4
   3   8  -2 12843.7 1423.95   4
  -3  11  -2 13072.5 1567.06   2
  -8  -3  -2 14190.4 983.259   1
  11  -8  -2 11045.3 767.357   4
   8 -11  -2 12753.1 766.945   2
  11  -8  -2 12561.1 1259.93   1
 -11   3   1 3890.73 551.432   4
  -8  -3   1 3681.50 650.651   4
 -11   3   1 4393.90 761.806   3
  -8  -3   1 4615.67 848.316   2
  -8  -3   1 2888.06 532.789   1
   3   8   1 3800.35 650.696   4
  -3  11   1 5351.17 1079.22   3
  -3  11   1 3748.01 686.609   2
   3   8   1 3768.04 810.808   3
   8 -11   1 3243.98 569.146   4
  11  -8   1 3957.21 676.034   3
   8 -11   1 4563.15 899.961   2
 -11   3   1 2766.48 462.300   1
  -3  11   1 3966.36 626.704   4
  -8  -3   1 4458.54 691.802   3
   3   8   1 3063.66 740.729   2
  -3  11   4 4969.44 535.439   2
  -8  -3   4 6997.74 1214.92   2
   3   8   4 5014.31 801.124   2
   8 -11   4 6117.07 585.837   3
 -11   3   4 6534.63 1151.71   1
  11  -8   4 4724.78 847.461   3
 -11   3   4 6749.33 1022.75   2
   3   8   4 5917.83 1000.94   1
  -8  -3   4 6962.89 1279.98   1
 -11   3   4 7168.12 1019.46   4
   8 -11   4 6800.97 1400.24   2
   8 -11   4 6251.15 1220.66   4
  11  -8   4 6639.50 1021.26   1
   3   8   4 5768.10 1313.83   3
  -3  11   4 7017.41 1403.88   3
  11  -8   4 6296.07 1315.99   2
  11  -8   4 5675.20 1194.48   4
  -8  -3   4 5880.97 1019.99   4
  -8  -3   7 348.442 526.311   2
 -11   3   7 2994.94 956.990   2
 -11   3   7 1023.16 855.595   4
  -3  11   7 1954.72 1043.76   4
   8 -11   7 3155.38 1131.05   2
  11  -8   7 2590.08 764.245   3
  -3  11   7 2328.39 511.023   2
   3   8   7 246.891 680.067   3
   8 -11   7 3054.57 1182.82   4
  11  -8   7 2802.78 1102.89   4
  -3  11   7 1142.72 451.747   2
  -8  -3   7 2405.53 997.304   4
  11  -8   7 3054.07 1362.50   2
  11  -8  10 3926.64 1830.29   2
  -8  -3  10 2401.52 1141.19   2
 -11   3  10 2125.60 972.650   2
  -8  -3  10 3278.72 1389.21   4
   3   8  10 3315.86 1236.64   2
   3   8  10 1237.03 1294.13   4
  11  -8  10 2693.28 1292.22   3
   3   8  10 4809.71 1823.80   3
  -3  11  10 2200.72 1516.86   4
  11  -8  10 1021.87 951.430   4
   8 -11  10 2149.49 1291.37   4
   8 -11  10 2827.69 1280.99   2
 -11   3  10 2673.45 1307.63   4
 -11   4  -9 842.959 648.175   1
   7 -11  -9 467.072 1252.18   1
  -7  -4  -9 1061.77 937.501   1
   4   7  -9 1659.08 623.728   3
   4   7  -9 3623.97 1275.95   1
  11  -7  -9 558.590 749.156   1
  11  -7  -6-291.051 587.279   4
   4   7  -6 360.018 288.998   3
   4   7  -6 947.594 745.787   1
   7 -11  -6 1012.28 865.664   1
  -7  -4  -6 453.534 432.617   1
  11  -7  -6 1202.91 916.868   1
 -11   4  -6 602.459 496.478   1
  11  -7  -6 577.844 561.701   2
  -4  11  -3 7289.46 1362.36   2
  -4  11  -3 7278.53 1231.18   4
 -11   4  -3 6274.39 1018.79   3
   4   7  -3 7278.19 773.738   3
   7 -11  -3 8273.53 1233.26   1
  11  -7  -3 7149.16 808.748   2
  -7  -4  -3 8177.00 969.406   1
   4   7  -3 5397.00 1107.45   2
  11  -7  -3 6405.62 771.286   4
  -7  -4  -3 6145.99 1097.55   3
   4   7  -3 7826.41 1225.02   4
  11  -7  -3 7210.10 1139.00   1
   7 -11  -3 7299.46 1306.85   3
 -11   4   0 2327.30 260.523   1
  11  -7   0 2025.80 540.437   3
   4   7   0 2193.76 581.917   2
   7 -11   0 1506.39 520.661   2
  -7  -4   0 2515.63 554.901   4
   4   7   0 1424.99 519.786   3
  11  -7   0 2869.10 453.516   1
   7 -11   0 1926.62 507.381   1
  -4  11   0 2377.87 495.778   4
  -7  -4   0 1851.43 573.165   2
   7 -11   0 2179.33 339.211   4
 -11   4   0 2189.39 546.875   3
  -4  11   0 2853.44 687.294   2
  11  -7   0 2859.03 383.876   4
   4   7   0 2117.32 508.228   4
  -7  -4   0 2471.81 634.712   3
   7 -11   3 3792.53 393.501   3
  11  -7   3 4676.47 826.495   3
   4   7   3 2837.05 671.544   4
  -7  -4   3 4003.75 890.450   1
  -4  11   3 3182.45 382.735   2
   7 -11   3 4950.59 977.452   4
   4   7   3 2931.04 657.925   2
  -4  11   3 4201.35 848.139   1
 -11   4   3 5211.81 890.234   1
   7 -11   3 4229.43 971.116   2
  -7  -4   3 6262.89 961.633   4
   4   7   3 4720.25 737.139   1
 -11   4   3 5043.11 752.106   2
 -11   4   3 3915.69 657.908   4
  11  -7   3 4622.02 737.755   1
   4   7   3 4218.68 1130.99   3
  -7  -4   3 5451.14 1039.56   2
  -4  11   3 4718.58 645.550   4
  -7  -4   6 162.600 458.157   2
  11  -7   6 1251.51 704.855   3
 -11   4   6 1723.90 732.705   2
  11  -7   6 292.423 782.552   2
  -4  11   6 948.828 266.918   2
   4   7   6 609.864 795.937   3
  -4  11   6 884.126 310.249   2
  11  -7   6 970.466 983.794   4
 -11   4   6 2072.14 832.482   4
  -7  -4   6 769.496 684.315   4
   7 -11   6 408.677 586.500   2
   7 -11   6 1099.65 726.512   4
   4   7   9 3523.81 1280.07   2
  -7  -4   9 4901.36 1483.23   4
   4   7   9 3112.98 1359.76   3
 -11   4   9 6268.21 1418.79   2
  11  -7   9 5232.99 1763.65   4
  -7  -4   9 4987.63 1500.55   2
   7 -11   9 4169.11 1554.05   4
  11  -7   9 4820.21 1291.68   3
  -4  11   9 3363.45 735.954   2
  -4  11   9 3489.35 1525.45   4
   4   7   9 4433.69 1598.78   4
   7 -11   9 2455.75 1337.47   2
 -11   4   9 4830.34 1344.76   4
  11  -7   9 5314.52 1640.12   2
  11  -6 -10 1221.13 1078.89   1
  -6  -5 -10 1908.14 1416.63   1
 -11   5 -10 698.055 833.198   1
   5   6 -10 2337.36 1357.15   1
   6 -11 -10 1358.13 1275.87   1
   5   6 -10 1640.78 642.587   3
   5   6  -7 8155.52 1648.06   1
 -11   5  -7 6383.90 1235.61   1
   6 -11  -7 5772.80 1666.57   1
  -6  -5  -7 8193.37 1570.52   1
  -5  11  -7 4522.13 389.213   3
  11  -6  -7 6588.31 1556.80   1
   5   6  -7 6576.00 891.897   3
  11  -6  -7 6820.41 1193.36   2
  11  -6  -4 1808.74 671.719   1
  11  -6  -4 2834.87 748.793   4
   6 -11  -4 3093.17 983.706   1
  -6  -5  -4 1721.16 555.065   1
  11  -6  -4 2996.24 609.961   2
  -5  11  -4 3180.64 908.646   4
 -11   5  -4 1896.12 683.282   3
   5   6  -4 2543.73 532.810   3
 -11   5  -1 24764.1 1657.83   3
   5   6  -1 26859.1 1995.00   2
   6 -11  -1 24744.2 1719.92   1
  11  -6  -1 25073.4 1690.61   3
   5   6  -1 24448.9 1639.15   3
   5   6  -1 24696.7 1718.96   4
  11  -6  -1 26058.8 1196.77   4
   6 -11  -1 26928.1 1946.22   3
  -5  11  -1 27100.4 1713.37   4
  -6  -5  -1 25904.0 1662.99   4
  -6  -5  -1 24640.0 1726.25   2
  -6  -5  -1 24134.8 1236.95   1
   6 -11  -1 24748.8 1332.83   2
  -5  11  -1 26781.3 2037.85   2
  11  -6  -1 23668.1 1407.26   1
   6 -11  -1 24473.7 1029.03   4
  11  -6  -1 25473.1 1584.33   2
  -6  -5  -1 26460.0 1899.64   3
   6 -11   2 6035.69 1016.69   2
  -6  -5   2 6559.50 938.628   1
  -6  -5   2 8384.35 861.323   3
  11  -6   2 6556.27 666.685   1
  -5  11   2 7076.61 633.874   4
   5   6   2 6188.35 1130.28   3
 -11   5   2 8085.63 950.514   2
   5   6   2 7491.04 925.173   4
  -6  -5   2 7474.11 1068.39   2
  11  -6   2 7125.46 970.661   3
  -6  -5   2 8842.71 1102.77   4
  -5  11   2 6991.93 650.739   2
  -5  11   2 5726.09 848.197   1
   6 -11   2 6107.94 899.764   4
 -11   5   2 6908.24 898.930   1
 -11   5   2 7456.92 688.816   4
   5   6   2 5330.74 792.910   2
  11  -6   5 10357.1 1808.33   4
   6 -11   5 10334.5 1802.43   2
  11  -6   5 7157.68 1178.46   3
   5   6   5 6477.72 1033.89   1
 -11   5   5 9646.12 1232.09   4
  11  -6   5 8811.60 1248.52   1
  11  -6   5 9389.92 1646.11   2
  -6  -5   5 9272.60 1475.87   2
  -6  -5   5 10456.2 1456.03   4
   6 -11   5 10155.5 1608.39   4
 -11   5   5 8322.28 1082.25   2
   5   6   5 11012.6 1822.70   3
  11  -6   8 7423.99 1885.59   4
   5   6   8 5367.26 1439.40   2
  -6  -5   8 6279.57 1525.86   4
   5   6   8 6842.62 1864.05   3
   6 -11   8 6577.57 1674.00   4
  -5  11   8 6836.63 831.673   2
  -6  -5   8 8586.41 1756.38   2
  11  -6   8 5246.23 1400.67   3
  11  -6   8 8463.03 1806.63   2
 -11   5   8 6953.61 1226.88   2
  -5  11   8 6643.23 1719.44   4
 -11   5   8 8096.64 1518.74   4
   6 -11   8 6853.49 1722.88   2
   6 -11  11 5698.77 2112.44   2
   6 -11  11 3700.40 1647.10   4
   5   6  11 3860.27 1437.43   2
  -5  11  11 6034.23 2323.57   4
 -11   5  11 5280.41 1432.15   2
   5   6  11 3242.83 1659.73   4
  11  -6  11 5431.52 2043.28   2
   5   6  11 4913.34 2110.20   3
  -6  -5  11 8039.61 1991.27   2
 -11   5  11 6113.80 1805.10   4
  11  -6  11 7311.49 1872.86   3
  11  -6  11 4150.61 1789.18   4
  -6  -5  11 5571.05 1766.99   4
   6   5 -11 4657.82 1069.64   3
 -11   6 -11 3988.41 1730.92   1
  11  -5 -11 6337.68 2051.88   1
   6   5 -11 6058.10 1863.26   1
   5 -11 -11 3706.81 1726.08   1
  -5  -6 -11 4243.89 1749.37   1
  -6  11  -8 4795.93 596.892   3
  11  -5  -8 7721.04 1798.56   1
   5 -11  -8 2906.81 1385.13   1
   6   5  -8 7701.29 1775.85   1
 -11   6  -8 6040.71 1406.94   1
   6   5  -8 5141.07 917.494   3
   6   5  -8 1899.34 859.909   3
  -5  -6  -8 7211.15 1688.79   1
   6   5  -5 8003.88 886.090   3
 -11   6  -5 5896.51 1092.37   3
   5 -11  -5 7678.26 1451.36   1
  11  -5  -5 10108.3 1711.92   1
  11  -5  -5 9135.61 1182.46   2
  11  -5  -5 8987.81 1347.52   4
  -5  -6  -5 8841.29 1400.49   1
   6   5  -5 9895.79 1464.74   1
  11  -5  -2 6920.48 954.655   1
  11  -5  -2 7314.77 779.940   4
  11  -5  -2 6403.94 814.389   2
   6   5  -2 6943.00 827.896   3
  11  -5  -2 7738.53 1013.17   3
  -5  -6  -2 7086.42 1107.58   3
   5 -11  -2 7177.63 542.241   2
   5 -11  -2 7170.05 1151.28   3
 -11   6  -2 7367.18 903.589   3
   6   5  -2 9115.10 1180.24   4
   5 -11  -2 8115.54 1050.02   1
  -6  11  -2 7341.70 1200.76   2
  -5  -6  -2 6996.25 835.411   1
  -6  11  -2 7932.71 1129.07   4
   6   5  -2 6058.20 1062.40   2
   5 -11   1 26485.1 1484.59   4
 -11   6   1 26251.1 1142.44   4
   6   5   1 27221.2 1836.86   2
  11  -5   1 30000.2 1819.59   3
  -5  -6   1 27407.2 1569.07   3
   5 -11   1 29157.0 2008.67   2
 -11   6   1 29415.7 1419.70   1
   5 -11   1 27761.4 1514.41   3
  -5  -6   1 26687.4 1711.22   4
  -5  -6   1 27477.5 1924.94   2
  -6  11   1 29788.2 1580.18   2
  -6  11   1 27866.2 1176.27   4
  11  -5   1 25939.4 878.090   1
   6   5   1 30375.0 1779.87   4
   6   5   1 28868.7 2106.69   3
   6   5   4 3341.45 686.920   1
  -5  -6   4 4921.37 1002.91   2
  11  -5   4 3710.77 791.719   3
   6   5   4 2575.20 918.056   3
 -11   6   4 2704.97 595.026   2
   5 -11   4 3929.91 1119.94   2
   6   5   4 2911.67 705.859   2
 -11   6   4 3417.22 888.831   1
  -5  -6   4 2803.14 826.324   4
  11  -5   4 3182.31 702.429   1
   5 -11   4 3700.41 899.722   4
 -11   6   4 2659.39 560.737   4
   5 -11   7 4931.06 1395.32   2
 -11   6   7 6624.08 1123.93   2
  11  -5   7 8195.47 1584.76   3
   6   5   7 7615.77 1840.24   3
 -11   6   7 6506.65 1248.50   4
  -6  11   7 4885.35 562.905   2
  11  -5   7 3748.23 1285.88   4
  -6  11   7 4363.84 1235.99   4
  11  -5   7 5822.69 1629.73   2
  -5  -6   7 5827.15 1528.95   2
  -5  -6   7 6398.63 1424.32   4
   5 -11   7 7828.61 1709.27   4
   5 -11  10 1243.01 1159.22   2
 -11   6  10 2810.14 1264.82   4
  11  -5  10 3355.71 1738.19   2
  -6  11  10 2996.82 1358.45   4
   5 -11  10-465.648 1172.36   4
   6   5  10 457.186 1009.01   3
   6   5  10 2637.54 1674.88   4
  -5  -6  10 2690.39 1365.85   4
   6   5  10 2739.96 1470.25   2
  -5  -6  10 4054.38 1555.76   2
  11  -5  10 949.281 1054.96   4
 -11   6  10 2180.19 1034.94   2
  11  -5  10 2122.61 1105.01   3
  -4  -7  -9 2520.37 1255.91   1
   7   4  -9 3559.10 1338.40   1
  11  -4  -9 6734.19 1702.63   1
 -11   7  -9 5139.48 1417.91   1
   4 -11  -9 1191.61 1173.76   1
  11  -4  -6 1562.41 643.787   2
   7   4  -6 1164.08 528.657   3
  11  -4  -6 2027.07 891.868   1
 -11   7  -6 403.236 479.231   3
  -4  -7  -6 1281.93 897.667   1
  -7  11  -6 559.195 206.726   3
   7   4  -6 1603.45 871.827   1
   4 -11  -6-252.677 747.227   1
  -4  -7  -3 4493.92 801.436   1
  11  -4  -3 4856.95 899.615   3
   4 -11  -3 3161.20 967.406   3
   7   4  -3 5722.69 754.600   3
   7   4  -3 4491.76 961.567   2
 -11   7  -3 4352.29 761.146   3
  11  -4  -3 4285.65 899.428   1
   7   4  -3 3246.05 797.546   4
  11  -4  -3 4979.32 808.713   2
  11  -4  -3 5720.10 825.123   4
  -7  11  -3 4561.81 919.729   4
  -4  -7  -3 5836.57 1152.53   3
  -7  11  -3 3462.30 957.421   2
   4 -11  -3 4230.63 892.065   1
  11  -4   0 1107.44 370.336   3
  -4  -7   0 2140.81 547.504   3
   7   4   0 2106.35 582.313   3
   7   4   0 1360.59 504.123   2
  -4  -7   0 2052.91 542.308   2
  -4  -7   0 2041.84 517.958   4
   4 -11   0 2445.87 638.135   3
  11  -4   0 2716.92 473.438   4
  11  -4   0 1983.63 527.479   2
  -7  11   0 2635.56 469.967   4
   4 -11   0 1758.37 494.304   2
   7   4   0 2820.69 647.000   4
  -7  11   0 1428.52 441.642   2
  11  -4   0 1846.65 290.682   1
   4 -11   0 1483.28 341.010   4
  -4  -7   3 6615.90 1115.09   1
   7   4   3 7375.90 1020.70   2
   7   4   3 7626.88 1323.90   3
  -4  -7   3 8236.11 1255.81   2
   7   4   3 8662.13 852.370   1
  -4  -7   3 8040.34 1088.21   4
 -11   7   3 8556.89 759.270   4
  -7  11   3 7504.11 1131.31   1
  11  -4   3 8732.56 821.923   1
 -11   7   3 8263.35 1188.81   1
   4 -11   3 8185.54 1322.25   2
   4 -11   3 9553.50 1235.51   4
  11  -4   3 8845.46 1193.90   3
   7   4   3 7452.37 1051.85   4
  11  -4   6 46.6700 511.222   1
   4 -11   6 749.227 673.708   4
  -4  -7   6 2337.30 907.285   2
  -4  -7   6 54.3212 496.792   4
   4 -11   6 850.130 600.760   2
 -11   7   6-491.648 344.817   2
  11  -4   6-65.1836 586.198   2
  11  -4   6 192.055 682.629   3
   7   4   6 226.588 627.630   3
  -7  11   6 169.363 648.122   4
  11  -4   6 804.939 761.990   4
 -11   7   6 304.943 561.832   4
  -4  -7   9 306.908 853.778   2
  -7  11   9 1694.71 1177.54   4
  -7  11   9 225.528 344.069   2
 -11   7   9 1693.22 775.130   2
   4 -11   9-576.202 887.932   2
  11  -4   9 680.911 877.098   2
  11  -4   9 424.438 831.693   4
  11  -4   9 1477.96 1140.49   3
   7   4   9 2022.50 1155.82   3
 -11   7   9 901.181 747.502   4
   7   4   9-428.896 738.293   2
   7   4   9 434.955 882.100   4
  -4  -7   9 3147.64 1274.27   4
   4 -11   9-756.981 826.515   4
   8   3 -10 2652.77 1376.23   1
 -11   8 -10 489.074 925.713   1
   3 -11 -10 694.877 980.949   1
  11  -3 -10 1371.30 1307.04   1
  -3  -8 -10 3771.96 1673.31   1
  -3  -8  -7 2601.03 1223.46   1
  11  -3  -7 2098.72 1012.48   1
 -11   8  -7 629.499 621.090   3
  -8  11  -7 962.003 341.645   3
   8   3  -7 2269.57 1096.25   1
   8   3  -7 2271.87 675.278   3
   3 -11  -7 1811.83 991.819   1
  11  -3  -4 8138.63 1183.13   4
   8   3  -4 6513.82 1091.35   1
  11  -3  -4 7511.32 1186.33   1
 -11   8  -4 6446.02 892.778   3
   8   3  -4 6487.03 880.016   3
  -8  11  -4 6482.70 1354.41   4
  -3  -8  -4 6213.52 999.724   1
   3 -11  -4 4801.02 1100.18   1
  11  -3  -4 6717.78 1033.07   2
  11  -3  -1 4155.33 787.912   3
  11  -3  -1 4000.73 695.254   2
   8   3  -1 4032.98 755.916   3
   3 -11  -1 2541.55 550.148   2
  11  -3  -1 2889.79 472.789   1
   8   3  -1 3735.05 791.566   2
  -8  11  -1 3665.06 660.671   4
   8   3  -1 4917.42 801.131   4
  -3  -8  -1 2859.33 626.581   2
   3 -11  -1 3293.46 699.362   1
   3 -11  -1 3306.80 819.057   3
  11  -3  -1 3206.66 545.464   4
  -3  -8  -1 4213.30 659.912   1
  -3  -8  -1 2318.06 668.094   3
  -3  -8  -1 3502.08 673.664   4
   3 -11  -1 2935.32 470.479   4
 -11   8   2 12697.7 637.461   4
  11  -3   2 14469.1 1449.04   3
   8   3   2 12245.4 1315.79   2
   3 -11   2 12534.3 750.067   3
   8   3   2 12993.2 1535.80   3
  -3  -8   2 13762.1 964.696   3
  -8  11   2 11942.6 554.117   4
  -3  -8   2 12890.7 1447.37   2
   8   3   2 15005.2 1360.02   4
  -8  11   2 15169.5 1416.69   1
   3 -11   2 13130.4 1234.38   4
 -11   8   2 12681.9 1246.10   1
  -3  -8   2 12879.3 1343.93   4
   3 -11   2 13019.1 1498.93   2
 -11   8   5 8066.53 813.784   2
  11  -3   5 7535.79 1369.54   3
   3 -11   5 9567.31 1534.58   4
   8   3   5 8068.84 1455.37   3
  -3  -8   5 7237.90 1352.35   2
   8   3   5 8024.32 1147.37   1
  11  -3   5 8742.07 1201.65   1
  -8  11   5 7818.83 1194.22   4
 -11   8   5 7363.35 1022.19   4
   3 -11   5 5223.39 1336.53   2
  -3  -8   5 6762.46 1260.94   4
  -3  -8   8 1757.57 1102.93   2
  -8  11   8 2787.95 1186.88   4
  -8  11   8 1115.53 330.673   2
   8   3   8 2156.50 1301.26   3
 -11   8   8 2020.03 739.261   2
  11  -3   8 895.086 948.110   2
   3 -11   8 1735.91 1043.97   4
 -11   8   8 1030.40 735.820   4
  11  -3   8 1702.14 1014.06   3
   3 -11   8 2193.81 1170.59   2
  11  -3   8 2521.81 1183.76   4
   8   3   8 2259.89 1172.01   2
  -3  -8   8 1972.64 958.582   4
   3 -11  11 724.803 1084.19   2
  -3  -8  11 3039.80 1467.92   2
   8   3  11 1421.51 1085.59   3
  -3  -8  11 2556.57 1581.80   4
  11  -3  11 1946.70 1307.34   3
   8   3  11 579.510 1237.34   4
   3 -11  11 2343.20 1658.06   4
   8   3  11 2542.64 1549.60   2
  11  -3  11 693.138 1520.05   4
  11  -3  11 1665.13 1411.86   2
  -8  11  11 1496.68 1089.96   4
 -11   8  11 1812.12 1111.37   4
   2 -11 -11 4791.23 1998.06   1
  -2  -9 -11 3396.85 1779.32   1
   9   2 -11 3319.30 1715.41   1
  11  -2 -11 5394.12 1795.27   1
  -9  11  -8 4800.99 771.602   3
   2 -11  -8 6481.89 1806.53   1
   9   2  -8 6216.02 1690.62   1
  -2  -9  -8 4385.42 1390.31   1
  11  -2  -8 5582.10 1502.11   1
 -11   9  -5 4695.43 789.613   3
   9   2  -5 5983.48 941.498   3
   9   2  -5 5778.65 1172.61   1
  -2  -9  -5 4794.93 1076.57   1
  -9  11  -5 4942.58 592.274   3
  11  -2  -5 6003.29 1242.07   1
  11  -2  -5 5416.81 1134.75   2
   2 -11  -5 4319.83 1098.39   1
  11  -2  -2 6339.24 968.759   2
 -11   9  -2 6644.01 822.814   3
  11  -2  -2 8608.44 1088.37   3
   2 -11  -2 6654.49 667.498   2
  -2  -9  -2 7366.06 884.168   2
  -2  -9  -2 7117.51 965.952   1
   2 -11  -2 6349.39 932.698   1
   2 -11  -2 7097.71 1203.70   3
   9   2  -2 7485.49 1049.04   4
  11  -2  -2 7824.88 949.042   1
   9   2  -2 6618.14 878.185   1
   9   2  -2 6576.88 1043.29   2
  -2  -9  -2 7769.48 1218.51   3
  -9  11  -2 5452.49 955.447   4
  11  -2  -2 7052.64 907.570   4
   9   2  -2 7352.52 984.920   3
  -2  -9   1 18808.4 1274.59   3
   2 -11   1 19663.5 1400.55   4
  11  -2   1 17604.2 1323.66   4
  11  -2   1 20454.4 1661.77   3
   9   2   1 18457.8 1676.44   3
   2 -11   1 19964.7 1314.99   3
   9   2   1 20362.5 1737.05   2
  -2  -9   1 17899.0 1427.37   4
 -11   9   1 19065.1 1293.08   1
   2 -11   1 22669.9 1801.61   2
   9   2   1 17902.6 1420.33   4
  -2  -9   1 19089.9 1692.38   2
  11  -2   1 19422.6 1668.04   2
  -2  -9   4 8067.99 1273.42   4
 -11   9   4 7892.37 878.121   4
   9   2   4 7048.40 1245.09   3
  -2  -9   4 6767.41 1316.07   2
   2 -11   4 7264.65 1342.91   2
  11  -2   4 6759.30 867.013   1
   9   2   4 8373.84 937.758   1
  -9  11   4 6459.12 855.352   4
   2 -11   4 7469.41 1292.74   4
  11  -2   4 7924.11 1269.09   3
 -11   9   7 9100.43 941.962   2
  -2  -9   7 12206.3 1990.62   2
   9   2   7 13162.8 2072.70   3
  11  -2   7 7408.79 1766.01   2
   2 -11   7 9590.81 1781.85   4
  11  -2   7 6795.33 1489.66   3
 -11   9   7 9360.15 1455.19   4
  -9  11   7 9857.06 1631.00   4
  -2  -9   7 7894.58 1602.04   4
   2 -11   7 8596.33 1816.81   2
   2 -11  10 1559.86 950.960   2
  -2  -9  10 2392.87 1400.07   2
  -2  -9  10 505.592 831.155   4
 -11   9  10 1025.28 648.163   2
  11  -2  10 647.295 980.742   3
   9   2  10 1857.36 1313.47   3
  -9  11  10 4316.99 1517.41   4
   9   2  10 1246.33 972.247   2
 -11   9  10 2443.43 1338.25   4
   9   2  10 1011.46 1125.57   4
  11  -2  10 3254.52 1640.66   2
   2 -11  10 2476.58 1013.05   4
  11  -2  10 16.9508 1039.93   4
  10   1  -9 859.479 901.171   1
   1 -11  -9 1962.49 1211.14   1
  -1 -10  -9 3270.14 1385.06   1
  11  -1  -9 3002.20 1338.18   1
  10   1  -6 484.465 734.862   1
  10   1  -6 1130.09 567.925   3
  -1 -10  -6 304.118 750.201   1
  11  -1  -6 1875.51 1032.28   1
 -11  10  -6 734.031 407.272   3
 -10  11  -6 1093.25 412.457   3
   1 -11  -6 1886.02 932.105   1
  11  -1  -3 3005.55 706.627   3
  10   1  -3 1974.15 694.448   2
  11  -1  -3 2638.82 711.967   2
   1 -11  -3 2299.10 757.219   1
  10   1  -3 3585.32 837.971   4
  10   1  -3 3015.72 705.841   1
  11  -1  -3 1529.07 519.936   1
 -11  10  -3 2692.09 521.413   3
  10   1  -3 1690.34 505.214   3
  -1 -10  -3 2601.98 735.478   1
  11  -1  -3 3431.37 763.866   4
  -1 -10   0 1021.07 443.411   4
   1 -11   0 855.417 359.431   4
   1 -11   0 834.594 416.401   2
  -1 -10   0 689.837 448.495   2
  -1 -10   0 47.8089 369.384   3
  10   1   0 982.914 458.944   3
   1 -11   0 874.671 459.133   3
  10   1   0 310.169 476.092   2
  11  -1   0 1079.91 405.108   4
  11  -1   0 939.057 435.095   3
  10   1   0 622.564 391.381   4
  11  -1   0 706.690 358.118   2
 -10  11   3 2088.25 674.363   1
   1 -11   3 1248.84 171.401   3
  -1 -10   3 2297.07 319.560   3
   1 -11   3 3183.90 952.238   2
 -11  10   3 1899.93 659.981   1
  -1 -10   3 1976.95 580.089   2
   1 -11   3 2193.81 669.683   4
  11  -1   3 1519.25 306.817   1
  -1 -10   3 1669.27 680.214   4
 -11  10   3 1645.06 306.399   4
  11  -1   3 1823.24 761.266   3
  10   1   3 2813.78 840.253   3
  10   1   3 2447.83 422.094   1
 -10  11   3 1260.77 283.171   4
  -1 -10   6 1554.65 826.838   4
  -1 -10   6 1552.20 880.855   2
  11  -1   6 2009.05 1064.52   3
 -10  11   6 572.441 516.991   4
   1 -11   6 2403.15 961.847   2
  10   1   6 814.555 643.576   1
 -11  10   6 1095.46 620.657   4
 -11  10   6 612.344 240.049   2
   1 -11   6 1296.69 760.081   4
  10   1   6 2436.25 1062.16   3
  11  -1   6 1784.30 737.031   1
  10   1   9 6313.67 2084.64   4
  10   1   9 2308.64 1081.26   3
   1 -11   9 5509.69 1624.86   2
 -10  11   9 1900.26 1265.38   4
 -11  10   9 2660.89 671.465   2
 -10  11   9 1534.84 431.894   2
  11  -1   9 2719.07 1154.21   3
 -11  10   9 3180.22 1276.50   4
  11  -1   9 1288.99 1157.97   2
  10   1   9 3783.39 1463.48   2
  11  -1   9 5053.11 1811.91   4
   1 -11   9 3659.24 1407.58   4
  -1 -10   9 1205.40 1064.94   4
  -1 -10   9 3852.65 1423.91   2
  11   0 -10 2308.28 1191.21   1
   0 -11 -10 1074.07 1157.38   1
  11   0  -7 861.750 606.402   1
  11   0  -7-638.477 541.619   3
   0 -11  -7 330.784 591.785   1
 -11  11  -7 189.644 343.927   3
  11   0  -4 10433.6 1370.59   1
 -11  11  -4 6820.93 815.538   3
  11   0  -4 8852.76 1203.87   3
   0 -11  -4 5242.29 1120.91   1
  11   0  -1-117.188 369.883   3
   0 -11  -1-519.348 289.994   2
  11   0  -1-279.258 414.192   2
   0 -11  -1 233.896 369.540   3
   0 -11  -1 301.655 309.801   4
  11   0  -1-8.00372 291.202   4
   0 -11  -1-266.594 383.278   1
  11   0   2 4205.91 974.443   3
   0 -11   2 5240.48 1080.05   2
  11   0   2 4830.71 816.383   4
   0 -11   2 5779.18 614.649   3
  11   0   2 3802.62 873.031   2
 -11  11   2 6250.57 969.335   1
   0 -11   2 5875.72 912.302   4
   0 -11   5 352.537 821.835   2
  11   0   5 1930.22 908.911   3
  11   0   5-502.256 415.777   1
 -11  11   5 167.388 372.069   4
   0 -11   5 552.936 592.540   4
 -11  11   8 1708.78 871.163   4
 -11  11   8 927.992 294.807   2
  11   0   8 3211.08 1331.22   3
  11   0   8 1205.68 1146.05   2
   0 -11   8 2063.26 1278.07   4
   0 -11   8 3282.79 1655.24   2
  12 -12  -9-1454.33 1235.90   1
 -12   0  -9-633.442 804.440   1
  12 -12  -6 3365.18 1252.56   1
 -12   0  -6 5351.10 1042.54   1
  12 -12  -3-32.9739 150.452   2
 -12   0  -3-539.401 293.168   1
   0  12  -3-283.198 301.140   3
  12 -12  -3 372.174 624.444   1
  12 -12   0-117.144 269.675   1
 -12   0   0 309.068 343.342   3
   0  12   0 193.482 445.419   2
  12 -12   0 190.185 158.238   4
   0  12   0 858.829 496.644   3
 -12   0   0 840.167 471.893   4
   0  12   0-188.325 291.046   4
  12 -12   0 1001.72 559.625   2
 -12   0   0 203.520 153.929   1
   0  12   3 674.229 408.456   4
  12 -12   3-287.629 361.475   3
  12 -12   3 314.081 575.650   4
   0  12   3-330.225 427.916   2
 -12   0   3 76.9581 413.690   1
 -12   0   3 404.049 405.323   2
   0  12   3-54.3901 570.324   3
  12 -12   3-359.680 593.469   2
 -12   0   3 652.037 499.397   4
   0  12   6 4037.53 769.758   2
 -12   0   6 3976.79 1091.40   2
  12 -12   6 4383.11 834.396   3
  12 -12   6 5050.00 1369.88   4
  12 -12   6 7566.97 1721.99   2
 -12   0   6 4871.90 1134.84   4
  12 -12   9-120.641 1119.04   2
 -12   0   9 371.051 884.640   2
 -12   0   9 63.5356 672.957   4
   0  12   9-485.477 1263.58   4
  12 -12   9 822.770 817.139   3
   0  12   9-287.523 661.553   2
  12 -12   9 905.425 1169.02   4
  12 -11 -10 854.508 1330.58   1
 -12   1 -10 5666.80 1667.96   1
 -11  -1 -10 3518.76 1479.24   1
  11 -12 -10 5191.40 1900.13   1
   1  11  -7 3538.06 481.160   3
  12 -11  -7 6887.72 1672.79   1
  11 -12  -7 6753.97 1663.28   1
 -11  -1  -7 7517.77 1438.15   1
 -12   1  -7 6332.32 1222.02   1
 -12   1  -4 9757.27 955.312   1
 -11  -1  -4 9056.48 1026.79   1
  12 -11  -4 9406.93 1484.44   1
   1  11  -4 6027.11 560.470   3
  11 -12  -4 8128.24 1365.64   1
  12 -11  -4 6450.69 589.930   2
 -11  -1  -1 15651.9 1540.00   3
  11 -12  -1 18809.8 1537.60   1
   1  11  -1 16110.6 1453.64   3
  -1  12  -1 15374.3 1479.64   4
  11 -12  -1 16690.0 1375.27   2
   1  11  -1 14141.8 1500.53   4
  -1  12  -1 17449.6 1843.97   2
  12 -11  -1 16987.0 1417.02   1
   1  11  -1 16719.7 1774.81   2
  -1  12  -1 15994.8 1418.64   3
 -12   1  -1 14361.5 1507.19   3
   1  11   2 8172.52 1096.13   2
 -11  -1   2 9744.00 1126.56   3
  11 -12   2 9694.01 904.226   3
  12 -11   2 10754.1 1040.24   3
 -11  -1   2 8989.55 1098.00   4
 -12   1   2 10919.3 1365.42   2
 -11  -1   2 8425.44 1074.03   1
 -12   1   2 9760.85 1112.83   1
  -1  12   2 11632.1 1692.51   3
  11 -12   2 7397.50 1027.17   4
  -1  12   2 8575.07 1084.75   2
  -1  12   2 10093.4 1094.60   4
  11 -12   2 11564.1 1630.35   2
   1  11   2 10507.0 1567.86   3
 -11  -1   2 9882.17 1273.99   2
  12 -11   2 9494.53 1427.29   2
  12 -11   2 8286.04 1119.06   4
 -12   1   2 9765.18 1036.38   4
   1  11   2 9609.14 1085.24   4
 -12   1   5 2972.87 795.307   4
  -1  12   5 4342.38 692.991   2
  12 -11   5 3259.49 729.634   3
 -11  -1   5 4162.36 977.113   4
  11 -12   5 3048.31 610.577   3
   1  11   5 3327.62 633.184   2
  -1  12   5 5519.85 1564.98   3
   1  11   5 4298.79 1358.10   3
  11 -12   5 4296.72 1068.97   4
  12 -11   5 1830.23 890.696   2
 -12   1   5 6178.25 1167.87   2
  11 -12   5 5485.38 1447.49   2
  12 -11   5 5561.40 1291.16   4
 -11  -1   5 7859.29 1344.11   2
 -11  -1   8 1030.49 737.725   4
  12 -11   8 1539.70 876.296   2
  11 -12   8 363.916 960.200   4
 -11  -1   8-407.947 691.128   2
 -12   1   8 1359.96 683.055   2
  12 -11   8-10.6439 800.484   4
   1  11   8 1861.40 895.932   2
  12 -11   8 794.079 635.672   3
  11 -12   8 863.567 564.837   3
   1  11   8 1275.47 1083.52   3
 -12   1   8-90.5373 577.969   4
  -1  12   8 669.241 585.047   2
  11 -12   8 1118.20 1507.08   2
  10 -12  -8-471.817 888.327   1
 -10  -2  -8 806.298 868.501   1
   2  10  -8 548.586 273.186   3
   2  10  -8 1327.00 595.211   3
  12 -10  -8 1453.70 1093.88   1
 -12   2  -8 2699.54 1069.29   1
  12 -10  -5 3963.74 1084.22   1
   2  10  -5 2885.88 445.831   3
  10 -12  -5 3478.59 1131.86   1
 -12   2  -5 4278.19 776.480   1
 -10  -2  -5 2206.61 659.192   1
  12 -10  -5 1865.33 463.308   2
  -2  12  -2 7667.83 756.711   3
  10 -12  -2 6543.38 683.523   2
 -12   2  -2 6156.93 1036.57   3
  12 -10  -2 7721.97 754.989   2
   2  10  -2 7574.44 858.698   3
  10 -12  -2 7667.73 1084.56   1
 -10  -2  -2 6449.25 624.624   1
  12 -10  -2 8077.07 1107.91   1
 -10  -2  -2 6573.86 1134.73   3
  -2  12  -2 7259.33 1335.09   2
  -2  12  -2 6030.19 1106.62   4
   2  10  -2 6398.76 1111.17   4
   2  10  -2 6640.67 1213.23   2
  10 -12   1 4971.26 658.210   3
 -12   2   1 6302.27 908.688   3
 -10  -2   1 6332.26 926.896   3
 -12   2   1 6635.38 1019.87   2
  12 -10   1 5286.17 702.449   1
   2  10   1 6496.08 1136.57   3
 -10  -2   1 5188.14 821.416   4
  10 -12   1 5666.74 708.011   4
  12 -10   1 4597.27 712.470   3
 -10  -2   1 6829.22 830.692   1
  -2  12   1 5110.73 1008.28   3
  12 -10   1 5200.95 772.287   4
  10 -12   1 4599.35 967.152   2
 -10  -2   1 5851.19 981.225   2
   2  10   1 5315.13 821.160   4
   2  10   1 5148.82 939.148   2
 -12   2   1 6484.66 676.592   1
  -2  12   1 5848.96 789.626   4
  -2  12   1 4715.64 821.850   2
 -12   2   1 5141.56 729.665   4
  -2  12   4 2660.76 524.597   2
 -12   2   4 2771.18 662.847   4
  12 -10   4 2079.96 617.518   3
  10 -12   4 2711.92 452.031   3
   2  10   4 2947.62 699.864   2
 -12   2   4 2175.95 704.085   2
 -10  -2   4 3355.48 852.966   2
  12 -10   4 1393.37 725.497   2
 -12   2   4 1602.18 724.653   1
   2  10   4 2605.43 1011.36   3
 -10  -2   4 2680.61 832.807   1
  12 -10   4 2238.29 635.853   1
  12 -10   4 2927.46 925.471   4
  10 -12   4 1638.69 749.895   4
  -2  12   4 2696.48 703.775   4
  10 -12   4 778.236 796.031   2
  -2  12   4 4017.82 1175.73   3
 -10  -2   4 2756.70 731.184   4
 -10  -2   7 2607.19 1030.38   4
 -12   2   7 686.013 578.990   4
  12 -10   7 3051.34 1232.04   4
  10 -12   7 38.6113 398.569   3
  10 -12   7 1196.86 1187.24   4
 -10  -2   7 633.129 709.070   2
 -12   2   7 2121.82 849.529   2
  -2  12   7 258.795 360.775   2
  12 -10   7 1869.56 752.153   3
   2  10   7 712.192 509.874   2
   2  10   7 218.247 831.591   3
  -2  12   7 830.791 481.230   2
  12 -10   7 1505.04 1073.44   2
  10 -12   7 315.925 952.584   2
   2  10  10 1957.88 1545.19   4
   2  10  10 1448.59 932.394   2
  -2  12  10 4476.05 1831.47   4
 -12   2  10 3553.70 1334.16   2
 -10  -2  10 2149.98 1135.85   2
  12 -10  10-324.235 965.187   4
  12 -10  10 239.468 777.449   3
  10 -12  10 2641.09 1629.72   2
  10 -12  10 2615.40 1338.63   4
 -12   2  10 1091.78 882.883   4
 -10  -2  10 1080.79 1042.44   4
  12 -10  10 1954.00 1640.35   2
   3   9  -9 862.239 441.301   3
   9 -12  -9 957.375 1032.43   1
 -12   3  -9 85.7014 586.435   1
  -9  -3  -9 2116.03 1126.65   1
  12  -9  -6 710.248 487.459   2
   9 -12  -6 1313.91 899.079   1
   3   9  -6 878.712 347.123   3
  12  -9  -6 1346.98 934.021   1
 -12   3  -6 1575.66 612.996   1
  -9  -3  -6 2342.10 941.799   1
 -12   3  -3 402.657 482.965   3
  12  -9  -3-304.021 221.468   2
   3   9  -3 673.268 343.563   3
   9 -12  -3 480.849 511.606   1
  12  -9  -3 830.155 649.571   1
  -3  12  -3 1071.30 676.831   4
  -9  -3  -3 300.004 257.717   1
  12  -9  -3 382.030 341.136   4
  12  -9   0 3895.93 695.405   3
 -12   3   0 3192.17 673.705   3
  -3  12   0 3832.00 779.692   2
   3   9   0 4465.21 888.206   3
  -9  -3   0 3089.23 686.260   3
   3   9   0 2344.33 675.021   2
   3   9   0 5190.26 841.162   4
  -3  12   0 4000.70 809.216   3
  -9  -3   0 3985.38 523.143   1
  -3  12   0 3435.19 659.565   4
  12  -9   0 3050.19 377.199   4
  -9  -3   0 2500.91 708.000   2
   9 -12   0 3335.54 655.396   1
 -12   3   0 2931.30 245.204   1
   9 -12   0 4702.15 837.194   2
  12  -9   0 2837.92 516.252   1
   9 -12   0 4414.67 455.241   4
  -9  -3   0 4255.46 726.964   4
  -9  -3   3 2010.82 747.511   1
  12  -9   3 1672.82 522.613   1
  -3  12   3 1898.84 456.172   2
   9 -12   3 1163.93 589.337   4
   3   9   3 1047.93 433.766   1
 -12   3   3 1352.53 441.934   4
   9 -12   3 1510.44 345.298   3
  12  -9   3 1626.58 508.019   3
  -9  -3   3 1059.72 565.209   2
  12  -9   3 1169.88 644.789   4
   3   9   3 2077.20 594.945   2
 -12   3   3 1898.10 593.562   2
   3   9   3 1423.43 711.331   3
  -3  12   3 3785.21 1085.49   3
  -3  12   3 496.249 401.353   4
   3   9   3 1728.50 538.039   4
  -9  -3   3 2438.03 692.469   4
   9 -12   3 1227.33 667.872   2
 -12   3   3 2063.82 703.111   1
 -12   3   6 5590.90 1129.54   2
  -3  12   6 3682.55 504.227   2
   9 -12   6 4309.43 1373.43   2
  12  -9   6 5572.03 1107.14   3
  -9  -3   6 7617.19 1358.21   2
   9 -12   6 4454.87 674.184   3
   9 -12   6 4430.60 1243.28   4
  12  -9   6 4971.85 1334.37   2
   3   9   6 5296.47 995.957   2
   3   9   6 5122.20 1529.69   3
  -3  12   6 4347.76 663.935   2
  12  -9   6 3335.54 1182.94   4
 -12   3   6 6137.14 1114.25   4
  -9  -3   6 6940.85 1280.13   4
  -9  -3   9-404.965 718.157   2
 -12   3   9 1695.95 1010.37   4
 -12   3   9 570.332 666.096   2
   3   9   9 1853.47 1176.57   4
  12  -9   9 1833.16 1086.72   3
  12  -9   9 381.068 1118.38   4
   3   9   9 1773.54 1256.52   3
  -3  12   9 179.643 954.039   4
  12  -9   9 1908.14 1522.04   2
   9 -12   9-514.649 952.852   4
   3   9   9 1069.74 983.053   2
   9 -12   9 827.235 1260.87   2
  -9  -3   9 609.890 872.849   4
  -3  12   9 244.557 518.123   2
  12  -8 -10 2402.08 1215.81   1
   4   8 -10 703.614 486.925   3
  -8  -4 -10-823.121 1078.04   1
   4   8 -10 1028.77 1391.18   1
   8 -12 -10 330.641 1013.99   1
 -12   4 -10 3895.51 1541.69   1
 -12   4  -7 10480.0 1449.28   1
  -8  -4  -7 11043.1 1783.70   1
  12  -8  -7 6756.23 1045.56   2
   4   8  -7 5454.88 944.287   3
   4   8  -7 9173.18 933.582   3
   8 -12  -7 9086.93 1784.00   1
  12  -8  -7 7552.39 1800.48   1
  12  -8  -4 6797.16 990.839   4
  12  -8  -4 8351.55 1372.02   1
  12  -8  -4 7390.66 856.814   2
   4   8  -4 9205.93 889.145   3
   8 -12  -4 7022.52 1320.47   1
 -12   4  -4 8418.60 926.282   1
  -8  -4  -4 7367.53 1032.90   1
  -8  -4  -1 20563.5 1560.64   4
  12  -8  -1 24334.9 1739.46   3
 -12   4  -1 23664.4 1696.85   3
  -8  -4  -1 22482.0 1823.05   3
   4   8  -1 23298.8 1682.10   3
  -4  12  -1 20332.7 1889.21   2
  -8  -4  -1 22550.5 1814.78   2
  12  -8  -1 23529.1 1540.11   2
  12  -8  -1 24327.1 1029.84   4
  -8  -4  -1 20656.1 1073.26   1
   8 -12  -1 21515.4 1374.14   2
  12  -8  -1 21330.7 1447.07   1
   4   8  -1 23035.3 1781.41   4
  -4  12  -1 21008.4 1636.20   4
   8 -12  -1 23076.7 1734.93   1
   4   8  -1 21802.3 1960.08   2
   4   8   2 3916.87 796.831   2
  -8  -4   2 4359.39 959.989   2
   8 -12   2 4110.17 474.898   3
  -8  -4   2 3727.78 634.219   3
  -4  12   2 3692.31 533.889   4
  -8  -4   2 4552.19 819.796   4
 -12   4   2 3922.99 773.594   2
   8 -12   2 4780.67 825.244   4
 -12   4   2 4633.99 654.740   4
   4   8   2 4926.19 832.119   4
   4   8   2 3890.98 954.409   3
 -12   4   2 2707.90 610.230   1
  -4  12   2 3483.39 746.783   1
  -4  12   2 3594.05 566.711   2
  -8  -4   2 3734.19 688.196   1
  12  -8   2 3938.42 693.939   3
   8 -12   2 4691.69 1055.70   2
 -12   4   5 16177.4 1630.15   4
 -12   4   5 13969.3 1547.23   2
   4   8   5 12055.8 1377.42   2
  12  -8   5 11122.7 1386.82   3
   4   8   5 13335.8 2143.84   3
  12  -8   5 13128.0 2048.84   2
  12  -8   5 11737.3 1488.87   1
  -8  -4   5 13499.6 1712.46   4
  12  -8   5 10678.9 1887.68   4
   8 -12   5 15736.0 2083.32   4
   8 -12   5 14537.2 2041.73   2
   8 -12   5 11478.1 800.310   3
  -8  -4   5 15300.7 1839.19   2
  -4  12   8 747.348 975.423   4
  -4  12   8 748.969 404.995   2
  12  -8   8-422.797 836.062   2
  -8  -4   8-848.223 850.429   2
  -8  -4   8 2347.47 1015.63   4
  -4  12   8-178.045 321.748   2
  12  -8   8 198.474 952.559   4
  12  -8   8 229.125 608.837   3
   4   8   8 1776.57 1226.14   3
   4   8   8 401.375 698.688   2
   8 -12   8-259.438 694.087   4
 -12   4   8 385.659 748.186   2
 -12   4   8-421.432 705.867   4
   8 -12   8-170.199 975.568   2
 -12   4  11 5618.42 1680.51   4
   4   8  11 3935.10 1955.15   4
  12  -8  11 2574.69 1201.84   2
  -8  -4  11 4723.09 1649.11   2
  -4  12  11 4925.35 2017.39   4
  12  -8  11 3976.25 1844.39   4
   4   8  11 3449.71 1539.22   2
  12  -8  11 4193.19 1573.44   3
   8 -12  11 4760.74 1929.01   2
  -8  -4  11 721.055 1303.63   4
 -12   4  11 5600.28 1458.55   2
   8 -12  11 3849.56 1743.94   4
  -7  -5 -11 4087.87 1435.56   1
   5   7 -11 6303.31 2035.91   1
  12  -7 -11 6830.21 2085.51   1
 -12   5 -11 2391.27 1299.53   1
   7 -12 -11 5114.36 1866.73   1
   5   7  -8 1516.12 522.280   3
  -7  -5  -8 852.019 941.333   1
 -12   5  -8 1510.04 720.847   1
   5   7  -8 1290.38 742.886   3
   5   7  -8 1949.84 888.336   1
  12  -7  -8 2903.96 1263.92   1
   7 -12  -8 1121.91 977.866   1
   7 -12  -5 17748.9 2214.92   1
   5   7  -5 20742.3 1351.01   3
 -12   5  -5 20808.2 1694.25   1
  12  -7  -5 18494.0 1860.23   4
  12  -7  -5 15647.4 1387.38   2
  12  -7  -5 19313.5 2183.64   1
  -7  -5  -5 20794.4 2022.68   1
   5   7  -2 2979.77 665.637   3
   7 -12  -2 1148.34 271.112   2
 -12   5  -2 2201.54 649.823   3
  -7  -5  -2 1370.81 434.077   1
  -7  -5  -2 685.692 501.590   3
   7 -12  -2 1166.47 494.637   1
  -5  12  -2 1706.21 637.543   4
   5   7  -2 1176.63 574.976   4
  12  -7  -2 2465.76 551.294   2
   5   7  -2 2181.05 795.772   2
  -5  12  -2 1863.27 792.033   2
  12  -7  -2 1326.58 516.398   1
   7 -12  -2 1535.25 643.154   3
  12  -7  -2 575.118 285.546   4
   7 -12   1 8556.17 881.534   4
  -7  -5   1 11013.1 1302.53   2
  12  -7   1 8833.57 1030.44   3
  -7  -5   1 8811.88 974.253   3
  12  -7   1 9568.16 703.161   1
   5   7   1 8620.51 1242.47   3
  -5  12   1 8764.98 971.980   2
 -12   5   1 10342.6 855.697   1
   5   7   1 8518.48 1041.59   4
   5   7   1 8690.32 1094.36   2
  -7  -5   1 8026.31 907.103   1
  -5  12   1 8900.48 812.660   4
   7 -12   1 8581.99 1173.23   2
  -7  -5   1 9448.82 1083.72   4
 -12   5   1 8733.49 784.043   4
  12  -7   4 5579.96 948.080   3
   5   7   4 4098.97 790.209   1
 -12   5   4 4861.96 789.575   4
 -12   5   4 4534.65 788.775   2
  -7  -5   4 2949.10 870.126   2
 -12   5   4 4121.21 964.927   1
  -7  -5   4 4795.62 1082.11   4
   7 -12   4 3733.83 1037.31   2
  12  -7   4 4274.14 830.109   1
   5   7   4 2998.40 1084.33   3
   5   7   4 4048.86 807.134   2
   7 -12   4 4442.53 1041.91   4
 -12   5   7 6663.76 1184.34   2
  -5  12   7 2517.85 329.320   2
 -12   5   7 5188.39 1083.68   4
  -5  12   7 4499.34 1340.27   4
  -7  -5   7 4670.24 1318.83   2
  -7  -5   7 4140.04 1196.07   4
   7 -12   7 2338.13 1062.83   2
  12  -7   7 1450.33 1122.94   4
  12  -7   7 4441.30 1086.14   3
   5   7   7 4208.62 1364.40   3
  12  -7   7 2594.60 1208.46   2
   7 -12   7 3824.14 1308.58   4
   7 -12  10-520.167 1227.95   2
  -7  -5  10 768.076 1045.06   2
 -12   5  10 2838.53 1155.94   2
   7 -12  10 2997.75 1353.98   4
  12  -7  10 2564.93 1214.19   3
  -5  12  10 1022.63 1159.84   4
   5   7  10 1255.63 1162.43   3
   5   7  10 1071.89 1029.64   2
  12  -7  10 1050.26 1116.45   4
  -7  -5  10 2534.62 1237.50   4
  12  -7  10 1531.83 1249.54   2
 -12   5  10 1119.85 1157.90   4
   5   7  10 415.034 1217.01   4
   6   6  -9 1551.36 1084.57   1
  12  -6  -9 1165.45 1242.71   1
   6 -12  -9 8.93729 817.218   1
  -6  -6  -9 103.846 794.996   1
 -12   6  -9 395.237 631.396   1
   6   6  -9 765.475 534.902   3
  12  -6  -6 3245.88 1117.16   1
   6 -12  -6 3021.66 1090.30   1
   6   6  -6 2593.70 517.111   3
  -6  -6  -6 2404.06 796.820   1
  12  -6  -6 2550.32 770.536   2
 -12   6  -6 2508.01 813.763   1
   6   6  -6 4636.36 1176.14   1
  12  -6  -3 1803.44 540.572   2
  12  -6  -3 2042.17 648.877   1
   6 -12  -3 1131.38 588.268   1
  -6  12  -3 2922.80 885.832   4
  -6  12  -3 1247.00 718.373   2
  -6  -6  -3 1957.80 557.724   1
 -12   6  -3 1679.56 519.280   3
  12  -6  -3 2332.82 598.916   4
   6   6  -3 793.307 366.927   3
   6 -12   0 27893.8 1321.98   4
  12  -6   0 26266.2 1789.59   3
   6   6   0 28062.4 1977.54   3
  -6  -6   0 26267.6 1687.68   4
   6 -12   0 26891.6 1852.16   3
  12  -6   0 26738.1 1290.81   4
  -6  -6   0 26725.1 1774.47   3
   6 -12   0 30387.1 1949.48   1
  -6  12   0 26764.6 1866.03   2
  12  -6   0 27172.8 1237.00   1
  -6  12   0 26707.3 1492.43   4
   6 -12   0 26269.0 1749.01   2
   6   6   0 28606.1 1860.57   4
  -6  -6   0 24473.3 1824.02   2
   6   6   0 27507.3 2011.12   2
   6   6   3 1804.02 516.036   1
  -6  12   3 1891.32 380.112   4
  12  -6   3 1127.20 393.737   1
 -12   6   3 1135.55 472.665   2
  -6  -6   3 1793.08 624.687   2
  -6  -6   3 1357.93 671.984   1
 -12   6   3 772.947 536.198   1
   6   6   3 588.353 596.311   3
   6   6   3 852.222 479.653   2
 -12   6   3 1434.69 383.500   4
   6 -12   3 2599.58 672.983   4
  -6  -6   3 1034.61 489.504   4
  12  -6   3 2167.03 639.475   3
   6 -12   3 1982.78 807.534   2
  -6  12   6 4238.99 1089.09   4
  -6  -6   6 1850.05 928.393   2
  -6  -6   6 3332.35 1061.14   4
 -12   6   6 3784.21 819.532   2
   6   6   6 2235.47 1083.38   3
  12  -6   6 2157.08 809.928   1
  12  -6   6 2643.43 1111.47   4
  12  -6   6 5116.84 1476.75   2
   6 -12   6 4043.40 1199.22   2
 -12   6   6 3735.40 917.169   4
   6 -12   6 5248.62 1237.49   4
  12  -6   6 2817.85 887.706   3
  -6  12   9 414.608 325.982   2
   6 -12   9 966.414 1317.44   4
  -6  12   9 163.414 903.172   4
 -12   6   9-291.677 581.565   2
   6   6   9 1282.17 1280.40   4
  12  -6   9 219.398 823.213   2
 -12   6   9-1070.31 850.624   4
  12  -6   9-948.525 1223.27   4
  12  -6   9 983.342 921.539   3
   6   6   9 816.733 1120.25   3
   6   6   9 932.198 1123.88   2
   6 -12   9 1759.58 1501.55   2
  -6  -6   9 1087.10 1017.22   2
  -6  -6   9 1352.36 1213.19   4
   7   5 -10 948.396 611.883   3
 -12   7 -10 1126.87 799.585   1
  12  -5 -10 1895.59 1493.59   1
   7   5 -10 3274.61 1589.29   1
   5 -12 -10 2839.09 1522.89   1
  -5  -7 -10 1800.69 1078.86   1
   5 -12  -7 4826.77 1514.62   1
   7   5  -7 5802.69 926.875   3
  -5  -7  -7 2323.22 993.830   1
   7   5  -7 4510.82 1254.05   1
 -12   7  -7 4966.56 1218.09   1
  12  -5  -7 4550.63 1280.49   1
   7   5  -4 4467.96 1027.29   1
   7   5  -4 3754.15 662.127   3
  12  -5  -4 4536.80 884.877   4
  12  -5  -4 3842.71 762.959   2
 -12   7  -4 2648.71 659.406   3
  -5  -7  -4 4820.84 903.125   1
  12  -5  -4 4708.52 1014.98   1
   5 -12  -4 4657.43 1089.54   1
  12  -5  -1 9359.12 875.545   4
 -12   7  -1 8222.51 972.829   3
  12  -5  -1 8994.83 1120.32   3
   7   5  -1 8384.97 1009.99   3
   7   5  -1 9223.46 1094.29   4
   5 -12  -1 8288.52 1012.78   1
  -7  12  -1 8250.99 1199.99   2
   5 -12  -1 8939.43 1226.34   3
   5 -12  -1 9759.39 791.229   4
  -5  -7  -1 7359.42 964.528   2
  -5  -7  -1 10133.5 1088.28   4
  12  -5  -1 8394.31 989.789   2
  -5  -7  -1 7770.60 818.863   1
   7   5  -1 8066.31 1174.63   2
  12  -5  -1 8777.78 843.351   1
  -5  -7  -1 8940.97 1208.10   3
  -7  12  -1 9046.65 1065.72   4
   5 -12  -1 8516.84 874.244   2
   5 -12   2 1271.43 534.036   2
   7   5   2 1583.74 585.942   4
  12  -5   2 1102.62 262.202   1
 -12   7   2 1147.35 401.898   1
  -5  -7   2 1247.86 568.276   1
  12  -5   2 1156.03 533.229   3
   7   5   2 1424.59 572.908   3
   7   5   2 568.335 425.645   2
   5 -12   2 1756.91 356.085   3
  -7  12   2 1214.73 251.968   4
  -5  -7   2 1574.51 613.054   4
  -7  12   2 2073.57 556.614   1
  -5  -7   2 1544.44 693.220   2
   5 -12   2 2025.04 629.316   4
  -5  -7   2 1471.85 415.314   3
 -12   7   2 1629.75 306.464   4
   5 -12   5 18187.5 2298.22   2
 -12   7   5 19435.2 1474.87   2
  -5  -7   5 20092.9 2226.46   2
  12  -5   5 17146.3 1969.72   3
   7   5   5 24281.8 2595.82   3
  -5  -7   5 19595.4 2111.92   4
  -7  12   5 19420.9 1902.72   4
   5 -12   5 21514.7 2300.41   4
   7   5   5 17820.6 1639.17   1
 -12   7   5 18962.1 1582.05   4
  12  -5   5 19572.1 1760.06   1
   5 -12   8 2188.24 1136.66   2
   7   5   8 1742.80 974.302   2
 -12   7   8 1622.05 695.162   2
  12  -5   8 2204.97 909.455   3
   7   5   8 1287.60 1199.16   3
   5 -12   8 2308.41 1479.82   4
  12  -5   8 3483.68 1546.94   4
  12  -5   8 3140.12 1313.63   2
  -5  -7   8 3062.44 1201.57   2
 -12   7   8 1378.85 903.789   4
  -5  -7   8 1777.33 1078.57   4
  -7  12   8 2216.01 952.466   4
   5 -12  11 3131.65 1642.11   4
  12  -5  11 4237.19 1728.18   2
   5 -12  11 4814.78 1944.73   2
  -5  -7  11 3595.83 1689.13   2
   7   5  11 3622.32 1912.19   4
  12  -5  11 4153.52 1482.55   3
 -12   7  11 4298.85 1527.66   4
   7   5  11 3285.13 1565.37   3
  12  -5  11 2937.01 1917.39   4
   7   5  11 2580.67 1569.00   2
  -5  -7  11 3949.49 1421.93   4
  -7  12  11 5461.86 2097.29   4
   8   4 -11 5843.72 1923.03   1
   8   4 -11 3557.73 1113.19   3
  12  -4 -11 7577.51 2161.51   1
   4 -12 -11 4438.91 1806.93   1
  -4  -8 -11 4833.42 1559.23   1
   8   4  -8 207.265 463.118   3
  -8  12  -8-218.260 266.370   3
   4 -12  -8 460.289 1208.78   1
  -4  -8  -8-20.7124 690.940   1
  12  -4  -8 764.487 933.435   1
   8   4  -8 1089.27 804.048   1
   8   4  -5 13352.2 1314.65   3
 -12   8  -5 9419.79 1216.18   3
   8   4  -5 16495.3 1962.86   1
  12  -4  -5 9028.87 1294.81   2
  12  -4  -5 15130.1 1927.43   1
  12  -4  -5 11598.1 1609.93   4
   4 -12  -5 12638.3 1864.25   1
  -4  -8  -5 14332.1 1756.98   1
   8   4  -2 3502.60 759.757   4
   8   4  -2 4049.63 723.272   3
 -12   8  -2 2952.42 633.499   3
  -8  12  -2 3130.80 739.007   4
   8   4  -2 4177.28 929.340   2
  -4  -8  -2 4429.03 935.690   3
  -4  -8  -2 4125.95 710.235   1
   4 -12  -2 3763.05 818.949   1
   4 -12  -2 3440.30 974.397   3
  -4  -8  -2 4873.28 873.527   2
  12  -4  -2 4310.38 795.219   2
  12  -4  -2 3408.94 651.498   1
  -8  12  -2 4817.14 1044.59   2
  12  -4  -2 4505.23 763.042   4
   4 -12  -2 3660.92 486.856   2
  12  -4  -2 3516.24 708.975   3
  12  -4   1 24350.4 1805.24   3
  -4  -8   1 25833.9 1566.29   3
   8   4   1 22718.3 1942.94   3
  -4  -8   1 24485.9 1686.82   4
   4 -12   1 22291.3 1452.14   4
  -8  12   1 20414.4 941.662   4
   4 -12   1 25161.0 1927.78   2
   4 -12   1 23958.3 1498.19   3
 -12   8   1 22089.8 1329.88   1
   8   4   1 24209.7 1895.02   2
  12  -4   1 22570.0 1452.75   4
   8   4   1 26234.1 1752.56   4
  -4  -8   1 24108.4 1897.63   2
  12  -4   4 7127.09 920.009   1
  12  -4   4 6925.88 1190.21   3
   8   4   4 6355.34 1127.92   2
 -12   8   4 7185.53 836.977   2
   8   4   4 6158.79 1428.44   3
   4 -12   4 9556.37 1417.08   4
   4 -12   4 7334.70 1416.24   2
  -8  12   4 8252.46 1049.66   4
   8   4   4 6954.59 889.287   1
 -12   8   4 8325.44 901.381   4
  -4  -8   4 6772.89 1213.68   4
  -4  -8   4 9159.36 1455.21   2
 -12   8   7 8821.21 1093.39   2
  -4  -8   7 7709.48 1498.14   4
  12  -4   7 9996.04 2041.76   4
   4 -12   7 12534.4 2180.51   2
  -4  -8   7 8933.21 1710.08   2
 -12   8   7 10333.8 1501.19   4
   4 -12   7 9774.36 1904.88   4
   8   4   7 9193.41 1813.55   3
  12  -4   7 8111.74 1573.38   3
  12  -4   7 8575.77 1781.40   2
  -8  12   7 9359.17 1585.10   4
   4 -12  10-153.625 1143.27   2
   8   4  10 1609.83 1326.88   2
  12  -4  10 1642.43 1240.20   2
  12  -4  10 1400.88 1007.61   3
   8   4  10 1674.68 1273.34   3
   8   4  10 1722.93 1660.98   4
  -4  -8  10 1658.37 1091.21   2
  12  -4  10 2808.16 1749.74   4
  -8  12  10 4226.96 1655.12   4
   4 -12  10 2890.42 1398.07   4
 -12   8  10 2468.47 1199.09   4
  -4  -8  10 1524.66 1156.77   4
 -12   8  10 932.344 829.438   2
   9   3  -9 2459.52 1470.75   1
   3 -12  -9-491.437 1013.47   1
   9   3  -9 432.496 507.281   3
  -3  -9  -9 2157.05 1172.49   1
  12  -3  -9 627.643 854.180   1
  -9  12  -6 4544.01 522.850   3
   9   3  -6 5806.39 986.406   3
   9   3  -6 6382.95 1404.70   1
  -3  -9  -6 3049.22 1039.57   1
 -12   9  -6 2847.56 739.075   3
   3 -12  -6 3679.74 1223.53   1
  12  -3  -6 7270.13 1529.57   1
  12  -3  -3 1081.67 459.030   1
  12  -3  -3 895.367 460.996   3
 -12   9  -3 2290.42 544.493   3
   3 -12  -3 2114.12 702.201   1
   9   3  -3 1269.57 545.965   1
  12  -3  -3 1539.98 526.283   2
  -3  -9  -3 2447.23 715.992   1
  -9  12  -3 1048.80 558.556   4
  12  -3  -3 1927.60 564.398   4
   9   3  -3 1536.40 492.075   3
   9   3  -3 2443.59 766.155   4
  -3  -9   0 3251.30 606.257   4
  12  -3   0 3190.63 725.174   3
  -3  -9   0 4355.72 768.061   3
  -9  12   0 3776.59 515.769   4
   3 -12   0 3282.31 702.544   2
   3 -12   0 4474.64 826.667   3
   3 -12   0 3360.09 572.061   4
   9   3   0 2810.50 731.872   3
  -3  -9   0 2861.72 682.355   2
  12  -3   0 3364.57 573.628   4
  12  -3   0 3248.77 698.042   2
   9   3   0 3024.52 779.170   2
  12  -3   0 2070.70 254.538   1
   9   3   0 3371.69 659.669   4
   3 -12   3 741.595 519.799   4
  -9  12   3 696.093 219.080   4
 -12   9   3 1101.96 547.648   1
  -3  -9   3 212.246 546.146   2
  -3  -9   3 351.825 219.487   3
  -3  -9   3-55.7313 405.796   1
  12  -3   3-151.401 452.440   3
 -12   9   3 421.058 254.620   4
   3 -12   3 642.220 566.478   2
   9   3   3 388.604 231.645   1
   9   3   3 209.636 663.167   3
   9   3   3-54.9045 359.250   2
  -9  12   3 660.022 303.419   4
  12  -3   3 70.3958 209.737   1
  -3  -9   3-748.582 464.954   4
   3 -12   6 1493.60 1026.63   2
  -9  12   6 2067.07 797.336   4
 -12   9   6 1709.18 592.235   4
  12  -3   6 3281.11 1030.53   3
  12  -3   6 1548.64 671.594   1
 -12   9   6 2320.67 575.415   2
   9   3   6 1185.58 848.862   3
   3 -12   6 2508.36 1017.50   4
  -3  -9   6 2990.64 1007.94   4
  -3  -9   6 627.721 745.028   2
   3 -12   9 616.606 998.012   2
  12  -3   9 2351.10 1298.73   2
  -3  -9   9 454.778 871.325   2
   9   3   9-156.320 1060.17   4
  -3  -9   9 13.9206 713.419   4
 -12   9   9 292.579 523.311   2
  12  -3   9 448.044 1040.98   3
   9   3   9 1032.06 1237.62   3
   3 -12   9 313.644 1046.78   4
  12  -3   9 705.025 1124.24   4
   9   3   9 383.335 853.484   2
 -12   9   9 1299.59 921.741   4
  -9  12   9 813.020 898.221   4
  10   2 -10 1657.01 853.840   3
   2 -12 -10 1413.73 1195.15   1
  -2 -10 -10 1441.68 1086.30   1
  10   2 -10 2171.15 1514.35   1
  12  -2 -10 4856.14 1634.69   1
  -2 -10  -7 722.654 867.472   1
  12  -2  -7 656.385 646.785   1
  10   2  -7 934.949 557.855   3
 -12  10  -7 1179.46 660.504   3
  10   2  -7 1360.58 838.437   1
 -10  12  -7 615.260 410.574   3
   2 -12  -7 964.342 903.048   1
  10   2  -4 1942.32 673.822   1
  12  -2  -4 1463.66 644.031   2
 -12  10  -4 2152.40 579.403   3
   2 -12  -4 3253.74 921.418   1
  -2 -10  -4 1076.26 581.090   1
  12  -2  -4 3318.03 812.356   3
  12  -2  -4 4163.18 1015.26   1
  12  -2  -4 3047.70 860.973   4
  10   2  -4 2064.14 638.552   3
  12  -2  -1 6172.25 957.091   2
  12  -2  -1 7156.53 1031.42   3
  10   2  -1 6983.13 1060.79   3
  -2 -10  -1 6923.86 901.685   1
  -2 -10  -1 6198.75 1096.23   3
  12  -2  -1 6228.72 872.875   4
  10   2  -1 8453.36 1214.27   2
   2 -12  -1 6577.99 1141.71   3
   2 -12  -1 6747.45 840.311   2
   2 -12  -1 5257.73 870.125   1
  10   2  -1 7788.60 1034.21   4
  12  -2  -1 7333.12 710.826   1
   2 -12  -1 6772.00 785.835   4
  -2 -10  -1 5638.23 858.739   4
  -2 -10  -1 8033.00 1024.82   2
 -12  10   2 7835.03 1005.35   1
  -2 -10   2 7757.20 1077.56   4
   2 -12   2 7651.03 651.143   3
   2 -12   2 6127.41 951.195   4
  10   2   2 8834.41 1252.32   2
   2 -12   2 5884.71 1099.39   2
  12  -2   2 4522.75 858.443   3
  10   2   2 6079.72 1084.78   3
  -2 -10   2 6869.32 1181.96   2
 -10  12   2 7585.14 1035.99   1
  10   2   2 4744.74 885.604   4
  12  -2   2 7134.78 979.526   4
  -2 -10   2 7781.54 753.659   3
  12  -2   5 3676.10 807.662   1
   2 -12   5 3931.49 1098.17   2
  -2 -10   5 5475.53 1284.57   2
  10   2   5 3310.35 1124.98   3
  10   2   5 2460.58 666.602   1
 -10  12   5 3219.52 730.378   4
  12  -2   5 3343.33 1071.70   3
 -12  10   5 4195.00 758.516   4
   2 -12   5 4467.39 1094.58   4
  -2 -10   5 4844.72 1112.04   4
 -10  12   8 310.612 606.622   4
  -2 -10   8 2395.35 1219.29   2
 -12  10   8 1192.61 458.434   2
  12  -2   8 1544.59 1073.13   3
  10   2   8 2290.84 1243.37   3
  12  -2   8 1547.02 1011.00   4
 -12  10   8 606.366 611.592   4
  12  -2   8 654.007 926.443   2
   2 -12   8 2609.70 1141.19   4
  10   2   8 876.925 681.862   2
  -2 -10   8 1374.85 839.128   4
   2 -12   8-1036.00 1055.85   2
  11   1  -8 1051.03 747.914   3
   1 -12  -8 845.744 1073.43   1
  -1 -11  -8 89.9271 811.645   1
  11   1  -8 1448.00 929.299   1
  12  -1  -8 1589.71 1251.14   1
  12  -1  -5 3534.99 875.319   3
 -11  12  -5 5664.96 747.073   3
  11   1  -5 4923.69 1107.27   1
  11   1  -5 5413.38 975.428   3
 -12  11  -5 4559.92 792.814   3
   1 -12  -5 4463.89 1190.03   1
  -1 -11  -5 4294.36 1133.92   1
  12  -1  -5 4269.00 1098.04   1
  12  -1  -2 7786.51 1172.13   2
  12  -1  -2 9770.77 1225.25   3
  11   1  -2 11118.6 1253.26   3
   1 -12  -2 8893.11 911.901   2
  -1 -11  -2 7386.81 896.823   2
  -1 -11  -2 8506.27 1303.57   3
   1 -12  -2 9993.12 1458.02   3
  -1 -11  -2 7703.81 1010.60   1
  11   1  -2 10637.3 1072.19   1
   1 -12  -2 8703.76 1148.43   1
  11   1  -2 9637.51 1274.62   2
  12  -1  -2 8006.70 1068.38   4
  11   1  -2 8981.88 1174.97   4
  12  -1  -2 9092.37 993.665   1
  11   1   1 16572.0 1700.90   3
  12  -1   1 14833.8 1575.55   3
  -1 -11   1 18622.9 1380.49   3
  11   1   1 12865.6 1486.02   2
  12  -1   1 14957.4 1547.35   2
   1 -12   1 16363.1 1305.85   3
  11   1   1 14823.2 1342.73   4
  -1 -11   1 14048.8 1286.96   4
 -12  11   1 17693.1 1340.95   1
  12  -1   1 15243.8 1341.95   4
   1 -12   1 15174.5 1336.11   4
   1 -12   1 15527.6 1599.68   2
  -1 -11   1 15246.1 1571.83   2
  12  -1   4 7976.57 1378.38   3
  11   1   4 10319.5 1582.69   3
   1 -12   4 9599.72 1357.70   4
  12  -1   4 7913.47 859.236   1
  -1 -11   4 8178.48 1364.53   4
  -1 -11   4 9304.32 1510.09   2
 -11  12   4 8475.25 806.732   4
 -12  11   4 8742.05 782.911   4
  11   1   4 9095.12 913.944   1
   1 -12   4 8043.67 1464.90   2
  -1 -11   7 6903.53 1586.43   2
  -1 -11   7 7172.97 1560.24   4
 -12  11   7 4761.77 568.674   2
  12  -1   7 7206.50 1620.85   3
  11   1   7 7364.18 1592.91   3
 -11  12   7 6373.99 1315.05   4
 -12  11   7 7771.12 1242.58   4
   1 -12   7 9774.45 1907.93   4
   1 -12   7 9352.02 1887.02   2
  11   1  10 1417.12 1072.98   2
   1 -12  10 4490.30 1740.24   2
  -1 -11  10 7230.85 2010.95   2
  12  -1  10 1768.90 1271.09   3
  11   1  10 2024.36 1272.18   3
  12  -1  10 2256.32 1690.89   4
  12  -1  10 2509.05 1349.66   2
 -11  12  10 3643.36 1367.64   4
   1 -12  10 3726.23 1585.14   4
  -1 -11  10 773.451 870.437   4
  11   1  10 4740.23 2103.67   4
 -12  11  10 5044.75 1549.16   4
  12   0  -9 443.846 628.780   3
   0 -12  -9 923.402 1230.63   1
  12   0  -9 999.318 865.824   1
  12   0  -6 5173.76 1060.73   3
 -12  12  -6 3724.68 679.208   3
   0 -12  -6 4296.64 1283.42   1
  12   0  -6 3255.22 1051.67   1
  12   0  -3 147.183 397.249   3
   0 -12  -3 390.921 414.278   1
  12   0  -3-563.109 405.509   1
  12   0  -3-704.123 577.036   4
  12   0   0-166.832 354.282   3
   0 -12   0 315.827 341.881   2
   0 -12   0 36.4098 348.231   3
  12   0   0 157.366 457.236   2
   0 -12   0-24.1117 252.895   4
  12   0   0 493.960 354.743   4
   0 -12   3-647.132 625.640   2
  12   0   3 112.354 151.788   1
  12   0   3 199.077 527.700   3
   0 -12   3-164.427 400.156   4
   0 -12   3-215.669 128.728   3
   0 -12   6 3710.67 1149.55   2
   0 -12   6 5477.41 1283.46   4
  12   0   6 2202.34 753.059   1
 -12  12   6 5755.16 998.730   4
  12   0   6 4473.04 1313.25   3
  12   0   9-312.679 1053.08   4
 -12  12   9 772.166 948.369   4
   0 -12   9 1455.34 1087.50   4
  12   0   9 297.814 809.777   3
   0 -12   9-422.273 1122.95   2
  12   0   9 929.780 899.232   2
 -13   0 -10 5071.83 1556.03   1
  13 -13 -10 7859.36 2315.20   1
  13 -13  -7 384.657 705.231   1
 -13   0  -7-822.725 590.917   1
 -13   0  -4 30215.4 1621.56   1
  13 -13  -4 29297.0 2605.34   1
   0  13  -1 442.800 484.063   4
   0  13  -1 116.678 629.097   2
   0  13  -1 1217.78 651.520   3
  13 -13  -1 546.722 460.765   1
  13 -13  -1-85.7185 395.795   2
  13 -13   2 19287.8 1392.74   3
 -13   0   2 16351.3 1430.14   1
 -13   0   2 14939.6 1651.51   2
  13 -13   2 14338.6 1870.92   2
  13 -13   2 15465.7 1502.51   4
   0  13   2 15458.0 1550.91   2
   0  13   2 14638.7 1387.29   4
 -13   0   2 16108.4 1494.93   4
  13 -13   5 743.896 460.035   3
   0  13   5 571.913 930.546   3
  13 -13   5 701.388 683.714   4
  13 -13   5 752.669 833.714   2
 -13   0   5 749.697 635.401   4
   0  13   5 930.349 549.532   2
 -13   0   5-515.338 543.817   2
  13 -13   8 10733.5 1458.34   3
   0  13   8 13588.7 2766.74   3
   0  13   8 9507.98 1423.54   2
  13 -13   8 15421.2 2609.88   4
  13 -13   8 12960.7 2550.10   2
 -13   0   8 11579.8 1860.58   4
 -13   0   8 11869.7 1972.95   2
  12 -13  -8 951.651 819.165   1
  13 -12  -8 2171.82 1088.49   1
 -13   1  -8 2491.95 1010.13   1
 -12  -1  -8 1915.47 981.764   1
 -13   1  -5 979.799 421.950   1
  13 -12  -5 1139.38 307.482   2
 -12  -1  -5 1691.67 572.077   1
  12 -13  -5 1519.47 887.201   1
  13 -12  -2 2772.92 515.563   2
  12 -13  -2 1940.13 630.229   1
  13 -12  -2 1682.34 547.740   1
   1  12  -2 2377.87 605.559   3
  -1  13  -2 2339.30 526.258   3
  12 -13  -2 1466.50 390.447   2
  12 -13   1 5741.27 786.069   3
  13 -12   1 6488.54 861.215   3
 -13   1   1 7857.62 1218.28   2
 -12  -1   1 5394.31 712.889   1
   1  12   1 7231.19 1309.03   3
  -1  13   1 7646.31 1325.37   3
  13 -12   1 6919.91 1208.81   2
   1  12   1 5474.59 894.256   4
   1  12   1 7731.79 1195.53   2
 -13   1   1 6570.32 737.396   1
 -13   1   1 6560.32 868.289   4
  13 -12   1 5601.79 779.650   1
  13 -12   1 5718.47 748.513   4
  12 -13   1 7526.83 1252.24   2
  12 -13   1 5936.49 730.588   4
  -1  13   1 5649.96 916.631   4
 -12  -1   1 6579.53 1119.29   2
 -12  -1   1 7453.54 998.664   4
  -1  13   1 6265.49 1041.49   2
  12 -13   4 1809.10 759.988   4
   1  12   4 147.648 346.235   2
  13 -12   4 653.417 537.060   4
 -13   1   4 964.898 617.989   4
  13 -12   4 245.467 530.243   1
  -1  13   4 662.168 403.369   2
  12 -13   4 830.744 420.232   3
  13 -12   4 910.865 490.090   3
  -1  13   4 1245.19 1088.96   3
 -12  -1   4 1699.01 826.862   1
 -12  -1   4-87.3748 536.937   2
 -13   1   4 99.4786 432.649   2
   1  12   4-764.892 653.199   3
  13 -12   4 95.0354 638.945   2
  12 -13   4 1016.23 743.252   2
 -12  -1   4 926.688 407.308   4
 -13   1   4 462.642 598.768   1
  -1  13   7 5756.32 884.950   2
  13 -12   7 7074.12 1193.01   3
 -12  -1   7 6409.71 1341.17   2
 -13   1   7 6628.68 1307.09   2
  13 -12   7 12301.4 2295.41   4
  12 -13   7 5497.11 966.687   3
   1  12   7 4348.15 870.741   2
 -13   1   7 7293.10 1378.14   4
   1  12   7 6452.89 1708.31   3
  -1  13   7 6838.05 2015.89   3
  12 -13   7 7613.13 1837.51   4
  12 -13   7 9927.97 2186.44   2
  13 -12   7 7235.68 1845.84   2
  -1  13   7 4530.74 933.974   2
 -12  -1   7 3944.73 1057.11   4
   1  12  10 725.081 1342.09   4
  13 -12  10 3225.58 1723.67   2
 -12  -1  10 2025.95 1101.91   2
 -13   1  10 1442.18 1075.24   2
  12 -13  10 2077.91 1491.43   4
  -1  13  10 657.859 1038.90   4
  12 -13  10 19.8362 1109.93   2
  13 -12  10 2914.09 1605.58   4
 -13   1  10 1830.18 1377.29   4
 -12  -1  10 3585.44 1353.16   4
 -13   2  -9 2807.92 1229.78   1
 -11  -2  -9 3400.04 1315.83   1
  11 -13  -9 1983.73 1042.91   1
  13 -11  -9 2402.41 1234.62   1
  13 -11  -6 828.555 414.097   2
 -13   2  -6 742.321 382.998   1
  13 -11  -6 1750.91 722.387   1
   2  11  -6 1110.92 265.540   3
  11 -13  -6 1258.07 671.819   1
   2  11  -6 661.617 291.639   3
 -11  -2  -6 810.461 500.684   1
  13 -11  -3 3163.65 507.485   2
 -11  -2  -3 3661.81 582.417   1
  11 -13  -3 1836.27 260.759   2
   2  11  -3 3151.91 594.923   3
  11 -13  -3 1748.23 290.964   2
  11 -13  -3 4502.20 999.485   1
  13 -11  -3 4368.33 920.183   1
  -2  13   0 1316.60 544.526   2
  13 -11   0 373.320 147.229   4
 -13   2   0 223.476 296.897   4
   2  11   0 444.797 537.576   2
  11 -13   0 196.215 406.704   2
 -11  -2   0-88.8102 416.286   3
   2  11   0-339.332 380.053   3
  -2  13   0 139.994 513.658   3
  13 -11   0 37.9217 251.413   1
 -11  -2   0 1423.58 622.146   2
  13 -11   0 324.951 281.280   3
 -11  -2   0 421.253 288.128   1
  11 -13   0 1309.30 435.227   1
  13 -11   0 752.319 273.118   4
 -11  -2   0 596.947 451.198   4
  11 -13   0 73.4404 134.747   4
  -2  13   0 695.453 527.570   4
   2  11   0 294.479 400.721   4
  11 -13   3 8365.05 1264.25   4
  11 -13   3 9051.18 864.613   3
  13 -11   3 9648.50 1090.13   3
 -13   2   3 10571.7 1338.29   2
 -11  -2   3 7556.01 1197.08   1
   2  11   3 9916.26 1682.14   3
  -2  13   3 12397.9 1919.51   3
  -2  13   3 9325.93 1050.02   2
 -11  -2   3 7732.17 1255.85   2
  13 -11   3 8641.06 1546.39   2
  13 -11   3 8903.71 1140.95   1
   2  11   3 8664.28 1146.68   1
  13 -11   3 9639.24 1426.27   4
  11 -13   3 9149.92 1680.64   2
 -13   2   3 9605.68 1289.95   1
 -11  -2   3 11550.6 1349.56   4
 -13   2   3 7132.28 946.909   4
  -2  13   3 7793.74 980.416   4
   2  11   3 8207.12 1061.98   2
  11 -13   6 3179.07 1227.33   2
 -11  -2   6 1207.66 812.716   2
  -2  13   6 964.263 428.538   2
 -13   2   6 3048.48 934.981   2
 -11  -2   6 1538.92 678.811   4
   2  11   6 1030.55 565.561   2
  11 -13   6 1053.20 516.420   3
   2  11   6 420.431 920.675   3
  -2  13   6-401.164 966.315   3
  11 -13   6 33.1417 678.867   4
  13 -11   6 1678.23 1016.35   4
  13 -11   6 1952.22 1091.42   2
 -13   2   6 459.379 455.944   4
  -2  13   9 1706.94 684.114   2
 -11  -2   9 1626.12 993.674   2
 -13   2   9 1730.48 718.797   2
  13 -11   9 2572.75 1106.71   3
   2  11   9 4590.96 1844.06   3
   2  11   9 1293.12 1036.90   2
   2  11   9 1363.77 1432.45   4
  13 -11   9 725.058 1092.40   2
  -2  13   9 3917.66 1413.84   4
  13 -11   9 3347.88 1445.64   4
  11 -13   9 1993.88 1341.85   4
 -13   2   9 2495.45 1112.77   4
 -11  -2   9 1868.83 877.596   4
  11 -13   9 2774.72 1666.04   2
 -13   3 -10 9835.48 1998.06   1
  13 -10 -10 13310.8 2747.19   1
 -10  -3 -10 11447.5 2123.67   1
  10 -13 -10 10129.0 2425.46   1
  10 -13  -7-257.856 852.836   1
   3  10  -7 671.455 314.594   3
  13 -10  -7 506.890 538.851   2
 -13   3  -7 703.130 469.777   1
  13 -10  -7-87.0025 598.061   1
   3  10  -7 314.422 396.295   3
 -10  -3  -7 490.393 656.928   1
 -10  -3  -4 14592.3 1383.04   1
   3  10  -4 13344.2 1022.83   3
  10 -13  -4 16458.3 1969.57   1
 -13   3  -4 17882.7 1264.17   1
  13 -10  -4 14459.2 1120.30   2
  13 -10  -4 13857.7 1172.84   4
  13 -10  -4 16287.9 1948.72   1
 -10  -3  -1 590.673 200.811   1
  10 -13  -1 1134.12 350.222   1
 -10  -3  -1 615.587 568.122   3
  13 -10  -1 1304.28 547.315   3
   3  10  -1-11.7129 551.368   2
 -13   3  -1 828.488 535.920   3
  10 -13  -1 712.833 428.916   2
  13 -10  -1 978.534 435.591   1
   3  10  -1 1724.98 638.551   3
  13 -10  -1 817.888 192.947   4
  -3  13  -1-290.868 485.831   4
   3  10  -1 670.307 433.887   4
  -3  13  -1 536.989 566.935   2
  10 -13   2 34436.7 1552.24   3
 -10  -3   2 35631.0 2444.94   2
  13 -10   2 38167.9 2096.89   3
 -13   3   2 38064.6 2413.11   2
   3  10   2 35538.7 2836.21   3
 -10  -3   2 35539.6 2117.20   3
  -3  13   2 47423.0 3278.77   3
   3  10   2 33121.2 2087.56   4
  -3  13   2 37665.2 2047.35   2
  13 -10   2 37053.8 2389.16   4
  10 -13   2 38965.1 2850.78   2
  10 -13   2 35051.9 2081.08   4
 -10  -3   2 36582.7 2237.25   4
 -13   3   2 38420.7 2078.08   1
 -13   3   2 37891.1 1951.06   4
 -10  -3   2 34139.0 2159.95   1
  -3  13   2 34032.7 1802.10   4
   3  10   2 34299.4 2201.81   2
  10 -13   5 1514.54 865.150   2
 -13   3   5 543.206 383.012   4
  -3  13   5 889.373 337.026   2
 -10  -3   5 232.967 546.711   2
  13 -10   5 1691.56 628.794   3
  13 -10   5 237.782 488.277   1
 -13   3   5 321.160 414.231   2
  10 -13   5 591.297 300.640   3
   3  10   5 265.588 403.343   2
 -10  -3   5 158.924 452.643   4
  -3  13   5 1547.36 961.431   3
  13 -10   5 1896.05 1046.65   4
  13 -10   5-418.844 691.473   2
  10 -13   5 57.6579 743.949   4
   3  10   5 877.043 750.142   3
  -3  13   8 7753.07 964.082   2
  10 -13   8 13997.5 2646.33   2
  13 -10   8 10833.6 1688.97   3
   3  10   8 12418.1 2388.99   3
 -13   3   8 11581.9 1799.31   2
  -3  13   8 8501.66 2036.23   4
   3  10   8 7273.43 1496.38   2
  13 -10   8 12272.6 2304.90   4
  10 -13   8 9853.71 2136.85   4
  13 -10   8 12823.6 2465.11   2
 -13   3   8 11603.5 1775.28   4
 -10  -3   8 12695.1 2093.94   4
 -10  -3   8 12930.3 2063.99   2
   4   9  -8 1027.53 375.286   3
   9 -13  -8 1897.22 1243.30   1
  -9  -4  -8-391.736 896.561   1
  13  -9  -8 222.811 798.114   1
 -13   4  -8 1366.62 782.127   1
  13  -9  -5 2195.91 613.203   2
  13  -9  -5 2571.47 986.509   1
   4   9  -5 2636.30 495.760   3
  -9  -4  -5 2889.08 784.369   1
  13  -9  -5 3337.20 784.043   4
   9 -13  -5 3496.36 1075.19   1
 -13   4  -5 3471.12 734.040   1
  -4  13  -2 2813.14 887.415   2
   9 -13  -2 3061.78 782.250   1
 -13   4  -2 2173.67 672.478   3
  -9  -4  -2 2094.25 453.197   1
   9 -13  -2 1842.55 368.784   2
  13  -9  -2 2537.02 729.333   1
  13  -9  -2 3019.73 593.464   2
   4   9  -2 1957.24 547.570   3
  13  -9  -2 1898.84 345.859   4
  -4  13  -2 3204.88 804.268   4
  -9  -4   1 16193.3 1431.16   3
  13  -9   1 15052.0 1363.14   3
 -13   4   1 16846.2 1051.99   1
  -9  -4   1 13728.3 1204.79   1
   4   9   1 15637.2 1746.18   3
   4   9   1 17545.3 1613.20   2
 -13   4   1 16215.3 1214.04   4
   9 -13   1 16523.3 1694.53   2
   4   9   1 15442.8 1394.56   4
  13  -9   1 15549.3 1034.43   1
   9 -13   1 16419.6 1187.42   4
  -4  13   1 14461.5 1150.37   4
  -4  13   1 14370.3 1363.52   2
  -9  -4   1 16035.5 1419.51   4
  -9  -4   1 13084.2 1471.54   2
 -13   4   4 6772.40 1086.56   2
  13  -9   4 7041.07 1109.33   3
  13  -9   4 5144.36 1235.95   4
   9 -13   4 5174.06 535.565   3
   4   9   4 7451.35 1522.76   3
   9 -13   4 5205.92 1224.17   2
   4   9   4 5622.32 943.271   2
  13  -9   4 6165.71 1020.03   1
  13  -9   4 6715.17 1551.46   2
   4   9   4 5654.96 926.134   1
  -4  13   4 5449.26 568.876   2
 -13   4   4 5397.73 1094.68   1
   9 -13   4 7728.74 1385.24   4
  -9  -4   4 6806.79 1183.57   4
 -13   4   4 7241.44 1025.34   4
  -4  13   4 6349.10 886.222   4
  -9  -4   4 5530.63 1131.06   2
 -13   4   7 509.060 601.600   4
  -9  -4   7 639.702 805.728   2
  -4  13   7 537.964 236.567   2
 -13   4   7 96.5976 513.273   2
  13  -9   7 469.901 480.455   3
   4   9   7 601.523 715.484   3
  -4  13   7 1232.39 1004.56   4
  -9  -4   7 718.020 947.642   4
  13  -9   7 2691.42 1098.91   4
   9 -13   7 2018.58 1199.87   4
  -4  13   7 361.536 251.841   2
  13  -9   7 256.790 877.392   2
   9 -13   7 2393.92 1380.95   2
  -9  -4  10 2441.52 1356.36   4
  -9  -4  10 2338.39 1236.25   2
 -13   4  10 570.388 768.493   2
   9 -13  10 271.211 986.228   2
  13  -9  10 1621.65 1092.21   3
   4   9  10 945.735 1362.00   3
  -4  13  10 1628.77 1431.05   4
  13  -9  10-115.893 1131.56   4
   9 -13  10 1661.35 1711.02   4
   4   9  10 1267.52 1096.88   2
 -13   4  10-708.602 719.617   4
  13  -9  10 734.331 988.412   2
   4   9  10 2489.53 1830.75   4
   5   8  -9 1288.37 497.282   3
   8 -13  -9 2.30042 810.609   1
 -13   5  -9 796.706 800.666   1
   5   8  -9 619.789 784.177   1
  13  -8  -9 2210.75 1130.91   1
  -8  -5  -9 855.990 1067.58   1
  13  -8  -6 1335.32 492.904   2
   5   8  -6 2056.21 483.222   3
 -13   5  -6 2227.32 685.775   1
  -8  -5  -6 3276.93 982.301   1
  13  -8  -6 2133.88 871.931   1
  13  -8  -6 2864.65 853.777   4
   8 -13  -6 2950.38 1108.88   1
   5   8  -3 6400.16 823.117   3
  13  -8  -3 7195.21 890.740   2
   8 -13  -3 5884.77 1172.88   1
  13  -8  -3 6747.91 800.530   4
  -5  13  -3 5592.76 1169.02   4
  -8  -5  -3 4895.98 817.241   1
 -13   5  -3 5442.46 992.684   3
  13  -8  -3 7512.25 1187.75   1
  13  -8   0 3961.74 719.060   3
 -13   5   0 2899.84 704.429   3
  -5  13   0 2935.26 732.974   2
  -8  -5   0 3135.71 705.290   3
   5   8   0 3783.47 852.179   2
   5   8   0 1546.59 545.899   3
  -8  -5   0 3180.25 798.460   2
   8 -13   0 3881.51 510.382   4
  -8  -5   0 3986.77 774.213   4
  -5  13   0 3726.19 685.122   4
  13  -8   0 3136.35 532.379   1
   8 -13   0 2009.49 541.490   1
  13  -8   0 3111.30 454.260   4
   5   8   0 2652.58 651.022   4
   8 -13   0 2850.39 655.802   2
   8 -13   3 5971.74 522.682   3
  13  -8   3 5967.79 941.917   3
 -13   5   3 5644.42 880.684   2
   5   8   3 6651.69 1347.94   3
  -8  -5   3 5813.38 1112.95   2
  -5  13   3 4927.68 552.396   2
  -5  13   3 5760.85 728.524   4
  13  -8   3 6974.42 878.085   1
   8 -13   3 6328.97 1301.83   2
  -8  -5   3 7038.37 1200.62   1
   5   8   3 6397.03 837.381   1
   8 -13   3 6836.24 1082.56   4
 -13   5   3 7019.75 1077.40   1
 -13   5   3 6323.90 816.137   4
   5   8   3 7644.35 1062.93   2
  -8  -5   3 8239.63 1158.01   4
  -8  -5   6 1612.85 887.760   2
  13  -8   6 1027.71 963.152   4
 -13   5   6 2211.55 708.900   2
  13  -8   6 151.837 534.933   3
   5   8   6 442.043 644.399   3
  13  -8   6 515.048 621.276   2
   8 -13   6 2333.35 937.724   4
 -13   5   6 566.062 479.664   4
   8 -13   6-640.456 650.356   2
  -8  -5   6 1012.59 729.282   4
   5   8   9-366.240 774.054   2
 -13   5   9 892.664 864.709   4
  -8  -5   9-204.579 1054.87   2
 -13   5   9 771.692 692.126   2
  13  -8   9 882.876 848.272   3
   5   8   9 1977.52 1316.37   3
  -5  13   9 228.194 948.128   4
  13  -8   9 2139.58 1678.41   4
  13  -8   9 301.684 995.031   2
   8 -13   9 3203.24 1374.18   4
  -8  -5   9 1192.60 1085.46   4
   8 -13   9 2654.65 1196.00   2
  -7  -6 -10 4523.29 1562.36   1
   6   7 -10 1771.26 691.927   3
  13  -7 -10 4270.86 1704.14   1
 -13   6 -10 1680.10 1032.37   1
   6   7 -10 174.273 857.965   1
   7 -13 -10 1873.88 1495.95   1
   6   7  -7 1302.94 865.965   1
   6   7  -7 1010.19 390.877   3
  13  -7  -7 1918.02 990.277   1
  -7  -6  -7-606.730 665.303   1
  13  -7  -7 938.812 704.155   2
 -13   6  -7 142.986 485.041   1
   7 -13  -7 607.736 742.264   1
   6   7  -4 10491.6 1081.73   3
  13  -7  -4 10575.6 1536.99   1
   7 -13  -4 10341.6 1590.88   1
  -7  -6  -4 9835.20 1249.25   1
  13  -7  -4 10038.2 1260.04   4
  13  -7  -4 9712.20 1122.40   2
   7 -13  -1 5770.72 554.524   4
  13  -7  -1 6093.92 927.880   3
  -7  -6  -1 4697.39 908.984   3
  13  -7  -1 6782.61 915.357   2
  -7  -6  -1 7167.75 1013.32   2
   6   7  -1 5811.72 934.730   3
   6   7  -1 4855.45 926.646   2
  13  -7  -1 4930.77 590.459   4
 -13   6  -1 5052.81 831.605   3
   7 -13  -1 5041.32 959.271   3
  -7  -6  -1 4804.02 607.494   1
  -6  13  -1 5187.01 881.721   4
   7 -13  -1 4640.48 868.083   1
   7 -13  -1 6156.55 781.273   2
  -6  13  -1 5658.72 1053.83   2
   6   7  -1 5711.07 962.991   4
  13  -7  -1 5625.79 768.076   1
  -7  -6  -1 5099.97 865.947   4
  -7  -6   2 7292.23 1190.09   2
  13  -7   2 9051.24 1122.85   3
   6   7   2 8145.38 1138.11   2
  -7  -6   2 9209.64 1147.22   4
  13  -7   2 9509.52 820.862   1
   6   7   2 6276.01 1195.55   3
  -7  -6   2 7814.93 1102.76   1
   7 -13   2 9856.05 889.728   3
  -7  -6   2 9900.67 1015.62   3
 -13   6   2 7969.86 732.413   4
   7 -13   2 8736.66 1295.48   2
  -6  13   2 8577.19 814.176   2
   7 -13   2 8705.93 1054.66   4
 -13   6   2 9730.35 1071.43   1
  -6  13   2 9741.56 813.713   4
   6   7   2 7910.77 1047.99   4
  -7  -6   5 2702.13 1016.28   2
  13  -7   5 2825.90 862.464   3
 -13   6   5 2690.21 664.960   2
   6   7   5 2866.83 1177.92   3
  13  -7   5 4608.12 1464.99   4
  13  -7   5 2864.16 774.507   1
   7 -13   5 3644.16 1072.35   4
 -13   6   5 2921.65 717.336   4
  -7  -6   5 2924.75 843.787   4
   7 -13   5 3586.13 1266.94   2
  -7  -6   8 2627.14 1176.79   2
  13  -7   8 2929.51 1594.07   2
 -13   6   8 2652.00 924.138   2
 -13   6   8 2640.39 1002.69   4
  13  -7   8 4109.10 1217.29   3
   6   7   8 564.071 852.285   3
  13  -7   8 1565.41 1247.91   4
   6   7   8 1201.91 980.751   2
   7 -13   8 1619.10 1182.68   4
  -7  -6   8 4383.46 1264.32   4
  -6  13   8 1067.57 1015.08   4
   7 -13   8 3802.08 1396.69   2
  13  -6  -8 1187.57 1090.38   1
   6 -13  -8 1558.35 1324.19   1
   7   6  -8 2524.01 754.861   3
   7   6  -8 2874.20 1106.32   1
  -6  -7  -8 3648.03 1179.89   1
 -13   7  -8 2347.17 884.994   1
  13  -6  -5 2533.67 700.034   2
   7   6  -5 3743.10 672.486   3
  -6  -7  -5 3677.30 953.349   1
   6 -13  -5 4004.44 1223.30   1
  13  -6  -5 3591.05 1011.84   1
  13  -6  -5 3333.01 930.505   4
  13  -6  -2 12111.5 1345.36   3
 -13   7  -2 9197.84 1128.04   3
  -6  -7  -2 11702.7 1568.42   3
  13  -6  -2 10095.9 1093.87   2
   6 -13  -2 9121.58 1477.12   3
  -7  13  -2 10095.1 1277.85   4
  -6  -7  -2 9369.89 1170.42   2
  -7  13  -2 12971.7 1672.84   2
   6 -13  -2 9814.37 1255.09   1
  -6  -7  -2 8889.68 991.044   1
  13  -6  -2 9889.07 953.716   4
   7   6  -2 10430.7 1165.64   3
  13  -6  -2 10261.9 1179.77   1
   6 -13  -2 10012.6 767.022   2
   7   6   1 4320.83 929.524   2
  -6  -7   1 6429.16 1078.74   2
  13  -6   1 5230.11 847.132   3
  -6  -7   1 5357.55 754.915   3
   7   6   1 5978.50 1078.85   3
   6 -13   1 4071.22 675.708   3
   7   6   1 6213.95 958.528   4
   6 -13   1 6186.17 803.254   4
  -7  13   1 6223.33 856.572   2
 -13   7   1 4961.95 610.103   1
  13  -6   1 5649.71 700.427   4
   6 -13   1 5591.16 1057.49   2
  -7  13   1 5563.75 609.289   4
  -6  -7   1 5511.44 864.132   4
  13  -6   1 4859.84 434.878   1
  13  -6   4 11067.7 1512.19   3
   7   6   4 8387.76 1228.84   2
  -6  -7   4 10021.3 1526.03   2
 -13   7   4 11060.1 1149.63   2
  13  -6   4 10286.4 1150.83   1
   7   6   4 11281.8 1764.57   3
   6 -13   4 9654.21 1422.92   4
   6 -13   4 10343.7 1702.17   2
 -13   7   4 11583.6 1121.20   4
   7   6   4 9913.53 1099.79   1
  -6  -7   4 10160.5 1398.95   4
 -13   7   4 7966.87 1310.64   1
   6 -13   7 47.1563 936.235   2
  13  -6   7 1907.66 1059.12   2
  -6  -7   7 600.752 871.483   2
 -13   7   7 1877.64 720.744   2
  13  -6   7 955.681 655.651   3
   7   6   7 1720.85 893.267   3
  13  -6   7 1953.85 1137.07   4
  -7  13   7 2693.65 1223.46   4
   6 -13   7 2103.54 1026.40   4
 -13   7   7 1917.62 776.053   4
  -6  -7   7 384.914 614.437   4
   6 -13  10 6789.79 2115.85   2
  -7  13  10 2215.69 1566.24   4
  -6  -7  10 4015.85 1667.66   2
 -13   7  10 2315.21 917.507   2
   6 -13  10 3646.15 1531.14   4
  13  -6  10 1132.75 1144.70   3
   7   6  10 3751.23 1784.09   3
   7   6  10 5909.15 2163.36   4
  13  -6  10 5816.32 2163.75   4
   7   6  10 3420.35 1456.22   2
  13  -6  10 4824.25 1968.21   2
 -13   7  10 5694.01 1541.65   4
  -6  -7  10 4290.82 1624.30   4
   8   5  -9 1275.82 546.567   3
   5 -13  -9 2058.62 1353.65   1
  13  -5  -9 655.725 1018.35   1
   8   5  -9 960.348 728.892   1
  -5  -8  -9 1171.49 1221.07   1
   8   5  -6 1521.54 848.856   1
  -5  -8  -6 2411.19 904.341   1
   8   5  -6 1477.21 474.303   3
  13  -5  -6 2946.52 994.393   1
   5 -13  -6 1233.65 928.417   1
  13  -5  -6 512.002 653.988   2
   5 -13  -3 5223.90 1011.49   1
  13  -5  -3 6073.77 984.944   3
 -13   8  -3 5654.78 921.112   3
  13  -5  -3 5194.17 989.977   1
  -8  13  -3 6252.92 1199.91   4
  13  -5  -3 6663.72 960.809   4
  -5  -8  -3 5989.62 926.100   1
   8   5  -3 6548.17 895.776   3
  13  -5  -3 6750.98 979.384   2
  -5  -8   0 2550.64 572.569   4
  -8  13   0 3583.77 807.581   2
  13  -5   0 4227.52 874.989   2
  13  -5   0 2124.33 709.516   3
  13  -5   0 3884.64 582.783   4
  -5  -8   0 3066.16 696.079   3
   8   5   0 2945.56 785.532   2
   8   5   0 2816.74 754.175   3
  -5  -8   0 3193.62 793.846   2
   8   5   0 2944.31 636.583   4
   5 -13   0 4407.01 779.442   3
   5 -13   0 3139.00 678.574   2
   5 -13   0 4607.54 882.457   1
  -8  13   0 2694.61 521.627   4
   5 -13   0 3097.11 541.491   4
  13  -5   0 2936.47 399.117   1
  -5  -8   3 5819.83 1122.92   2
  -5  -8   3 6751.88 766.859   3
  -5  -8   3 6849.21 1187.63   1
  13  -5   3 7562.42 1224.10   3
   8   5   3 6983.88 1370.94   3
   8   5   3 7015.10 1099.54   2
 -13   8   3 7365.50 709.937   4
   8   5   3 6226.17 759.038   1
   5 -13   3 7865.09 1375.48   2
   5 -13   3 9497.90 1253.71   4
 -13   8   3 8650.47 1223.87   1
  -5  -8   3 7500.92 1092.14   4
  -8  13   3 7914.59 658.572   4
  13  -5   3 7197.07 748.692   1
   5 -13   6 4072.15 1275.29   4
   5 -13   6 2808.18 1104.22   2
  13  -5   6 3634.25 916.997   1
  -5  -8   6 3016.01 1092.09   4
  13  -5   6 2240.59 925.838   3
  -5  -8   6 2240.10 993.479   2
 -13   8   6 2081.28 580.029   2
   8   5   6 3494.11 1184.52   3
 -13   8   6 2214.09 731.886   4
  -8  13   6 3100.66 1000.61   4
  13  -5   9 1090.45 1001.31   2
   5 -13   9 2505.40 1386.50   2
 -13   8   9 736.967 682.247   2
  -8  13   9 432.364 1243.26   4
  13  -5   9 2428.86 1240.59   3
   8   5   9 1524.88 1252.60   3
  13  -5   9 1284.16 907.068   4
   5 -13   9 1936.73 1048.99   4
   8   5   9 996.131 807.014   2
 -13   8   9 1156.39 783.796   4
  -5  -8   9 1970.76 1124.00   4
  -5  -8   9 2005.97 1077.91   2
   9   4 -10 1990.09 916.149   3
   9   4 -10 872.782 1308.72   1
   4 -13 -10-572.699 1213.09   1
  13  -4 -10 2059.04 1297.18   1
  -4  -9 -10 588.924 1017.64   1
  -9  13  -7 488.859 208.519   3
  -4  -9  -7 1272.61 902.536   1
   9   4  -7 1269.39 907.573   1
  13  -4  -7 2037.36 659.471   1
   4 -13  -7 1796.31 1111.15   1
   9   4  -7 826.757 387.461   3
  13  -4  -4 8459.59 1240.91   3
 -13   9  -4 6134.82 927.330   3
   9   4  -4 8242.39 1059.93   3
  13  -4  -4 5569.75 1029.04   4
   4 -13  -4 3632.97 1009.93   1
   9   4  -4 8157.87 1280.61   1
  -4  -9  -4 4169.90 910.995   1
  13  -4  -4 6610.97 1059.64   2
  13  -4  -4 4115.61 956.103   1
  13  -4  -1 17446.4 1586.45   3
  -4  -9  -1 16352.4 1470.66   2
  -4  -9  -1 15763.8 1618.02   3
  13  -4  -1 13580.4 1010.86   1
   9   4  -1 15624.9 1494.82   4
   9   4  -1 16984.1 1554.35   3
  -9  13  -1 15820.8 1350.60   4
  -4  -9  -1 12658.7 1129.89   1
   4 -13  -1 16744.0 1600.54   1
   4 -13  -1 15421.8 1259.91   2
  13  -4  -1 13191.9 1170.31   4
   4 -13  -1 12440.7 1041.48   4
  -4  -9  -1 15715.3 1375.85   4
   4 -13  -1 16266.4 1689.35   3
  13  -4  -1 15856.3 1474.77   2
   9   4  -1 17189.2 1762.38   2
   4 -13   2 2693.65 790.808   2
  -4  -9   2 2623.05 490.718   3
 -13   9   2 1356.84 511.405   1
  -4  -9   2 2316.14 715.437   2
  13  -4   2 2782.46 779.902   3
   9   4   2 872.441 570.572   3
   4 -13   2 2206.34 413.839   3
  -4  -9   2 2983.04 707.315   4
   9   4   2 2079.76 715.689   2
  -9  13   2 1444.72 239.161   4
  -9  13   2 1561.10 560.065   1
 -13   9   2 1678.90 260.639   4
   4 -13   2 2100.71 595.096   4
   9   4   5 2749.40 685.688   1
 -13   9   5 2996.87 621.853   2
  -4  -9   5 3690.15 1058.96   2
   4 -13   5 3210.55 989.479   4
  13  -4   5 3032.30 901.825   3
   9   4   5 1869.67 984.886   3
  -9  13   5 2719.96 796.734   4
 -13   9   5 3625.93 704.277   4
  -4  -9   5 3335.46 1020.60   4
   4 -13   5 2956.51 1020.86   2
  13  -4   5 1819.50 621.678   1
  -4  -9   8 2521.62 1092.01   2
   4 -13   8 2459.88 1265.29   2
 -13   9   8 2167.16 864.385   4
 -13   9   8 222.287 416.218   2
  13  -4   8 1165.04 1097.19   3
   9   4   8 2704.77 1317.00   3
  13  -4   8 192.469 766.233   4
  -4  -9   8 2372.73 1133.70   4
  13  -4   8 2564.30 1178.41   2
   4 -13   8 2383.18 1253.52   4
  -9  13   8 3219.37 1229.64   4
   3 -13  -8 6687.23 1919.67   1
  10   3  -8 12303.0 2139.80   1
  -3 -10  -8 9062.06 1754.13   1
  10   3  -8 11706.7 1533.89   3
  13  -3  -8 10575.1 2046.83   1
  13  -3  -5 557.652 439.583   3
  10   3  -5 404.238 573.699   1
  13  -3  -5-81.8711 455.702   1
  -3 -10  -5 1432.47 728.222   1
   3 -13  -5 670.899 693.438   1
  10   3  -5 775.455 475.998   3
 -13  10  -5 901.725 537.377   3
   3 -13  -2 35478.0 1655.75   2
  13  -3  -2 35665.4 2342.51   3
  10   3  -2 35884.2 2206.27   3
   3 -13  -2 34318.6 2588.51   3
  -3 -10  -2 33505.2 2003.48   2
  13  -3  -2 36492.3 1967.49   1
 -10  13  -2 33393.7 2264.53   4
   3 -13  -2 31720.0 2282.64   1
  -3 -10  -2 36390.5 2121.33   1
  13  -3  -2 34943.8 2046.79   4
  10   3  -2 33031.2 2275.90   4
  13  -3  -2 30887.1 2143.19   2
  -3 -10  -2 35901.5 2708.93   3
  13  -3   1 1348.98 468.333   4
   3 -13   1 341.807 440.754   2
  13  -3   1-51.4945 465.588   3
  -3 -10   1 980.000 462.762   3
  -3 -10   1 437.938 471.341   2
  10   3   1 1366.23 738.282   3
  10   3   1 67.7321 321.028   4
   3 -13   1 1831.01 525.859   3
  10   3   1 1048.11 501.994   2
  13  -3   1 762.759 424.311   2
 -13  10   1 787.665 319.071   1
   3 -13   1 322.026 305.786   4
  -3 -10   1 715.390 418.219   4
 -13  10   4 16954.0 1127.77   4
  13  -3   4 14184.5 1788.60   3
  10   3   4 17953.8 2171.89   3
 -10  13   4 15153.5 1211.58   4
  10   3   4 16169.0 1231.02   1
   3 -13   4 14801.4 1720.83   4
   3 -13   4 16591.6 2145.36   2
  -3 -10   4 17768.8 1876.41   4
  -3 -10   4 13093.5 1780.60   2
  13  -3   4 16366.1 1243.32   1
  -3 -10   7-191.796 861.731   2
   3 -13   7 174.090 817.035   2
  13  -3   7 683.844 617.141   3
  10   3   7-395.858 791.554   3
 -13  10   7 106.053 369.051   2
 -13  10   7-662.357 597.619   4
 -10  13   7-360.114 589.213   4
   3 -13   7 669.670 689.818   4
  -3 -10   7 826.642 822.330   4
  10   3  10 4836.31 2026.06   4
  13  -3  10 9628.61 2646.29   4
   3 -13  10 11340.3 2395.20   2
  -3 -10  10 10633.9 2271.34   2
 -13  10  10 10959.6 1971.08   4
  13  -3  10 9412.43 2073.65   3
  10   3  10 8496.15 2197.40   3
  13  -3  10 11099.9 2507.89   2
 -10  13  10 14424.6 2462.69   4
  -3 -10  10 13393.0 2538.67   4
   3 -13  10 10517.0 2448.49   4
  10   3  10 7543.81 1897.98   2
  13  -2  -9-229.469 821.353   1
  11   2  -9 1907.32 866.622   3
  -2 -11  -9 1354.03 1147.63   1
  11   2  -9 1919.53 1158.65   1
   2 -13  -9 2476.14 1404.80   1
 -11  13  -6 1317.04 419.268   3
  13  -2  -6 359.913 445.056   3
  11   2  -6 1014.85 597.935   3
 -13  11  -6 979.794 545.248   3
  -2 -11  -6 1464.31 876.559   1
  13  -2  -6 2849.94 951.456   1
  11   2  -6 1550.97 803.850   1
   2 -13  -6 829.394 971.362   1
 -13  11  -3 7833.77 996.343   3
  13  -2  -3 7183.64 1105.39   3
   2 -13  -3 5694.86 1121.68   1
   2 -13  -3 7200.95 772.686   2
  11   2  -3 9499.96 1206.00   1
  13  -2  -3 8154.29 1111.68   1
  13  -2  -3 6199.57 1072.06   4
  -2 -11  -3 7699.48 1150.75   1
  11   2  -3 8435.23 1095.42   3
  13  -2  -3 6821.55 1100.52   2
  -2 -11   0 640.071 431.638   4
   2 -13   0 821.611 376.849   4
   2 -13   0 1074.69 452.222   2
  13  -2   0 1025.33 637.836   3
  11   2   0 1400.07 659.990   3
  -2 -11   0-439.238 434.897   2
  -2 -11   0 886.351 537.437   3
  13  -2   0 566.112 303.079   4
  13  -2   0 879.372 480.427   2
  11   2   0 980.189 465.415   4
   2 -13   0 1073.03 492.353   3
  -2 -11   3 2959.54 441.765   3
   2 -13   3 3229.72 905.349   2
  13  -2   3 2788.52 347.278   1
  -2 -11   3 3248.77 937.936   2
   2 -13   3 2732.14 267.633   3
  13  -2   3 3750.49 890.328   3
  11   2   3 3720.61 1006.43   3
 -13  11   3 2880.56 774.709   1
   2 -13   3 3721.71 801.127   4
  11   2   3 3381.02 468.491   1
  -2 -11   3 3794.32 979.007   4
 -13  11   3 2461.30 274.630   4
   2 -13   6 1549.32 803.564   2
  11   2   6 823.982 622.723   1
  13  -2   6 2282.33 969.949   3
  11   2   6 2525.87 1085.34   3
  13  -2   6 2151.32 727.659   1
 -11  13   6 699.839 535.987   4
 -13  11   6 1004.54 496.001   4
   2 -13   6 2897.72 946.558   4
  -2 -11   6 1593.60 928.810   2
  -2 -11   6 2232.28 934.943   4
   2 -13   9 1409.38 835.116   2
  -2 -11   9 2311.39 1314.19   2
   2 -13   9 4824.76 1599.49   4
  11   2   9 2694.64 1534.43   4
 -13  11   9 1800.95 495.336   2
  13  -2   9 1617.95 966.189   3
  11   2   9 4072.09 1700.03   3
  13  -2   9 5020.58 1833.62   4
  13  -2   9 3252.10 1404.04   2
  11   2   9 2554.02 1370.70   2
 -11  13   9 2829.89 1274.09   4
 -13  11   9 2567.74 1075.20   4
  -2 -11   9 4977.01 1563.52   4
  13  -1 -10 1212.95 1083.09   1
  13  -1 -10 692.319 706.185   3
  12   1 -10-33.5887 648.275   3
   1 -13 -10 1962.77 1096.75   1
  -1 -12 -10 2062.15 1427.38   1
  12   1 -10 3625.97 1550.03   1
  12   1  -7 8090.48 1393.39   3
 -12  13  -7 4923.12 742.638   3
  12   1  -7 7135.19 1553.03   1
  13  -1  -7 6099.03 1222.03   3
  -1 -12  -7 4978.73 1494.62   1
 -13  12  -7 5293.34 960.991   3
  13  -1  -7 8095.35 1583.55   1
   1 -13  -7 3924.43 1315.77   1
  13  -1  -4-209.578 350.947   3
 -13  12  -4 247.883 349.462   3
  12   1  -4 620.485 517.488   3
   1 -13  -4 282.970 382.371   1
  -1 -12  -4 1054.03 551.372   1
  12   1  -4 1105.47 508.597   1
  13  -1  -4 1373.27 595.158   1
  -1 -12  -1 6410.31 906.261   4
  12   1  -1 6064.85 1010.59   3
  -1 -12  -1 5957.89 1101.36   3
  13  -1  -1 4528.29 796.151   4
   1 -13  -1 5714.88 889.794   2
  -1 -12  -1 6790.56 947.922   2
   1 -13  -1 5647.75 1123.72   3
  -1 -12  -1 6107.80 984.175   1
   1 -13  -1 7508.25 1089.88   1
   1 -13  -1 7803.01 984.906   4
  12   1  -1 6600.88 955.856   4
  13  -1  -1 4972.68 898.517   3
   1 -13   2 1988.84 595.495   2
  -1 -12   2 1102.88 591.923   2
  -1 -12   2 1742.16 384.237   3
   1 -13   2 2229.14 398.961   3
  13  -1   2 2401.86 846.389   3
  12   1   2 1614.64 669.774   3
  -1 -12   2 2910.81 779.839   4
 -12  13   2 2127.56 605.310   1
 -13  12   2 1844.53 643.138   1
   1 -13   2 1371.20 531.242   4
   1 -13   5 744.000 589.784   4
  -1 -12   5 2814.93 882.845   4
   1 -13   5 1460.80 864.035   2
  -1 -12   5 1315.70 766.938   2
  12   1   5 3252.18 1061.58   3
  12   1   5 952.440 511.123   1
  13  -1   5 1343.72 546.075   1
  13  -1   5 720.698 741.447   3
 -13  12   5 1257.51 455.304   4
 -12  13   5 1640.23 520.463   4
  -1 -12   8 1704.49 1226.68   2
  13  -1   8 847.942 964.746   3
  12   1   8-886.144 1238.68   3
   1 -13   8 623.235 1050.28   4
  13  -1   8 386.066 816.343   2
 -12  13   8 194.116 656.289   4
   1 -13   8 1476.07 1119.53   2
  -1 -12   8 612.619 798.363   4
 -13  12   8 776.312 766.183   4
  13   0  -8 14590.2 1889.58   3
  13   0  -8 11788.2 2096.71   1
  13   0  -5-696.813 575.903   1
 -13  13  -5 70.7866 361.592   3
  13   0  -5-31.8846 515.476   3
   0 -13  -5-677.447 468.368   1
  13   0  -2 13973.8 1505.49   4
  13   0  -2 15730.4 1342.85   1
   0 -13  -2 13457.9 1453.80   1
   0 -13  -2 16642.4 1334.51   2
  13   0  -2 17278.0 1685.57   3
   0 -13   1 277.155 439.904   2
  13   0   1 148.756 474.782   3
   0 -13   1 753.203 483.082   4
   0 -13   1-664.052 383.593   3
  13   0   4 35549.8 2967.30   3
  13   0   4 32951.0 1528.77   1
   0 -13   4 35413.4 2663.40   4
 -13  13   4 28421.8 1208.78   4
   0 -13   4 38466.9 3112.91   2
 -13  13   7 548.952 554.944   4
  13   0   7-367.892 721.541   3
   0 -13   7 1413.14 940.485   4
  13   0  10 4407.21 1674.88   3
   0 -13  10 7790.58 2173.16   2
  13   0  10 5587.67 2156.14   4
  13   0  10 7645.45 2169.73   2
 -13  13  10 6180.83 1667.85   4
   0 -13  10 6403.05 1851.55   4
  14 -14  -8 1823.02 932.897   1
 -14   0  -8 2580.17 946.033   1
  14 -14  -5 915.694 983.016   1
 -14   0  -5 678.707 355.737   1
  14 -14  -2 3791.59 935.605   1
  14 -14  -2 4630.05 752.992   2
 -14   0   1 770.250 338.396   1
  14 -14   1 404.558 481.081   2
 -14   0   1-227.397 363.689   4
  14 -14   1 68.4892 350.109   3
   0  14   1 920.054 618.984   3
 -14   0   1-251.695 465.522   2
  14 -14   1 58.0749 228.356   4
  14 -14   1 254.101 303.626   1
   0  14   1 675.946 682.386   2
   0  14   4 1165.53 597.179   2
 -14   0   4 481.830 496.269   2
   0  14   4 3068.81 1082.27   3
  14 -14   4 962.367 703.254   4
  14 -14   4 2106.59 770.417   2
  14 -14   4 718.582 452.959   3
 -14   0   4 803.718 562.541   4
 -14   0   7-288.434 648.036   4
   0  14   7 831.001 509.721   2
 -14   0   7 448.695 626.523   2
  14 -14   7 234.895 454.558   3
   0  14   7-1655.52 1145.23   3
  14 -14   7-1246.37 932.686   4
  14 -14   7-1462.35 1186.98   2
 -14   0  10 3516.16 1512.71   2
   0  14  10 2623.70 1605.05   4
  14 -14  10 1970.27 1276.19   2
  14 -14  10 5695.45 2033.98   4
 -14   0  10-145.959 785.068   4
  13 -14  -9 999.744 903.485   1
 -14   1  -9 1866.61 1021.33   1
  14 -13  -9 2901.07 1516.95   1
 -13  -1  -9 2531.54 961.288   1
  14 -13  -6 758.614 986.065   1
 -13  -1  -6 988.529 545.852   1
  14 -13  -6 383.381 144.947   2
 -14   1  -6 406.748 405.308   1
  13 -14  -6 68.2185 803.013   1
  14 -13  -3 4571.23 593.434   2
  13 -14  -3 3781.22 445.938   2
  14 -13  -3 5588.98 1166.77   1
 -13  -1  -3 3634.69 477.321   1
  -1  14  -3 4765.55 621.117   3
  13 -14  -3 4620.56 1028.32   1
   1  13  -3 4198.26 647.101   3
  13 -14  -3 3608.26 530.644   2
  14 -13   0 2111.42 560.239   1
 -13  -1   0 2836.67 661.406   4
  -1  14   0 2387.87 827.714   2
 -14   1   0 1580.69 547.442   4
  14 -13   0 2245.13 586.171   3
   1  13   0 2345.06 677.254   2
 -13  -1   0 1964.46 362.259   1
  -1  14   0 2908.87 741.489   4
   1  13   0 3633.78 981.961   3
  -1  14   0 2276.42 797.033   3
 -13  -1   0 3071.51 829.331   2
  14 -13   0 1917.60 352.878   4
  13 -14   0 1515.32 252.779   4
  13 -14   0 2787.51 770.013   2
  13 -14   0 2502.32 649.584   1
 -14   1   3 5059.99 1012.06   1
  14 -13   3 4127.91 774.913   3
 -13  -1   3 4459.46 992.643   1
  13 -14   3 4406.73 684.098   3
  -1  14   3 4017.18 847.184   2
   1  13   3 3626.24 765.073   2
 -13  -1   3 3795.26 892.647   2
 -14   1   3 4833.58 1029.68   2
   1  13   3 5868.42 1373.28   3
  -1  14   3 1772.38 876.450   3
  13 -14   3 5550.93 1017.68   4
  14 -13   3 3625.86 887.888   4
  14 -13   3 3419.72 1150.67   2
  13 -14   3 4443.86 1206.51   2
 -13  -1   3 3879.55 909.688   4
 -14   1   3 4582.92 881.652   4
 -14   1   6 18.8440 500.732   4
  13 -14   6 267.013 590.259   4
  -1  14   6 62.8957 350.695   2
   1  13   6 109.053 453.677   2
 -13  -1   6-24.7190 623.789   2
 -14   1   6-288.127 542.349   2
  14 -13   6 901.128 517.453   3
  13 -14   6 685.800 500.568   3
   1  13   6 809.912 1153.91   3
  -1  14   6 478.874 1030.13   3
  14 -13   6 1401.09 852.163   4
  14 -13   6-321.247 726.815   2
  13 -14   6 247.317 759.187   2
 -13  -1   6 1089.76 721.936   4
   1  13   9 2663.09 973.497   2
 -13  -1   9 2712.33 1246.49   2
 -14   1   9 1598.42 1110.97   2
  14 -13   9 620.183 1005.03   2
 -14   1   9 1997.62 1146.04   4
  13 -14   9 2607.03 1602.77   2
  14 -13   9 1521.48 953.227   3
 -13  -1   9 529.445 773.282   4
   1  13   9 3273.78 1876.23   3
  -1  14   9 3638.95 1771.15   4
  14 -13   9 1413.25 1176.38   4
  13 -14   9 2864.75 1423.87   4
  14 -12 -10 2043.71 1362.62   1
  12 -14 -10 1277.04 1022.66   1
 -12  -2 -10 1481.64 1136.79   1
 -14   2 -10 1706.25 1053.71   1
  12 -14  -7 9571.53 1970.86   1
 -12  -2  -7 4555.61 1132.92   1
  14 -12  -7 6368.04 1703.59   1
 -14   2  -7 6717.17 1206.94   1
   2  12  -4 3351.31 533.661   3
 -14   2  -4 4481.95 638.182   1
 -12  -2  -4 3721.43 678.860   1
  12 -14  -4 4751.86 1159.57   1
  14 -12  -4 3787.28 566.684   2
  14 -12  -4 2975.23 1056.63   1
  -2  14  -1 9189.02 1241.69   3
 -12  -2  -1 5541.33 491.847   1
   2  12  -1 9248.83 1210.14   3
  12 -14  -1 7909.76 1038.13   2
  -2  14  -1 8038.86 1390.06   2
  12 -14  -1 8874.95 1199.68   1
 -12  -2  -1 5633.53 457.764   1
  -2  14  -1 6671.60 1113.03   4
  14 -12  -1 8984.23 1146.06   1
  12 -14   2 4385.51 642.037   3
  14 -12   2 4977.89 780.812   3
 -14   2   2 5971.92 1084.80   2
   2  12   2 4070.44 885.436   2
   2  12   2 6626.78 1381.98   3
  -2  14   2 5992.61 1352.33   3
 -12  -2   2 6897.88 1120.11   2
  -2  14   2 5169.99 835.563   4
  14 -12   2 6846.62 1044.79   4
  12 -14   2 6285.89 976.330   4
  14 -12   2 4957.96 1099.44   2
 -12  -2   2 5890.69 986.689   4
  -2  14   2 4857.28 887.839   2
  12 -14   2 4538.60 1198.35   2
 -14   2   2 5502.40 828.368   4
 -14   2   2 7103.16 967.439   1
 -12  -2   2 5887.50 951.793   1
 -12  -2   5 17141.1 1996.25   2
   2  12   5 12229.4 1318.78   2
 -14   2   5 14915.6 1783.58   2
  14 -12   5 16275.1 1596.07   3
  12 -14   5 13599.4 1141.98   3
 -12  -2   5 14870.1 1772.90   4
   2  12   5 15614.5 2397.71   3
  -2  14   5 20546.7 2773.77   3
  14 -12   5 17818.3 2269.48   4
  14 -12   5 17410.0 2530.81   2
  12 -14   5 14692.4 2028.09   4
  12 -14   5 16845.8 2460.08   2
 -14   2   5 13429.5 1606.25   4
  -2  14   5 14115.4 1157.42   2
  12 -14   8 5240.56 1847.77   2
  14 -12   8 4558.66 1615.19   4
   2  12   8 3842.69 1100.08   2
 -12  -2   8 5067.22 1349.16   2
 -14   2   8 5300.22 1371.10   2
  14 -12   8 3732.26 1112.40   3
  12 -14   8 5940.38 1617.46   4
  12 -14   8 2212.01 546.391   3
   2  12   8 2645.71 1702.60   3
 -12  -2   8 6567.90 1551.69   4
  14 -12   8 6010.75 1784.28   2
  -2  14   8 2505.29 652.677   2
 -14   2   8 6561.63 1435.34   4
 -11  -3  -8 226.131 608.254   1
  11 -14  -8 1162.30 754.242   1
   3  11  -8 856.922 345.204   3
  14 -11  -8 1238.87 929.582   1
 -14   3  -8 2207.08 872.105   1
  14 -11  -5 3182.18 1014.86   1
  14 -11  -5 2142.66 508.540   2
 -14   3  -5 2697.59 637.622   1
   3  11  -5 1986.68 437.305   3
 -11  -3  -5 2038.84 655.563   1
  11 -14  -5 1878.11 875.074   1
  11 -14  -2 3737.61 847.062   1
  11 -14  -2 4437.80 606.068   2
   3  11  -2 4115.41 793.689   3
  14 -11  -2 3187.46 692.056   1
  14 -11  -2 3158.23 551.425   2
 -11  -3  -2 3721.38 516.556   1
  -3  14  -2 3922.05 914.823   4
  -3  14   1 4098.44 824.745   2
 -11  -3   1 4521.73 859.117   3
  14 -11   1 5121.20 787.726   3
   3  11   1 4550.94 945.071   2
  -3  14   1 3898.82 719.587   4
  -3  14   1 5525.00 1165.27   3
   3  11   1 3780.04 982.100   3
 -11  -3   1 3646.08 928.169   2
 -11  -3   1 3599.90 666.096   1
  14 -11   1 4420.21 731.998   4
  14 -11   1 4936.08 717.854   1
  11 -14   1 4264.94 993.660   2
  11 -14   1 4868.40 680.185   4
 -14   3   1 5220.48 622.429   1
 -11  -3   1 3695.83 762.177   4
 -14   3   1 3951.23 692.826   4
  11 -14   4 5915.08 681.194   3
  14 -11   4 5608.92 975.764   3
   3  11   4 10862.1 1844.15   3
 -11  -3   4 5324.65 1072.01   2
  -3  14   4 7394.52 1634.53   3
   3  11   4 6345.13 1018.61   2
  14 -11   4 6961.35 1391.81   4
  11 -14   4 7501.47 1354.48   4
  11 -14   4 6179.59 1546.42   2
  14 -11   4 5818.50 1392.28   2
  -3  14   4 6166.63 812.264   2
 -14   3   4 5667.99 1185.37   1
 -11  -3   4 5324.53 1042.55   4
 -14   3   4 6710.19 1039.63   4
  -3  14   4 5628.14 888.923   4
  14 -11   4 5816.90 1014.07   1
 -14   3   4 7619.50 1208.84   2
  14 -11   7 2802.70 1518.44   4
  -3  14   7-137.521 272.302   2
 -11  -3   7 1001.35 703.103   2
 -14   3   7 901.608 888.329   2
  14 -11   7 1576.15 836.403   3
  11 -14   7 683.875 425.430   3
   3  11   7 1764.78 1115.09   3
  11 -14   7 1911.96 1163.29   2
  11 -14   7 1469.07 1041.40   4
  14 -11   7 516.253 801.969   2
  -3  14   7 782.462 419.550   2
 -14   3   7-221.931 687.366   4
 -11  -3   7 1914.18 967.942   4
 -11  -3  10 1508.40 1240.11   4
   3  11  10-106.656 1288.95   4
  -3  14  10 1497.82 1430.94   4
   3  11  10 1339.67 1089.30   2
 -14   3  10 2374.83 1142.25   2
 -11  -3  10 597.545 959.180   2
  14 -11  10 2694.10 1865.09   2
  14 -11  10 2135.30 965.267   3
   3  11  10 297.159 1478.08   3
  14 -11  10 638.224 1043.21   4
 -14   3  10 748.530 853.262   4
  11 -14  10-37.0840 1277.12   2
  11 -14  10 659.749 1033.99   4
 -10  -4  -9 818.000 1023.99   1
 -14   4  -9 2539.66 1248.90   1
   4  10  -9 813.518 449.206   3
  10 -14  -9 776.645 1171.49   1
  14 -10  -9 878.072 1091.00   1
   4  10  -6 728.799 338.217   3
  14 -10  -6 504.996 666.996   1
 -14   4  -6-357.758 407.403   1
 -10  -4  -6-64.9815 451.883   1
  10 -14  -6-448.363 586.104   1
  14 -10  -6 460.733 484.566   2
  10 -14  -3 2045.25 699.181   1
   4  10  -3 2421.26 603.172   3
  14 -10  -3 2116.33 483.033   2
  14 -10  -3 1340.09 398.975   4
 -10  -4  -3 2739.97 609.216   1
  14 -10  -3 1573.24 597.273   1
  14 -10   0 803.359 229.211   4
 -10  -4   0 565.093 481.899   4
 -10  -4   0 260.794 274.495   1
 -10  -4   0 818.966 435.952   3
   4  10   0-464.836 555.570   2
  10 -14   0 797.084 431.796   1
   4  10   0-1140.09 635.514   3
  10 -14   0 903.630 259.903   4
 -10  -4   0 1491.31 646.353   2
  14 -10   0 50.1512 283.428   3
  -4  14   0 913.400 551.207   2
  -4  14   0 1458.63 523.792   4
  10 -14   0 1154.53 560.983   2
  14 -10   0 511.366 304.629   1
  -4  14   3 1917.10 506.526   2
  14 -10   3 528.377 378.997   1
 -10  -4   3-39.4385 433.805   1
  -4  14   3 1376.79 475.064   4
  10 -14   3 618.663 251.258   3
   4  10   3 771.874 491.690   2
 -10  -4   3 945.658 568.844   2
  14 -10   3 735.088 519.184   3
  10 -14   3 1286.47 517.926   2
   4  10   3 1502.18 901.303   3
 -14   4   3 1176.72 554.561   2
 -14   4   3 301.748 394.972   1
  14 -10   3 1697.32 752.354   4
  10 -14   3 434.004 537.931   4
 -10  -4   3 549.923 454.628   4
 -14   4   3-115.593 289.787   4
  10 -14   6 2629.99 1254.73   2
  -4  14   6 613.157 207.066   2
  10 -14   6 1706.92 812.696   4
 -10  -4   6 2125.20 907.552   2
  14 -10   6 1538.56 670.771   3
 -14   4   6 1139.27 557.489   2
   4  10   6 1041.34 482.049   2
  10 -14   6 682.756 270.972   3
   4  10   6 2854.10 1291.51   3
  14 -10   6 1349.92 850.383   4
  14 -10   6-501.391 930.789   2
 -10  -4   6 1897.69 909.992   4
 -14   4   6 917.185 523.443   4
 -10  -4   9 3549.32 1289.39   2
 -14   4   9 935.242 725.837   2
  14 -10   9 1001.88 843.341   3
   4  10   9 865.139 1324.21   3
  -4  14   9 1128.09 1235.29   4
  14 -10   9 4160.97 1797.76   4
   4  10   9 1744.87 1033.43   2
  10 -14   9 3188.24 1389.80   4
  14 -10   9 1929.29 1232.64   2
 -14   4   9 1383.54 1010.70   4
 -10  -4   9 1334.35 1094.01   4
  10 -14   9 5993.37 2105.06   2
  14  -9 -10 919.456 1153.65   1
  -9  -5 -10 2330.34 1394.33   1
   9 -14 -10 588.823 990.335   1
 -14   5 -10 200.583 742.185   1
   5   9  -7 4799.19 713.730   3
 -14   5  -7 5983.86 1214.22   1
  14  -9  -7 3057.22 811.044   2
   9 -14  -7 4498.08 1384.51   1
  -9  -5  -7 6067.15 1334.44   1
  14  -9  -7 5210.73 1398.45   1
  14  -9  -4 1015.39 455.600   4
  14  -9  -4 1174.21 433.292   2
   5   9  -4 755.716 382.537   3
   9 -14  -4 531.784 600.070   1
  -9  -5  -4 1857.09 611.038   1
  14  -9  -4 776.039 578.520   1
  14  -9  -1 4906.20 547.244   4
  14  -9  -1 6110.50 962.901   3
   5   9  -1 4983.63 942.144   3
  -9  -5  -1 5881.10 1122.15   2
  14  -9  -1 4157.05 749.144   2
  -9  -5  -1 4736.49 560.964   1
  -5  14  -1 6142.34 977.245   4
  14  -9  -1 4003.44 682.366   1
   9 -14  -1 4534.95 817.095   1
  -5  14  -1 5302.34 1080.55   2
   9 -14  -1 4846.90 452.507   4
  -9  -5  -1 4157.71 795.053   4
   9 -14  -1 4530.87 744.873   2
 -14   5   2 1848.98 376.142   4
   9 -14   2 2947.36 469.085   3
  14  -9   2 3966.47 776.699   3
   5   9   2 1069.07 533.767   2
  -9  -5   2 2097.65 579.869   3
  -9  -5   2 1685.32 613.695   1
   9 -14   2 2222.40 785.727   2
 -14   5   2 2880.55 641.617   1
  -9  -5   2 3810.58 918.341   2
   5   9   2 2525.14 929.838   3
  -5  14   2 3271.61 658.842   2
   9 -14   2 3450.49 735.457   4
  -5  14   2 3723.79 615.007   4
  -9  -5   2 2876.20 619.855   4
  -9  -5   5 9410.80 1547.38   2
 -14   5   5 10954.2 1359.91   2
   5   9   5 11227.8 1425.21   2
  14  -9   5 9861.23 1413.62   3
   5   9   5 14483.6 2235.96   3
   9 -14   5 10970.8 1680.46   4
  14  -9   5 9362.26 1342.51   1
  14  -9   5 11352.9 1943.77   4
  14  -9   5 9758.96 1826.11   2
   9 -14   5 12280.4 1990.19   2
  -9  -5   5 10109.5 1513.17   4
 -14   5   5 10086.7 1237.48   4
  -5  14   5 8766.31 1109.75   4
  -9  -5   8 2257.37 1031.66   2
  14  -9   8 2486.51 1648.24   4
   9 -14   8 3578.31 1472.02   4
 -14   5   8 3783.65 1122.70   2
  -5  14   8 786.815 1025.71   4
  14  -9   8 1065.35 586.201   3
   5   9   8 1327.56 1021.53   3
   9 -14   8 5001.21 1747.73   2
  14  -9   8 3894.92 1583.74   2
 -14   5   8 3803.90 1178.77   4
  -9  -5   8 3617.18 1293.84   4
   6   8  -8 912.754 436.071   3
 -14   6  -8 2395.57 922.011   1
  -8  -6  -8 1249.11 743.286   1
   8 -14  -8 1068.10 1071.57   1
  14  -8  -8 1664.53 1205.56   1
   6   8  -5 6259.46 838.187   3
  14  -8  -5 5068.04 1030.28   4
  14  -8  -5 6980.09 1371.51   1
  14  -8  -5 5920.66 972.373   2
   8 -14  -5 5511.87 1315.71   1
  -8  -6  -5 5234.39 1073.61   1
  14  -8  -2 1138.66 542.549   3
  -8  -6  -2 890.054 367.302   1
  -6  14  -2 1032.72 574.804   4
   6   8  -2 939.047 520.646   3
   8 -14  -2 1122.02 492.040   1
  14  -8  -2 1436.36 495.702   2
  14  -8  -2 456.585 305.396   4
   8 -14  -2 32.7858 538.806   3
  14  -8  -2 151.671 347.986   1
  -6  14  -2 296.213 599.404   2
   8 -14  -2 64.0119 212.054   2
  -8  -6   1 16838.9 1435.37   3
  14  -8   1 20860.9 1677.36   3
   6   8   1 18045.5 1937.94   3
  -8  -6   1 17240.8 1709.39   2
   8 -14   1 19665.0 1827.71   2
  -8  -6   1 16361.7 1411.72   1
  14  -8   1 16517.0 989.020   1
  -6  14   1 18428.2 1543.77   2
 -14   6   1 19504.5 1142.94   1
   8 -14   1 16933.3 1238.44   4
  -6  14   1 16789.1 1212.98   4
  -8  -6   1 18399.7 1562.73   4
 -14   6   1 18329.4 1230.52   4
  14  -8   1 18487.6 1304.83   4
   6   8   1 15034.8 1639.63   2
  -6  14   4 3507.45 612.550   4
  14  -8   4 4529.10 1010.31   3
  14  -8   4 3630.26 790.088   1
  -8  -6   4 3490.07 900.357   2
   6   8   4 2921.33 811.974   2
   6   8   4 3544.19 1149.72   3
 -14   6   4 3271.08 931.225   1
 -14   6   4 3036.23 686.926   2
   6   8   4 3840.82 825.250   1
 -14   6   4 5107.29 823.255   4
   8 -14   4 3180.78 933.282   4
  -8  -6   4 1685.97 680.315   4
   8 -14   4 5104.42 1274.03   2
  -8  -6   7 1609.83 892.318   2
   8 -14   7 2455.18 1288.12   4
 -14   6   7 701.462 497.552   2
  14  -8   7 2302.71 943.378   3
   6   8   7 121.864 818.331   3
   8 -14   7 872.509 1012.36   2
  -6  14   7 1140.15 937.773   4
  14  -8   7 1727.66 1167.95   4
  14  -8   7 1775.89 1125.99   2
 -14   6   7 1448.76 674.653   4
  -8  -6   7 2093.74 939.499   4
   8 -14  10 5605.51 2065.58   2
  14  -8  10 1744.28 1429.71   2
   6   8  10 1104.05 1190.83   2
   8 -14  10 4223.38 1723.37   4
  -8  -6  10 2026.82 1256.39   2
 -14   6  10 2160.09 1026.42   2
   6   8  10 2029.90 1558.25   4
  14  -8  10 835.621 870.652   3
   6   8  10-367.628 1020.85   3
  -6  14  10 2476.26 1538.64   4
  14  -8  10-348.201 1064.15   4
 -14   6  10 2488.69 1191.35   4
  -8  -6  10-302.077 878.863   4
  14  -7  -9 1850.86 1165.78   1
   7   7  -9 498.353 518.556   3
   7 -14  -9 667.206 866.969   1
  -7  -7  -9 391.903 900.101   1
   7   7  -9 584.442 843.057   1
  14  -7  -6 1862.59 724.130   2
  -7  -7  -6 1740.49 695.783   1
   7   7  -6 964.404 388.511   3
  14  -7  -6 2198.43 1081.88   1
   7 -14  -6 1527.14 944.052   1
  14  -7  -3 5568.77 1014.19   1
  14  -7  -3 6125.31 1098.69   3
 -14   7  -3 4020.95 852.973   3
   7   7  -3 4501.43 734.783   3
  14  -7  -3 3901.17 693.822   4
   7 -14  -3 4479.45 1048.20   1
  -7  14  -3 2961.68 970.043   4
  -7  -7  -3 4644.20 776.356   1
  14  -7  -3 4094.13 784.649   2
  -7  -7   0 3135.00 693.736   4
  14  -7   0 3881.31 776.925   3
  -7  -7   0 3332.92 762.989   3
   7   7   0 4028.54 889.296   2
   7   7   0 3693.74 805.291   3
  -7  -7   0 2412.29 682.570   2
   7 -14   0 2242.93 691.456   3
  14  -7   0 2978.51 716.666   2
   7 -14   0 4086.59 883.197   1
   7 -14   0 3048.44 671.823   2
  -7  14   0 3743.94 666.718   4
  14  -7   0 3329.64 490.244   1
  -7  14   0 2202.76 673.593   2
   7 -14   0 4123.07 557.852   4
  14  -7   0 3523.99 520.302   4
  -7  -7   3 3341.58 856.533   1
  -7  -7   3 4815.10 737.134   3
   7 -14   3 3180.97 341.955   3
  -7  -7   3 2891.32 930.641   2
   7 -14   3 2955.73 400.447   3
  14  -7   3 3628.78 825.195   3
   7   7   3 4414.34 1296.39   3
   7   7   3 3968.96 893.782   2
  -7  -7   3 5829.73 1048.52   4
  14  -7   3 4032.54 649.577   1
   7 -14   3 5238.14 1216.32   2
   7 -14   3 5557.58 965.480   4
 -14   7   3 4457.79 893.569   1
 -14   7   3 5667.30 666.507   4
  -7  14   3 4470.29 586.860   4
  14  -7   6 4820.50 1490.43   2
  -7  14   6 2594.17 1012.74   4
   7 -14   6 267.924 774.498   2
  -7  -7   6 561.304 702.699   2
  -7  -7   6 1485.92 612.749   4
 -14   7   6 2079.98 715.192   4
  14  -7   6 2354.07 903.526   1
  14  -7   6 2007.55 857.092   3
 -14   7   6 1552.44 510.183   2
   7   7   6 2851.15 1344.39   3
  14  -7   6 437.106 839.447   4
   7 -14   6 2422.91 950.022   4
   7 -14   9-322.890 900.175   2
  -7  -7   9 1155.61 981.354   2
   7   7   9 687.785 1097.35   2
 -14   7   9 273.646 589.767   2
  14  -7   9 2603.33 1153.99   3
   7   7   9 1734.86 1226.74   3
 -14   7   9 508.508 715.020   4
  14  -7   9 1090.02 1089.73   4
  -7  14   9 1306.74 1334.03   4
  14  -7   9-785.019 998.858   2
   7 -14   9 1356.18 1309.67   4
  -7  -7   9-609.942 687.962   4
   8   6 -10 2941.97 871.198   3
   6 -14 -10 426.940 1072.80   1
  14  -6 -10 4450.14 1670.54   1
   8   6 -10 4261.54 1727.80   1
  -6  -8 -10 1096.68 998.212   1
   6 -14  -7 996.867 748.473   1
   8   6  -7 549.492 481.748   3
  -6  -8  -7-646.583 856.537   1
   8   6  -7 1239.48 1003.34   1
  14  -6  -7 1397.30 789.499   1
   8   6  -4 4889.80 820.359   3
  14  -6  -4 4096.37 962.962   3
  14  -6  -4 2835.83 773.346   2
   6 -14  -4 3274.05 884.217   1
  14  -6  -4 3551.57 940.525   1
  -6  -8  -4 4643.15 974.291   1
  14  -6  -4 3484.97 845.243   4
 -14   8  -1 17669.3 1528.42   3
  14  -6  -1 18487.0 1704.91   3
  -6  -8  -1 17343.3 1311.07   1
  -6  -8  -1 18207.7 1765.21   3
   8   6  -1 18946.1 1679.26   3
  14  -6  -1 18371.1 1590.17   2
  -6  -8  -1 17634.1 1631.15   2
   6 -14  -1 19470.3 1878.89   3
  -8  14  -1 20469.4 2026.49   2
  -8  14  -1 16563.2 1504.52   4
   6 -14  -1 18057.5 1678.64   1
  14  -6  -1 16304.0 1216.10   4
   6 -14  -1 19032.7 1405.52   2
   6 -14  -1 17413.8 1147.55   4
  -6  -8  -1 17317.8 1530.80   4
  14  -6  -1 20170.0 1356.28   1
 -14   8   2 436.613 227.062   4
   6 -14   2 1889.22 691.524   2
 -14   8   2-50.7331 279.845   1
  -6  -8   2 1238.71 444.873   3
  14  -6   2 1196.34 678.724   3
  14  -6   2 484.752 220.271   1
  -6  -8   2 1300.91 620.390   2
   8   6   2 856.801 745.961   3
   8   6   2-106.253 411.344   2
   6 -14   2 777.296 381.293   3
  -6  -8   2 789.415 367.263   1
  14  -6   2 608.031 165.833   1
   6 -14   2 481.699 296.149   4
  -8  14   2 973.320 276.908   4
  -6  -8   2-19.9854 342.960   4
   6 -14   5 7180.97 1485.95   2
 -14   8   5 4601.73 843.385   4
 -14   8   5 5305.40 875.852   2
  14  -6   5 5699.24 1214.75   3
   8   6   5 7023.21 1574.72   3
  -6  -8   5 5446.49 1254.75   2
  14  -6   5 4134.66 860.051   1
   6 -14   5 4161.55 1110.01   4
  -8  14   5 5049.63 1083.79   4
   8   6   5 4900.65 898.056   1
  -6  -8   5 6652.84 1241.30   4
   6 -14   8 1189.84 1192.34   2
  -6  -8   8 2695.18 1257.01   2
 -14   8   8 1869.48 783.956   4
 -14   8   8 1956.76 724.271   2
  14  -6   8 1867.68 1008.45   3
  14  -6   8 3763.46 1439.84   2
   8   6   8 1631.21 995.920   3
  14  -6   8 3294.72 1381.96   4
  -6  -8   8 924.156 970.717   4
   6 -14   8 2322.85 1243.19   4
  -8  14   8 1424.02 897.264   4
   5 -14  -8 2072.38 1350.91   1
   9   5  -8 3125.90 848.949   3
  14  -5  -8 4295.01 1400.18   1
  -5  -9  -8 3057.37 1216.37   1
   9   5  -8 4331.41 1485.44   1
  14  -5  -5 11546.6 1666.45   1
   5 -14  -5 8547.11 1724.62   1
   9   5  -5 11920.8 1653.92   1
  14  -5  -5 8270.25 1401.81   4
   9   5  -5 9815.31 1159.86   3
  14  -5  -5 9692.92 1376.77   2
  -5  -9  -5 10531.2 1602.36   1
   5 -14  -2 3377.42 781.580   1
 -14   9  -2 2879.48 711.376   3
  14  -5  -2 3527.35 823.380   3
   9   5  -2 1972.94 547.650   3
   5 -14  -2 2164.74 442.479   2
  14  -5  -2 1853.70 619.585   2
   5 -14  -2 1238.43 706.515   3
  -5  -9  -2 2323.19 593.005   2
  14  -5  -2 3144.27 709.306   1
  -9  14  -2 2013.08 652.008   4
  -9  14  -2 2604.80 951.483   2
  14  -5  -2 3981.19 701.740   4
  -5  -9  -2 1900.58 582.607   1
  -5  -9   1 6345.19 1048.51   2
  -5  -9   1 4890.21 786.421   3
   9   5   1 7310.77 1231.16   3
  14  -5   1 4051.36 826.101   3
   5 -14   1 6441.43 890.131   3
 -14   9   1 5749.50 713.383   1
  -9  14   1 4002.05 511.490   4
   5 -14   1 4606.17 971.514   2
   5 -14   1 5002.85 770.915   4
  -5  -9   1 5581.43 937.483   4
  14  -5   1 5466.77 788.363   4
  14  -5   4 1359.81 514.720   1
  -5  -9   4 2643.87 848.087   2
  14  -5   4 1233.16 668.687   3
   9   5   4 3052.56 1128.05   3
   5 -14   4 1296.05 895.125   2
  -5  -9   4 1726.03 693.686   4
  -9  14   4 2154.88 654.145   4
  -9  14   4 1084.11 349.581   4
   5 -14   4 1873.17 789.408   4
 -14   9   4 1858.95 442.406   4
   9   5   4 1410.01 452.824   1
 -14   9   7 4408.79 814.215   2
  -9  14   7 4956.59 1332.73   4
  -5  -9   7 4403.29 1418.93   2
  14  -5   7 6942.72 1531.37   3
  -5  -9   7 8601.01 1637.25   4
   9   5   7 5530.94 1629.35   3
  14  -5   7 4597.06 1733.95   4
   5 -14   7 8861.76 1934.68   2
 -14   9   7 5959.67 1129.48   4
  14  -5   7 4623.88 1688.04   2
   5 -14   7 6070.29 1546.13   4
   9   5  10 739.529 1099.13   4
   5 -14  10 472.851 927.624   2
  -5  -9  10 2393.88 1396.19   2
  14  -5  10 850.569 1331.84   4
  -9  14  10 1227.67 1347.59   4
   9   5  10 1336.20 1283.96   2
  14  -5  10 1480.76 1445.31   3
   9   5  10-1459.76 1402.08   3
  14  -5  10-292.753 1179.15   2
   5 -14  10-404.007 947.797   4
 -14   9  10 787.312 893.179   4
  -5  -9  10 1887.40 1292.28   4
  10   4  -9 707.433 496.539   3
   4 -14  -9 1045.58 1045.28   1
  10   4  -9 2679.67 1208.47   1
  14  -4  -9 384.244 766.979   1
  -4 -10  -9 2455.34 1267.65   1
  -4 -10  -6 1984.05 942.243   1
  10   4  -6 1912.89 626.712   3
  14  -4  -6 1606.34 797.865   1
  10   4  -6 2204.92 956.970   1
   4 -14  -6 1080.67 826.177   1
  14  -4  -3 47.7298 335.898   1
 -14  10  -3 629.634 405.605   3
  14  -4  -3 359.055 565.410   3
   4 -14  -3 141.127 497.195   1
  10   4  -3 467.213 455.535   3
  -4 -10  -3 1122.06 546.177   1
  14  -4  -3 1065.50 664.496   2
   4 -14  -3 269.974 245.461   2
 -10  14  -3 43.5359 476.234   4
  14  -4  -3 685.736 497.664   4
  -4 -10   0 1365.32 515.637   4
   4 -14   0 567.110 382.513   2
  14  -4   0 925.077 605.351   3
  -4 -10   0 1246.49 503.631   3
  10   4   0 449.582 561.798   3
  -4 -10   0 1420.06 564.674   2
   4 -14   0 1105.13 544.275   3
  14  -4   0 941.528 489.458   2
  14  -4   0 590.103 170.295   1
 -10  14   0 1324.37 380.095   4
   4 -14   0 1412.71 386.039   4
  14  -4   0 1032.95 385.696   4
   4 -14   3 1226.26 671.236   2
 -14  10   3 1747.31 648.727   1
  -4 -10   3 1852.30 411.631   3
  -4 -10   3 1856.92 746.044   2
  -4 -10   3 2969.82 747.532   4
  14  -4   3 1802.98 737.047   3
  10   4   3 1850.21 952.773   3
 -14  10   3 2100.50 334.758   4
 -10  14   3 1188.14 360.898   4
  14  -4   3 1717.07 319.436   1
   4 -14   3 1247.06 557.008   4
 -10  14   3 1261.77 250.067   4
   4 -14   6 76.3188 634.347   2
  -4 -10   6 658.034 910.967   2
  -4 -10   6 458.372 886.135   4
  14  -4   6 168.607 663.109   3
  10   4   6 55.5877 648.186   3
 -14  10   6 125.762 389.545   2
 -10  14   6 128.195 469.738   4
  14  -4   6 361.891 598.674   1
   4 -14   6 673.265 865.546   4
 -14  10   6 386.981 498.499   4
  -4 -10   9 2328.60 1331.37   2
  14  -4   9 160.826 955.367   2
 -14  10   9 421.794 452.090   2
  14  -4   9 200.979 781.226   3
   4 -14   9-1316.78 1235.13   2
  10   4   9 1495.75 915.468   3
  14  -4   9 2024.19 1571.48   4
  10   4   9 1107.77 941.691   2
 -10  14   9 1719.57 1117.89   4
   4 -14   9 1480.06 1248.12   4
  -4 -10   9 1209.55 974.715   4
 -14  10   9 751.121 754.765   4
  11   3 -10 1849.16 933.187   3
  11   3 -10 3466.05 1470.78   1
  14  -3 -10 2970.23 1516.73   1
   3 -14 -10 1307.73 1246.63   1
  -3 -11 -10 2138.88 1386.74   1
  -3 -11  -7 282.875 772.020   1
  11   3  -7-887.281 590.858   1
  14  -3  -7 407.332 509.886   3
  11   3  -7 648.062 509.023   3
   3 -14  -7 413.303 675.244   1
  14  -3  -7 209.322 644.854   1
 -14  11  -4 5641.41 918.965   3
  14  -3  -4 8557.76 1251.57   3
  11   3  -4 6379.63 1037.27   3
  -3 -11  -4 4494.01 969.053   1
  11   3  -4 7200.90 1183.65   1
  14  -3  -4 7086.04 1189.11   1
  14  -3  -4 5925.17 1151.19   4
   3 -14  -4 6622.87 1369.01   1
  11   3  -1 5210.20 945.931   3
  -3 -11  -1 4815.59 1021.56   3
  14  -3  -1 4494.24 852.739   3
  -3 -11  -1 3225.51 683.358   4
 -11  14  -1 5176.79 793.396   4
  -3 -11  -1 4208.27 794.887   2
   3 -14  -1 4398.87 998.157   3
   3 -14  -1 3020.69 640.458   1
  -3 -11  -1 4419.56 833.913   1
  14  -3  -1 4499.19 567.259   1
  14  -3  -1 4043.95 767.697   4
   3 -14  -1 3853.37 668.527   4
   3 -14  -1 6258.48 899.530   2
   3 -14   2 3448.90 984.785   2
   3 -14   2 4150.40 575.328   3
  -3 -11   2 2923.39 533.494   3
  -3 -11   2 3292.79 950.456   2
  14  -3   2 4445.96 915.509   3
  14  -3   2 3910.16 819.142   4
  11   3   2 4086.23 1046.53   3
   3 -14   2 3763.07 807.733   4
 -14  11   2 2993.12 700.314   1
  -3 -11   2 3966.16 812.233   4
   3 -14   5 2727.82 1097.37   2
  11   3   5 2549.20 669.184   1
 -14  11   5 3425.72 645.148   4
   3 -14   5 4164.27 1053.23   4
  14  -3   5 2840.88 928.058   3
  11   3   5 2769.68 1100.68   3
  14  -3   5 3625.71 781.100   1
 -11  14   5 2993.80 721.306   4
  -3 -11   5 3943.41 1140.91   2
  -3 -11   5 3037.25 953.766   4
   3 -14   8-554.850 1007.33   2
  -3 -11   8 1190.70 1089.74   2
  14  -3   8 1022.83 905.946   3
  11   3   8 3368.73 1653.71   3
 -14  11   8 631.265 408.063   2
  14  -3   8 1361.77 1288.43   4
  14  -3   8 987.822 953.251   2
 -11  14   8-450.823 722.954   4
  -3 -11   8 1860.03 939.613   4
 -14  11   8 1269.88 689.744   4
   3 -14   8-373.515 749.103   4
  14  -2  -8 6112.08 1434.79   3
  -2 -12  -8 7022.63 1703.38   1
   2 -14  -8 2994.55 1383.92   1
  12   2  -8 5555.18 1503.35   1
  14  -2  -8 6760.12 1619.07   1
  12   2  -8 4872.17 1155.03   3
  14  -2  -5 15496.7 1840.14   3
 -14  12  -5 15028.4 1455.05   3
  12   2  -5 16017.9 1677.68   3
  12   2  -5 17668.9 2001.24   1
  14  -2  -5 16836.3 2016.52   1
   2 -14  -5 13658.0 1944.50   1
  -2 -12  -5 14772.1 1987.36   1
   2 -14  -2 7362.71 863.596   2
  14  -2  -2 6274.06 1069.99   3
  12   2  -2 5115.35 982.655   3
  14  -2  -2 6293.23 836.405   1
  -2 -12  -2 4392.90 770.910   2
  14  -2  -2 4177.43 840.561   4
  -2 -12  -2 6041.17 963.677   1
   2 -14  -2 6160.81 1041.39   1
   2 -14   1 8253.15 1305.00   2
  14  -2   1 8420.99 1047.42   4
   2 -14   1 6427.19 892.773   4
  -2 -12   1 7996.74 1017.91   3
  12   2   1 5686.55 1073.96   3
   2 -14   1 8482.43 1050.49   3
  -2 -12   1 8512.15 1322.97   2
  14  -2   1 8294.11 1255.14   3
  -2 -12   1 7211.93 1020.53   4
 -14  12   4 3957.86 484.862   4
   2 -14   4 4386.11 1124.36   2
  -2 -12   4 6125.24 1290.48   2
  14  -2   4 4920.38 1142.75   3
  12   2   4 6221.46 1244.03   3
 -12  14   4 4188.64 538.277   4
  12   2   4 3124.17 556.951   1
  14  -2   4 4256.61 600.496   1
  -2 -12   4 5296.63 1092.39   4
   2 -14   4 3656.85 927.676   4
   2 -14   7 5180.75 1507.57   2
  -2 -12   7 5146.88 1346.85   2
  14  -2   7 6133.54 1652.09   3
  12   2   7 5870.07 1668.64   3
 -12  14   7 6298.12 1235.17   4
 -14  12   7 6378.80 1207.37   4
   2 -14   7 7806.23 1667.61   4
  -2 -12   7 5837.97 1405.37   4
   2 -14  10 2721.71 1469.67   2
  -2 -12  10 2328.14 1352.27   2
  14  -2  10 2559.09 1373.95   3
  12   2  10 3642.55 1759.22   3
  12   2  10 2089.29 1892.98   4
  14  -2  10 2625.69 1760.96   4
  12   2  10-200.040 894.493   2
  14  -2  10 3339.26 1924.03   2
 -12  14  10 1640.24 986.866   4
 -14  12  10 3127.35 1288.72   4
   2 -14  10 1853.15 1236.26   4
  -2 -12  10 4170.31 1540.96   4
  14  -1  -9 718.216 920.865   1
  13   1  -9 1567.18 1008.39   3
   1 -14  -9 712.009 1030.86   1
  -1 -13  -9 1884.69 1066.37   1
  14  -1  -9 429.847 651.160   3
  13   1  -9 225.970 760.287   1
 -14  13  -6 145.893 451.944   3
  14  -1  -6-373.616 589.330   3
  13   1  -6 1466.57 762.594   3
  14  -1  -6 19.0725 632.222   1
  13   1  -6 731.852 779.909   1
   1 -14  -6 636.469 559.115   1
  -1 -13  -6 1444.69 930.008   1
  14  -1  -3 4251.23 855.168   1
  14  -1  -3 4693.53 962.089   3
  13   1  -3 4078.11 867.363   3
   1 -14  -3 4045.90 721.705   2
   1 -14  -3 4242.95 921.950   1
  -1 -13  -3 2572.92 829.145   1
  -1 -13  -3 4208.80 756.628   2
  13   1  -3 4537.24 862.747   1
  14  -1   0 1741.51 615.415   3
  13   1   0 2544.43 728.736   3
   1 -14   0 2429.46 543.436   2
  -1 -13   0 1931.39 581.159   4
  -1 -13   0 3511.35 809.435   2
  -1 -13   0 3309.93 850.467   3
   1 -14   0 3333.46 856.490   3
   1 -14   0 1435.22 417.318   4
  14  -1   0 2246.71 558.476   4
  -1 -13   3 4218.09 504.534   3
   1 -14   3 4283.62 460.350   3
  14  -1   3 4917.20 1135.76   3
  13   1   3 5816.32 1259.73   3
   1 -14   3 5182.31 1182.44   2
  -1 -13   3 4190.93 1097.33   2
   1 -14   3 4915.82 1033.91   4
  -1 -13   3 4856.64 1015.99   4
   1 -14   6 65.5462 594.206   2
  -1 -13   6 758.436 620.729   4
  -1 -13   6 1523.16 995.332   2
  13   1   6 572.902 562.352   1
  14  -1   6-230.630 475.599   1
 -13  14   6 619.696 508.812   4
  14  -1   6 2507.51 1174.66   3
  13   1   6 1598.17 973.658   3
   1 -14   6 1053.48 922.266   4
 -14  13   6 161.835 368.879   4
   1 -14   9 1700.79 1247.98   2
  -1 -13   9 2939.25 1442.82   2
  14  -1   9 253.618 966.712   2
  14  -1   9 1446.16 1276.97   3
  13   1   9 2330.41 1345.36   3
  14  -1   9 979.933 1027.95   4
  13   1   9 1745.35 1081.34   2
 -13  14   9 2500.60 1135.53   4
 -14  13   9 1085.60 933.660   4
   1 -14   9 5214.04 1610.33   4
  -1 -13   9 2413.25 1483.40   4
  14   0 -10 1543.94 1171.94   1
  14   0 -10 837.252 812.057   3
 -14  14  -7 16.1800 441.914   3
  14   0  -7 1470.79 781.950   3
  14   0  -7 403.791 760.234   1
   0 -14  -7-382.839 788.794   1
  14   0  -4 1349.71 591.964   3
   0 -14  -4-90.8067 553.134   1
  14   0  -4 1096.53 644.378   1
   0 -14  -1 143.640 365.344   4
  14   0  -1 619.692 571.684   3
   0 -14  -1-210.326 388.199   2
   0 -14  -1-3.01188 586.945   3
   0 -14  -1-401.660 390.932   1
   0 -14   2 5305.46 720.488   3
   0 -14   2 5018.97 1077.87   2
  14   0   2 5585.10 1107.01   3
   0 -14   2 5182.05 951.180   4
  14   0   5 202.072 308.950   1
   0 -14   5-205.063 597.554   2
 -14  14   5 141.231 303.681   4
  14   0   5 1461.81 1006.81   3
   0 -14   5-478.432 637.857   4
   0 -14   8 711.296 764.661   2
  14   0   8 3185.76 1362.89   3
 -14  14   8 934.943 663.266   4
   0 -14   8 1799.95 1119.06   4
 -15   0  -9-2.99172 692.932   1
  15 -15  -9 744.012 1262.19   1
 -15   0  -6 2263.75 702.899   1
  15 -15  -6 3339.25 1161.07   1
  15 -15  -3 162.410 230.190   2
  15 -15  -3 409.140 382.260   2
  15 -15  -3 1040.06 670.425   1
   0  15  -3-316.630 407.713   3
  15 -15   0 11463.6 1289.18   3
   0  15   0 12550.2 1655.84   3
 -15   0   0 10231.7 1236.56   4
  15 -15   0 11572.4 1519.13   2
  15 -15   0 11136.6 1280.26   1
 -15   0   3-1090.76 639.309   1
  15 -15   3-532.756 381.676   3
 -15   0   3 8.51647 460.707   4
 -15   0   3-674.529 866.799   2
  15 -15   3 148.209 394.434   4
  15 -15   3 426.206 767.010   2
 -15   0   6 7361.06 1563.70   2
  15 -15   6 8464.34 1881.35   2
  15 -15   6 5676.13 989.532   3
 -15   0   6 8287.89 1457.10   4
   0  15   6 4552.60 836.449   2
   0  15   6 9058.71 2283.78   3
  15 -15   6 9195.79 1770.41   4
  15 -15   9 2788.65 1578.05   2
  15 -15   9-348.274 1182.27   4
 -15   0   9 72.9742 943.847   2
 -15   0   9 792.549 1034.15   4
 -14  -1 -10 707.487 977.254   1
 -15   1 -10 1479.79 1208.09   1
  14 -15 -10 402.589 931.681   1
  15 -14 -10 276.654 1089.62   1
  14 -15  -7 1081.63 1035.03   1
  15 -14  -7 5216.00 1638.86   1
 -14  -1  -7 4995.19 1169.41   1
 -15   1  -7 4646.65 1183.33   1
 -15   1  -4 4291.01 550.656   1
   1  14  -4 3150.58 621.671   3
 -14  -1  -4 4381.96 625.082   1
  15 -14  -4 5487.17 1254.88   1
  14 -15  -4 5876.86 1327.22   1
  15 -14  -4 4029.63 551.980   2
  -1  15  -1 11326.1 1454.01   3
   1  14  -1 10626.0 1448.40   3
  15 -14  -1 8034.17 1139.09   1
  14 -15  -1 6845.47 1104.45   2
  14 -15  -1 8356.91 1196.28   1
  15 -14   2 4510.70 746.587   3
 -14  -1   2 4451.45 833.468   1
 -15   1   2 3909.06 786.564   1
  -1  15   2 3663.28 924.876   2
  14 -15   2 2801.11 584.123   3
   1  14   2 3795.27 1005.81   2
  14 -15   2 3359.40 1029.61   2
 -14  -1   2 4483.13 1076.60   2
   1  14   2 5022.62 1277.44   3
 -15   1   2 4626.12 1055.20   2
  -1  15   2 4417.16 1260.40   3
  15 -14   2 4571.28 828.514   4
  14 -15   2 4930.22 863.188   4
  15 -14   2 4777.54 1202.58   2
 -14  -1   2 3998.49 829.130   4
 -15   1   2 5135.32 849.561   4
  15 -14   5 5150.98 957.646   3
  14 -15   5 4223.90 799.080   3
  -1  15   5 3905.41 731.497   2
   1  14   5 3335.08 738.780   2
 -14  -1   5 3686.66 983.987   2
 -15   1   5 4770.98 1119.22   2
   1  14   5 4431.78 1439.53   3
  -1  15   5 2398.63 1093.15   3
  15 -14   5 8290.35 1584.08   4
  14 -15   5 7096.38 1445.82   4
 -14  -1   5 5954.40 1272.14   4
 -15   1   5 7127.63 1233.91   4
  15 -14   5 4611.53 1516.30   2
  14 -15   5 4396.78 1327.92   2
 -14  -1   8 3352.27 1067.26   4
 -15   1   8 1648.57 866.288   4
  15 -14   8 2830.34 1379.10   4
 -14  -1   8 2653.51 1247.89   2
 -15   1   8 1274.49 966.024   2
   1  14   8 2389.52 900.323   2
  15 -14   8 2135.71 745.765   3
  14 -15   8 2521.54 732.818   3
  14 -15   8 5652.74 1774.81   4
   1  14   8 3368.73 1530.99   3
  -1  15   8 1265.38 643.168   2
  15 -14   8 1446.79 1027.46   2
  14 -15   8 3622.84 1662.32   2
  13 -15  -8 1452.51 1243.54   1
 -13  -2  -8 597.365 663.263   1
  15 -13  -8 957.408 888.064   1
 -15   2  -8 85.7403 551.429   1
  15 -13  -5 1025.55 370.421   2
  15 -13  -5 1648.59 857.734   1
   2  13  -5 776.996 273.766   3
  13 -15  -5 1143.42 837.469   1
 -13  -2  -5 2005.89 698.532   1
 -15   2  -5 1408.61 506.484   1
  13 -15  -2 1055.46 487.719   1
  15 -13  -2 907.120 562.444   1
   2  13  -2 1239.96 555.067   3
  15 -13  -2 1074.84 507.515   2
  -2  15  -2 728.667 460.897   3
  13 -15  -2 1109.79 434.785   2
 -13  -2  -2 329.421 174.450   1
  13 -15   1 9050.10 1021.59   3
  15 -13   1 9821.45 1114.57   3
 -13  -2   1 9120.01 1396.31   2
   2  13   1 12205.7 1721.00   3
 -13  -2   1 8888.97 974.698   1
  -2  15   1 9106.86 1161.75   4
  -2  15   1 13909.8 1811.20   3
   2  13   1 9260.77 1401.94   2
  13 -15   1 11126.8 1275.09   1
  15 -13   1 9840.25 1041.66   4
  15 -13   1 10035.3 1093.71   1
  13 -15   1 10784.7 1537.95   2
  13 -15   1 9128.86 903.786   4
 -15   2   1 9124.71 809.299   1
 -13  -2   1 9741.77 1218.59   4
 -15   2   1 10120.1 1164.88   4
  -2  15   1 7748.05 1242.43   2
  13 -15   4 1658.44 917.224   2
  -2  15   4 2260.29 663.987   2
  13 -15   4 2227.76 604.313   3
  15 -13   4 2957.52 788.133   3
   2  13   4 1993.53 665.864   2
 -15   2   4 4321.88 927.445   4
 -13  -2   4 4340.95 1094.73   2
  15 -13   4 3871.49 1255.73   2
 -15   2   4 3427.41 983.087   2
   2  13   4 3086.55 1223.59   3
  -2  15   4 2901.33 1194.68   3
  13 -15   4 4513.35 1110.69   4
  15 -13   4 4361.66 1141.22   4
 -15   2   4 2131.95 798.449   1
 -13  -2   4 2686.42 791.214   4
  13 -15   7 2539.68 1330.99   2
 -15   2   7 3052.53 886.196   4
 -13  -2   7 2685.87 1106.06   2
 -15   2   7 2597.24 1035.06   2
  15 -13   7 3357.60 997.648   3
  13 -15   7 2199.70 593.405   3
   2  13   7 3151.86 1556.18   3
 -13  -2   7 2073.40 977.993   4
  15 -13   7 2954.73 1276.54   4
  -2  15   7 2559.39 711.955   2
  13 -15   7 1657.27 989.178   4
  15 -13   7 5571.49 1714.55   2
  -2  15   7 1622.34 511.635   2
  13 -15  10 687.656 1385.61   4
 -13  -2  10 664.093 1132.15   2
 -15   2  10 1345.66 1084.43   2
   2  13  10-772.120 1389.05   4
  15 -13  10 989.985 1722.94   4
  -2  15  10 1067.59 1562.98   4
  13 -15  10 2057.82 1522.12   2
  15 -13  10-630.416 1232.66   2
 -15   2  10 587.027 873.379   4
 -13  -2  10 917.881 879.953   4
 -12  -3  -9 163.410 827.597   1
  12 -15  -9 158.461 917.117   1
 -15   3  -9-280.876 712.565   1
  15 -12  -9-690.949 1001.50   1
  15 -12  -6 1936.64 544.232   2
 -15   3  -6 4477.26 859.802   1
   3  12  -6 2219.18 412.513   3
  12 -15  -6 1466.51 691.061   1
  15 -12  -6 2792.79 1109.52   1
 -12  -3  -6 2454.62 829.766   1
 -12  -3  -3-169.791 323.269   1
  12 -15  -3 73.9308 138.412   2
  12 -15  -3-426.134 421.839   1
  15 -12  -3 636.263 633.384   1
  15 -12  -3 138.523 334.516   2
   3  12  -3 145.517 298.084   3
  12 -15  -3 62.8111 97.7357   2
 -12  -3   0 2002.75 582.935   4
  15 -12   0 1800.15 518.394   1
  15 -12   0 2289.71 618.829   3
 -12  -3   0 2583.62 509.041   1
   3  12   0 1779.70 696.699   3
 -12  -3   0 2205.07 736.543   2
  -3  15   0 2713.84 831.175   3
  15 -12   0 1533.58 404.072   4
  12 -15   0 2220.04 325.706   4
  12 -15   0 1201.57 570.740   2
  15 -12   0 2254.99 351.289   4
  12 -15   0 1470.88 485.662   1
  -3  15   0 1314.13 555.212   4
  -3  15   0 1884.74 775.589   2
  -3  15   3 2207.52 576.363   2
  12 -15   3 1586.18 413.837   3
  15 -12   3 2845.55 652.288   3
  15 -12   3 3130.00 962.721   4
   3  12   3 2319.35 719.524   2
 -12  -3   3 2335.64 815.363   2
  15 -12   3 1451.48 609.304   1
   3  12   3 2500.61 1090.69   3
 -15   3   3 3045.06 873.930   2
  -3  15   3 929.973 767.752   3
  15 -12   3 2810.52 1037.80   2
 -15   3   3 3511.60 837.982   1
  12 -15   3 2364.03 732.543   4
 -12  -3   3 2017.48 762.824   1
  12 -15   3 2086.97 803.378   2
 -15   3   3 1778.68 536.625   4
 -12  -3   3 822.328 429.062   4
  -3  15   3 1705.01 514.645   4
  15 -12   6 1405.92 1028.82   4
  12 -15   6 406.333 768.440   2
  -3  15   6 245.846 277.842   2
 -12  -3   6 984.180 894.161   2
  15 -12   6 403.788 872.496   2
  15 -12   6 615.489 599.465   3
   3  12   6 85.7365 556.530   2
 -15   3   6 1941.43 873.414   2
  12 -15   6-4.88300 334.939   3
   3  12   6 543.470 894.381   3
  12 -15   6 533.690 830.206   4
 -12  -3   6-375.127 456.729   4
 -15   3   6 62.1389 435.598   4
 -12  -3   9 852.716 953.212   2
  12 -15   9 251.926 970.942   4
  12 -15   9-1615.51 1384.53   2
 -15   3   9 737.431 873.221   2
  15 -12   9 57.0715 634.164   3
   3  12   9-181.029 1013.57   3
  -3  15   9 440.027 998.391   4
  15 -12   9-78.5990 1036.19   4
   3  12   9 164.176 757.312   2
  15 -12   9 3460.97 1768.90   2
 -15   3   9 1539.07 1185.08   4
 -12  -3   9 1568.88 993.566   4
 -11  -4 -10 2847.34 1298.77   1
  11 -15 -10 2419.76 1494.72   1
 -15   4 -10 3099.56 1282.89   1
  15 -11 -10 3365.32 1848.94   1
   4  11  -7 4149.15 641.067   3
 -11  -4  -7 7227.03 1410.62   1
  15 -11  -7 5692.83 1664.87   1
   4  11  -7 2402.20 635.284   3
 -15   4  -7 5053.77 1026.89   1
  15 -11  -7 2479.18 627.270   2
  11 -15  -7 4643.48 1657.61   1
   4  11  -4 6556.54 848.505   3
  15 -11  -4 5649.77 730.008   4
  15 -11  -4 5930.25 1263.84   1
  11 -15  -4 7019.25 1405.70   1
  15 -11  -4 5738.66 801.835   2
 -11  -4  -4 6914.48 991.599   1
  11 -15  -1 3243.53 798.437   1
  15 -11  -1 2875.22 656.055   3
  11 -15  -1 3054.15 704.774   2
  15 -11  -1 3315.14 713.436   1
   4  11  -1 2470.52 733.955   3
 -11  -4  -1 2809.79 413.042   1
  15 -11  -1 2559.91 353.164   4
  -4  15  -1 1938.52 646.388   4
  -4  15  -1 3665.40 1053.24   2
  11 -15   2 4364.15 625.347   3
 -11  -4   2 4898.29 1077.44   2
  -4  15   2 4094.25 735.241   4
  15 -11   2 3664.05 745.092   3
   4  11   2 4325.15 932.908   2
 -11  -4   2 4525.40 876.013   1
   4  11   2 3354.47 1057.38   3
 -15   4   2 4325.79 925.490   2
  15 -11   2 5643.84 1010.49   4
  11 -15   2 5145.85 1209.83   2
  11 -15   2 4877.23 820.089   4
  -4  15   2 5623.22 954.459   2
 -15   4   2 5677.38 841.887   1
 -11  -4   2 5370.52 867.304   4
 -15   4   2 4124.14 685.368   4
 -11  -4   5 7200.42 1342.54   2
   4  11   5 7787.66 1165.30   2
 -15   4   5 10470.9 1478.38   2
  15 -11   5 6933.82 1132.20   3
  11 -15   5 7318.70 698.667   3
  15 -11   5 6968.11 1219.92   1
   4  11   5 11662.2 2092.33   3
  15 -11   5 8663.44 1792.47   4
  15 -11   5 12340.5 2134.58   2
  11 -15   5 7936.14 1533.29   4
  11 -15   5 14630.4 2345.37   2
  -4  15   5 6457.44 656.011   2
 -15   4   5 9334.63 1276.82   4
 -11  -4   5 13784.7 1760.00   4
  15 -11   8 2399.34 1610.24   2
 -11  -4   8 2978.05 1227.46   2
 -15   4   8 2188.20 881.340   2
  11 -15   8 3435.18 1640.30   2
  15 -11   8 2905.12 1157.03   3
  -4  15   8 2607.84 1299.49   4
   4  11   8 2831.29 1344.03   3
  15 -11   8 657.887 795.638   4
  11 -15   8 2414.21 1243.27   4
 -11  -4   8 2577.63 1110.75   4
 -15   4   8 2614.92 1069.10   4
  10 -15  -8 966.137 888.651   1
   5  10  -8 597.750 442.418   3
 -15   5  -8 607.755 731.100   1
  15 -10  -8-124.435 732.060   1
 -10  -5  -8 1930.08 946.668   1
 -10  -5  -5 5720.14 1109.90   1
  15 -10  -5 6167.15 933.459   2
   5  10  -5 6240.02 838.564   3
  15 -10  -5 5027.60 1352.80   1
  15 -10  -5 5365.59 973.337   4
  10 -15  -5 8446.15 1622.52   1
   5  10  -2 7982.98 1125.91   3
  15 -10  -2 7612.36 1172.53   3
  15 -10  -2 6848.42 897.534   2
  -5  15  -2 6807.92 1247.13   4
  15 -10  -2 5017.08 593.451   4
  10 -15  -2 5299.56 673.831   2
  10 -15  -2 5800.83 1037.67   1
 -10  -5  -2 6436.06 769.463   1
  15 -10  -2 6961.59 1050.50   1
 -10  -5   1 13499.9 1306.72   1
 -10  -5   1 12881.1 1397.28   3
  15 -10   1 15289.5 1448.43   3
 -10  -5   1 14763.3 1651.81   2
   5  10   1 16720.3 1776.75   2
   5  10   1 16532.5 1986.29   3
  15 -10   1 15336.9 1118.74   1
  10 -15   1 17177.4 1853.24   2
  -5  15   1 16114.4 1571.69   2
 -15   5   1 17519.6 1046.16   1
  10 -15   1 15738.2 1195.42   4
  -5  15   1 12957.4 1200.23   4
 -10  -5   1 15996.9 1521.40   4
 -15   5   1 14586.2 1218.05   4
  10 -15   4 4310.87 503.132   3
  15 -10   4 5018.09 959.148   3
 -15   5   4 5777.51 1094.95   2
 -10  -5   4 5758.18 1081.84   4
 -10  -5   4 4471.27 1107.44   2
   5  10   4 3918.96 939.163   2
  10 -15   4 5068.91 1423.51   2
   5  10   4 3640.61 1060.50   3
  -5  15   4 4036.28 485.582   2
  15 -10   4 6365.72 1342.00   4
  15 -10   4 5529.44 941.834   1
 -15   5   4 6268.80 1219.28   1
 -15   5   4 5137.84 827.792   4
  10 -15   4 5367.62 1072.36   4
  -5  15   4 4764.76 779.912   4
 -10  -5   7 2587.83 900.082   2
 -15   5   7 2699.82 980.628   2
  15 -10   7 1011.92 800.879   3
   5  10   7 3477.89 1562.71   3
  15 -10   7 4795.68 1735.49   4
  10 -15   7 2572.85 1229.42   4
  10 -15   7 1185.61 1194.53   2
  15 -10   7 1938.26 1193.93   2
 -15   5   7 1517.78 786.428   4
 -10  -5   7 1137.26 941.227   4
   5  10  10 4016.75 1448.98   2
 -15   5  10 2619.16 1133.91   4
 -10  -5  10 1094.80 855.245   2
  15 -10  10 362.652 1303.33   4
 -15   5  10 1651.32 899.296   2
  15 -10  10 809.144 1070.87   3
   5  10  10 1703.31 1380.98   3
   5  10  10-365.708 1058.70   4
  -5  15  10 1011.07 1413.24   4
  10 -15  10 813.986 966.132   4
  15 -10  10-503.626 1291.74   2
 -10  -5  10 1882.79 1211.47   4
  10 -15  10 1299.69 1484.18   2
  -9  -6  -9 1933.08 1137.39   1
   9 -15  -9 1788.69 1275.02   1
 -15   6  -9 732.488 945.686   1
   6   9  -9 161.213 403.557   3
  15  -9  -9 1278.33 1347.24   1
  15  -9  -6 1494.22 651.257   2
   6   9  -6 1660.52 557.021   3
  -9  -6  -6 1757.10 649.802   1
  15  -9  -6 933.526 940.103   1
  15  -9  -6 2413.30 906.837   4
   9 -15  -6 228.430 682.187   1
  15  -9  -3 1515.01 608.929   1
   9 -15  -3 1394.37 745.219   1
   6   9  -3 1393.60 461.623   3
  15  -9  -3 1357.77 457.315   2
  -9  -6  -3 1213.21 483.672   1
  15  -9  -3 1196.83 402.664   4
  15  -9   0 1897.39 668.459   3
  -6  15   0 427.147 405.228   4
  -9  -6   0 1071.93 489.658   3
  15  -9   0 1034.20 416.327   1
   9 -15   0 965.165 505.108   1
  15  -9   0 889.611 331.855   4
   6   9   0 423.782 526.303   3
  -9  -6   0 937.577 592.947   2
   9 -15   0 118.787 449.563   3
  -6  15   0 498.657 608.790   2
   9 -15   0 898.028 317.824   4
  -9  -6   0 892.825 480.034   4
   9 -15   0 73.0320 378.720   2
  15  -9   3 1720.06 507.479   1
   9 -15   3 1978.94 363.454   3
  -9  -6   3 1592.76 615.741   3
   9 -15   3 2715.15 924.015   2
  15  -9   3 1879.92 717.230   3
  -9  -6   3 415.719 438.356   2
 -15   6   3 1191.04 472.635   1
   6   9   3 1181.94 634.409   2
   6   9   3 889.674 748.865   3
  -9  -6   3 1544.52 657.543   1
 -15   6   3 1947.68 672.067   2
  -6  15   3 2030.15 449.472   2
   9 -15   3 2387.75 650.285   4
  -9  -6   3 2258.06 682.101   4
 -15   6   3 2289.12 533.425   4
  -6  15   3 750.199 290.189   4
   9 -15   6 2050.38 924.889   4
   9 -15   6 3379.84 1167.26   2
  -9  -6   6 2254.13 908.790   4
  15  -9   6 2751.27 886.939   3
 -15   6   6 2423.88 823.901   2
   6   9   6 5312.31 1820.49   3
  15  -9   6 3892.57 1438.45   4
  15  -9   6 1945.95 1076.68   2
  -9  -6   6 4232.28 1224.45   2
 -15   6   6 2280.14 692.436   4
   9 -15   9-591.838 1183.39   2
  -9  -6   9 894.981 776.559   2
 -15   6   9 761.734 780.418   2
  15  -9   9 557.282 843.557   3
 -15   6   9 1053.90 1028.79   4
   6   9   9-501.953 947.547   3
  15  -9   9 670.614 1240.76   4
  -6  15   9 1564.40 1270.56   4
   6   9   9-973.922 977.018   2
   9 -15   9-20.5413 979.701   4
  15  -9   9 560.563 913.274   2
  -9  -6   9-1029.89 916.765   4
  15  -8 -10 3191.75 1493.07   1
   8 -15 -10 1803.57 1378.07   1
  -8  -7 -10 2865.55 1312.59   1
  -8  -7  -7 3948.48 1124.23   1
   7   8  -7 2532.55 607.196   3
   8 -15  -7 625.281 931.165   1
  15  -8  -7 2979.95 1122.23   1
  15  -8  -7 1530.97 830.258   2
  15  -8  -4 6192.57 1240.89   1
   7   8  -4 8671.94 1113.37   3
   8 -15  -4 6393.64 1333.38   1
  -8  -7  -4 7180.07 1123.83   1
  15  -8  -4 4236.01 840.303   2
  15  -8  -1 11359.0 1399.18   3
   7   8  -1 10608.7 1378.86   3
  -8  -7  -1 10440.0 1356.49   2
   8 -15  -1 9750.97 1417.72   3
  -7  15  -1 9745.33 1493.29   2
  -8  -7  -1 9858.03 932.525   1
  -7  15  -1 9386.63 1215.95   4
   8 -15  -1 10629.8 1319.43   1
   8 -15  -1 11543.0 1139.80   2
  15  -8  -1 10376.0 930.754   4
  15  -8  -1 10224.3 1044.14   1
  15  -8  -1 10260.5 1220.69   2
   8 -15  -1 11204.5 833.827   4
  -8  -7  -1 9385.72 1214.46   4
  -8  -7   2 7451.73 1213.33   2
  -8  -7   2 7852.32 989.269   3
  15  -8   2 8033.59 1198.24   3
   8 -15   2 8878.68 1076.66   4
  15  -8   2 6856.60 706.027   1
   7   8   2 7300.03 1410.50   3
  -8  -7   2 5438.09 993.435   1
   8 -15   2 6625.19 844.112   3
  -8  -7   2 7497.98 1111.28   4
  15  -8   2 7266.81 645.358   1
  -7  15   2 7613.08 889.209   2
   8 -15   2 7114.50 1306.81   2
 -15   7   2 8733.95 1008.12   1
  -7  15   2 7553.24 773.209   4
 -15   7   2 6707.82 718.594   4
  -7  15   5 3569.12 740.136   4
  -8  -7   5 4025.54 1111.94   2
  15  -8   5 4806.30 1060.82   3
   8 -15   5 5659.07 1428.56   2
 -15   7   5 3765.61 740.109   4
   7   8   5 1981.02 1258.76   3
 -15   7   5 2962.30 714.006   2
  15  -8   5 3216.42 1122.30   4
   8 -15   5 5334.18 1274.97   4
  15  -8   5 3042.84 801.344   1
  -8  -7   5 3045.08 924.321   4
   8 -15   8 3334.26 1458.55   2
  -8  -7   8 4043.80 1406.11   2
 -15   7   8 1676.58 756.467   2
  15  -8   8 2208.44 1062.39   3
   7   8   8 1070.70 987.173   3
  15  -8   8 4063.82 1583.77   4
  -7  15   8 3384.90 1515.31   4
  15  -8   8 6421.60 1925.12   2
   8 -15   8 2847.45 1518.31   4
  -8  -7   8 3547.43 1225.62   4
 -15   7   8 3614.42 980.485   4
   7 -15  -8 5018.99 1709.03   1
  15  -7  -8 3484.13 1442.68   1
   8   7  -8 3324.86 731.637   3
  -7  -8  -8 3838.71 1332.05   1
   8   7  -8 4881.50 1541.12   1
  15  -7  -5 4258.45 833.583   2
   8   7  -5 2672.36 666.413   3
  15  -7  -5 5283.93 1326.76   1
  15  -7  -5 2967.92 947.900   4
   7 -15  -5 2689.91 923.114   1
  -7  -8  -5 6372.21 1237.34   1
  15  -7  -2 7598.19 1166.49   3
  15  -7  -2 6224.17 990.867   2
   8   7  -2 8060.63 1130.63   3
  15  -7  -2 7570.53 889.972   4
  -7  -8  -2 9193.20 1222.33   2
  15  -7  -2 8068.24 1101.15   1
  -8  15  -2 6574.32 1226.01   4
   7 -15  -2 6148.50 1047.62   1
  -7  -8  -2 7045.24 922.276   1
   7 -15  -2 7080.19 710.523   2
  -8  15   1 9870.58 900.708   4
  -7  -8   1 11477.5 1498.33   2
  -7  -8   1 11739.0 1253.08   3
  15  -7   1 10274.6 1279.22   3
   8   7   1 13200.6 1650.39   3
   7 -15   1 11869.0 1235.57   3
   7 -15   1 11193.6 1488.66   2
  -8  15   1 9091.39 1117.84   2
 -15   8   1 10308.8 907.353   1
  15  -7   1 8764.73 643.422   1
   7 -15   1 10755.2 1070.76   4
  15  -7   1 11140.0 1071.13   4
  -7  -8   1 11156.8 1301.63   4
  15  -7   4 6596.19 1207.06   3
  15  -7   4 5070.98 800.569   1
 -15   8   4 6682.26 853.388   4
  -8  15   4 6490.50 806.572   4
   8   7   4 5308.41 1363.59   3
   8   7   4 5994.34 901.599   1
   7 -15   4 6224.36 1521.92   2
   7 -15   4 5164.57 1091.22   4
  -7  -8   4 8123.88 1335.49   4
  -7  -8   4 7509.70 1411.95   2
   7 -15   7 906.635 1030.38   2
  -7  -8   7 3177.88 1183.09   2
  15  -7   7 2174.01 938.890   3
 -15   8   7 2961.55 748.083   2
   8   7   7 2572.01 1355.74   3
  15  -7   7 2737.26 1514.70   4
  -8  15   7 3367.36 1111.56   4
  15  -7   7 2896.58 1355.08   2
   7 -15   7 3347.66 1277.07   4
 -15   8   7 2062.25 760.020   4
  -7  -8   7 3187.08 1092.57   4
   7 -15  10 608.613 1035.39   2
 -15   8  10 3334.78 1141.54   4
  -7  -8  10 2341.01 1103.83   2
 -15   8  10 2269.17 833.870   2
  15  -7  10 2275.66 1183.89   3
   8   7  10 4404.85 1709.16   3
   8   7  10 2207.22 1566.03   4
  15  -7  10 948.705 1406.73   4
  -8  15  10 3743.33 1702.42   4
   8   7  10 1187.65 1073.49   2
  15  -7  10 2293.35 1341.07   2
   7 -15  10 2855.56 1507.49   4
  -7  -8  10 2361.49 1217.34   4
   9   6  -9 1287.05 1005.73   1
   9   6  -9 764.367 577.497   3
   6 -15  -9-4.74391 1094.48   1
  15  -6  -9 1089.65 971.476   1
  -6  -9  -9-88.6725 862.146   1
   9   6  -6 2319.83 678.004   3
   6 -15  -6 2674.30 1046.98   1
  -6  -9  -6 2796.61 1017.93   1
  15  -6  -6 3292.22 1179.20   1
  15  -6  -3 2566.15 843.513   3
   6 -15  -3 1687.01 305.996   2
   6 -15  -3 609.803 523.164   1
   9   6  -3 1995.71 639.692   3
  -6  -9  -3 1371.42 603.934   1
  15  -6  -3 645.187 504.083   2
  15  -6  -3 2718.66 769.347   1
  -9  15  -3 759.429 668.979   4
  15  -6  -3 1092.16 547.297   4
  15  -6   0 555.720 251.639   1
   6 -15   0 1375.14 569.796   2
  -6  -9   0 396.778 427.460   4
  15  -6   0 694.105 444.569   3
  -6  -9   0 266.790 465.840   3
   9   6   0 387.172 486.994   3
  -6  -9   0 604.260 577.950   2
   6 -15   0 917.281 630.766   3
  15  -6   0 231.712 435.446   2
  -9  15   0-137.410 446.392   2
  -9  15   0 505.464 420.909   4
   6 -15   0 844.091 352.932   4
   6 -15   0 1166.73 503.074   1
  15  -6   0 206.919 282.970   4
  -9  15   3 1592.16 318.025   4
   6 -15   3 1257.63 701.726   2
   6 -15   3 1230.42 191.789   3
  -6  -9   3 1751.03 475.763   3
   6 -15   3 1041.69 207.717   3
 -15   9   3 1583.87 567.531   1
  -6  -9   3 2434.17 912.882   2
  15  -6   3 947.512 434.727   3
  15  -6   3 1687.24 418.921   1
  -6  -9   3 1263.52 573.994   4
 -15   9   3 1348.57 334.889   4
   9   6   3 2188.82 969.215   3
   6 -15   3 339.072 384.660   4
   6 -15   6 2983.87 1277.03   2
  15  -6   6 1093.59 668.463   1
  -6  -9   6 2190.57 923.329   2
  15  -6   6 3001.08 1042.51   3
   9   6   6 1361.73 895.371   3
 -15   9   6 2108.37 626.108   2
   6 -15   6 856.730 849.644   4
  -9  15   6 2339.19 962.809   4
 -15   9   6 1620.04 593.057   4
  -6  -9   6 2740.78 992.688   4
  -6  -9   9 65.0858 797.468   2
 -15   9   9-211.749 505.105   2
  15  -6   9 745.398 1091.28   3
  -6  -9   9 712.318 827.132   4
   9   6   9 1492.71 1336.22   3
   6 -15   9 793.101 1159.53   2
  15  -6   9 1772.20 1512.39   4
   9   6   9 2202.17 1349.21   2
  -9  15   9 396.382 815.463   4
  15  -6   9 2342.02 1635.16   2
   6 -15   9 62.5442 787.806   4
 -15   9   9 378.172 705.108   4
  10   5 -10 649.504 737.882   3
  10   5 -10 768.961 919.396   1
   5 -15 -10 1193.79 1211.21   1
  15  -5 -10 1165.01 1254.32   1
  -5 -10 -10 188.070 1166.73   1
  -5 -10  -7 2804.08 1208.30   1
  10   5  -7 1430.23 536.816   3
  15  -5  -7 1982.16 985.771   1
  10   5  -7 1909.76 866.019   1
   5 -15  -7 1446.10 671.661   1
  15  -5  -4 5306.74 1171.14   3
  10   5  -4 5463.76 912.652   3
  15  -5  -4 6805.77 1239.76   1
   5 -15  -4 5950.97 1260.39   1
  -5 -10  -4 4380.40 1017.12   1
  15  -5  -4 4269.77 922.745   4
  15  -5  -1 14672.9 1571.37   3
  15  -5  -1 12581.6 1447.68   2
  10   5  -1 17740.1 1747.37   3
  -5 -10  -1 14738.1 1501.50   2
  -5 -10  -1 17301.1 1790.09   3
  15  -5  -1 14305.7 1274.37   4
  15  -5  -1 14973.9 1091.16   1
   5 -15  -1 17712.1 1864.73   3
 -10  15  -1 14151.3 1364.90   4
  -5 -10  -1 13699.7 1263.27   1
   5 -15  -1 15007.8 1584.69   1
   5 -15  -1 15614.5 1354.51   2
   5 -15  -1 14455.8 1160.79   4
  -5 -10  -1 16416.1 1563.35   4
  -5 -10   2 5993.06 827.897   3
  15  -5   2 7659.84 1263.55   3
  10   5   2 6256.17 1298.14   3
   5 -15   2 6787.62 744.757   3
 -10  15   2 4483.05 443.300   4
   5 -15   2 5848.73 1160.22   2
   5 -15   2 5929.60 956.132   4
  -5 -10   2 7137.63 1149.68   4
  15  -5   2 4822.43 872.697   4
 -15  10   2 7751.07 995.235   1
  -5 -10   2 6025.62 1162.63   2
   5 -15   5 6246.16 1415.01   2
  15  -5   5 5939.18 945.767   1
  15  -5   5 6845.63 1443.36   3
  -5 -10   5 6640.83 1377.64   2
  10   5   5 6256.18 1433.45   3
  -5 -10   5 5820.17 1242.40   4
 -10  15   5 6575.60 1129.92   4
  10   5   5 6195.56 997.163   1
   5 -15   5 7045.10 1444.58   4
 -15  10   5 6216.18 844.276   4
   5 -15   8 1822.32 1190.58   2
  -5 -10   8-358.779 687.883   4
  -5 -10   8 1163.09 1084.90   2
  15  -5   8 2629.44 1230.97   3
 -15  10   8 749.852 504.072   2
  10   5   8 2150.24 1321.31   3
  15  -5   8 1050.56 1065.89   4
 -15  10   8 1785.51 787.024   4
  15  -5   8-100.375 794.954   2
 -10  15   8 2660.70 1017.72   4
   5 -15   8 595.009 830.829   4
   4 -15  -8 2580.30 1486.41   1
  11   4  -8 1501.93 744.264   3
  -4 -11  -8 1386.25 1084.67   1
  15  -4  -8 3064.91 1302.82   1
  11   4  -8 5095.35 1504.97   1
  15  -4  -5 10452.6 1493.56   3
  11   4  -5 10420.7 1326.53   3
  11   4  -5 13752.9 1782.12   1
  15  -4  -5 11121.7 1644.49   1
   4 -15  -5 9704.27 1677.65   1
  -4 -11  -5 10432.5 1628.61   1
   4 -15  -2 4097.94 647.898   2
   4 -15  -2 3558.24 840.947   1
  15  -4  -2 4129.94 935.600   3
  11   4  -2 4250.76 929.681   3
  -4 -11  -2 5173.50 889.750   2
  15  -4  -2 4071.92 828.088   4
  15  -4  -2 5066.45 790.289   1
 -11  15  -2 4730.97 978.766   4
  -4 -11  -2 4592.67 823.605   1
  15  -4   1 2308.74 569.769   4
  -4 -11   1 3490.17 738.606   3
   4 -15   1 3995.07 948.560   2
  15  -4   1 2973.53 797.781   3
  -4 -11   1 3432.77 902.991   2
  11   4   1 1588.63 730.919   3
   4 -15   1 1919.41 591.130   3
   4 -15   1 3945.24 739.027   4
  -4 -11   1 2668.34 621.646   4
  11   4   4 7358.20 1596.06   3
 -11  15   4 6540.39 799.491   4
  11   4   4 6343.61 792.032   1
  15  -4   4 7693.14 1487.85   3
   4 -15   4 6841.77 1517.74   2
  -4 -11   4 5673.52 1171.21   4
  15  -4   4 6350.65 737.201   1
 -15  11   4 6865.50 682.770   4
   4 -15   4 7750.53 1300.78   4
 -11  15   4 6965.97 618.768   4
  -4 -11   4 7274.58 1495.23   2
   4 -15   7 5103.93 1508.84   2
  -4 -11   7 3474.09 1185.56   4
  15  -4   7 6365.66 1641.82   3
  11   4   7 5224.70 1550.13   3
   4 -15   7 6730.00 1667.54   4
 -15  11   7 5562.89 1116.18   4
 -11  15   7 4987.49 1171.75   4
  -4 -11   7 6596.29 1819.21   2
  15  -4  10 4187.07 1939.05   2
   4 -15  10 4941.86 1843.50   2
  -4 -11  10 3542.09 1493.99   2
  15  -4  10 2644.02 1277.19   3
  11   4  10 1442.10 1265.43   3
  11   4  10 6047.52 2480.25   4
  15  -4  10 5156.08 2185.14   4
  11   4  10 2818.30 1457.54   2
 -11  15  10 2903.17 1295.20   4
   4 -15  10 3441.05 1528.04   4
 -15  11  10 3315.11 1252.76   4
  -4 -11  10 3272.17 1485.70   4
   3 -15  -9 1053.56 1113.54   1
  12   3  -9-642.179 620.498   3
  12   3  -9 949.645 1042.54   1
  -3 -12  -9 984.870 1198.52   1
  15  -3  -9-353.995 819.314   3
  15  -3  -9-98.1722 894.839   1
  15  -3  -6 267.181 602.240   3
  12   3  -6 1463.29 902.050   1
  15  -3  -6 1264.51 712.959   1
  12   3  -6 228.295 395.641   3
   3 -15  -6-195.899 597.925   1
  -3 -12  -6 499.328 541.725   1
  15  -3  -3 2821.26 860.545   3
  -3 -12  -3 2655.84 772.145   1
  12   3  -3 3220.11 766.342   3
  15  -3  -3 2260.94 840.973   4
  15  -3  -3 3355.89 784.036   1
   3 -15  -3 1834.46 416.624   2
   3 -15  -3 1607.77 777.363   1
  15  -3   0 2619.65 775.670   3
   3 -15   0 2245.42 654.868   2
  15  -3   0 2766.34 657.052   4
  12   3   0 3472.89 835.257   3
  -3 -12   0 2609.81 719.677   3
  -3 -12   0 3554.26 901.634   2
   3 -15   0 2923.54 745.528   3
   3 -15   0 3690.41 746.190   4
  -3 -12   0 2748.00 688.379   4
   3 -15   3 40.1339 479.178   2
  -3 -12   3 249.394 256.086   3
   3 -15   3 265.437 127.334   3
  -3 -12   3-416.458 444.530   2
  15  -3   3 952.647 653.927   3
  12   3   3 598.281 627.648   3
   3 -15   3-531.785 570.694   4
  -3 -12   3 351.956 392.607   4
   3 -15   6 2000.42 1025.51   2
  12   3   6 3179.27 841.128   1
  -3 -12   6 5021.28 1471.13   2
  15  -3   6 5856.39 1516.21   3
  12   3   6 5747.44 1571.71   3
  15  -3   6 2766.40 766.878   1
 -15  12   6 3788.38 771.877   4
 -12  15   6 3619.95 839.191   4
   3 -15   6 5544.04 1303.29   4
  -3 -12   6 2251.16 931.608   4
  -3 -12   9 365.054 751.486   4
  -3 -12   9 1045.71 1182.86   2
   3 -15   9 2668.78 1394.32   4
  15  -3   9 823.189 899.073   3
  12   3   9 4.85177 884.011   3
  15  -3   9 572.008 1308.64   4
  12   3   9 882.445 1169.29   2
  15  -3   9 1043.28 1332.19   2
 -12  15   9 347.064 842.814   4
 -15  12   9-801.139 792.306   4
   3 -15   9 448.310 1002.16   2
  13   2 -10-851.856 1044.34   1
  15  -2 -10 1149.32 1070.98   1
  15  -2 -10 1431.39 1033.47   3
  13   2 -10 241.519 867.456   3
   2 -15 -10 346.720 1021.11   1
  -2 -13 -10 418.551 938.484   1
  15  -2  -7 2571.37 988.938   3
  13   2  -7 3149.16 864.390   3
  -2 -13  -7 2148.10 1138.76   1
  15  -2  -7 5319.23 1504.95   1
   2 -15  -7 3710.21 1278.72   1
  13   2  -7 3865.85 1188.88   1
  -2 -13  -4 4153.93 1145.20   1
  15  -2  -4 4887.68 1047.97   3
  13   2  -4 3636.19 906.573   3
   2 -15  -4 3685.52 1059.01   1
  13   2  -4 6401.12 1178.50   1
  15  -2  -4 5779.92 1100.00   1
  -2 -13  -1 9750.88 1210.19   2
  15  -2  -1 9779.77 1332.12   3
  13   2  -1 10472.9 1384.22   3
  -2 -13  -1 10685.1 1543.05   3
   2 -15  -1 8680.56 1427.62   3
  -2 -13  -1 10017.2 1292.24   1
   2 -15  -1 10473.5 1371.86   1
  15  -2  -1 7655.05 1103.19   4
   2 -15  -1 10252.1 1155.57   4
  -2 -13  -1 8202.55 1121.64   4
   2 -15  -1 10774.5 1249.28   2
   2 -15   2 307.159 602.482   2
  -2 -13   2 1324.25 408.975   3
  -2 -13   2-380.381 606.990   2
  13   2   2 474.060 611.199   3
  15  -2   2 1268.57 717.347   3
   2 -15   2 744.222 344.723   3
   2 -15   2 791.822 504.437   4
 -15  13   2 1166.93 509.071   1
  -2 -13   2 1449.15 572.925   4
  13   2   5 569.295 383.364   1
   2 -15   5 1011.94 807.607   4
  -2 -13   5 1702.03 1076.27   2
  15  -2   5 1164.19 450.522   1
  15  -2   5 285.105 782.436   3
  13   2   5 1758.60 1022.32   3
 -13  15   5 413.520 334.619   4
 -15  13   5-209.706 213.146   4
  -2 -13   5 992.930 749.725   4
   2 -15   5 1392.91 786.801   2
   2 -15   8 2000.57 1286.11   2
  -2 -13   8-367.021 1117.60   2
 -15  13   8 910.700 776.387   4
  15  -2   8 1283.78 949.047   3
  13   2   8 1317.55 1023.88   3
 -13  15   8 1642.27 952.100   4
   2 -15   8-633.567 696.745   4
  -2 -13   8 46.2801 745.271   4
  -1 -14  -8 1013.15 966.542   1
  15  -1  -8 3058.96 1043.48   3
  14   1  -8 3091.06 992.625   3
  14   1  -8 2565.67 1103.32   1
  15  -1  -8 286.013 772.203   1
   1 -15  -8 510.202 904.991   1
  15  -1  -5 3927.44 1038.65   3
  14   1  -5 6647.41 1306.94   1
   1 -15  -5 5115.17 1273.64   1
  -1 -14  -5 4922.37 1167.95   1
  14   1  -5 3886.80 967.298   3
  15  -1  -5 7081.99 1391.87   1
  -1 -14  -2 2996.38 819.423   1
   1 -15  -2 4111.93 924.043   1
   1 -15  -2 4532.62 739.439   2
  -1 -14  -2 5513.31 847.120   2
  15  -1  -2 3896.13 855.868   3
  14   1  -2 4239.52 939.446   3
  15  -1  -2 4599.01 730.566   1
  15  -1   1 6236.01 1228.57   3
  14   1   1 6717.45 1249.28   3
  -1 -14   1 7231.04 976.755   3
   1 -15   1 10278.8 1188.27   3
   1 -15   1 6586.93 984.594   4
  -1 -14   1 7189.20 1006.31   4
  -1 -14   1 7700.27 1308.92   2
   1 -15   1 8070.21 1340.30   2
   1 -15   4 5360.33 1308.96   2
   1 -15   4 2819.52 864.163   4
  15  -1   4 4450.43 1127.60   3
  14   1   4 3030.77 1047.37   3
  14   1   4 4324.47 550.416   1
  15  -1   4 3765.01 475.549   1
  -1 -14   4 6476.02 1192.55   4
  -1 -14   4 4744.69 1267.93   2
   1 -15   7 2458.65 1144.09   2
  -1 -14   7 3957.41 1355.14   2
  15  -1   7 2205.80 1091.56   3
  14   1   7 4368.69 1337.33   3
 -15  14   7 3267.31 872.051   4
   1 -15   7 4452.74 1302.10   4
  -1 -14   7 2907.58 1176.14   4
 -14  15   7 3823.40 895.459   4
  15  -1  10 32.3428 988.261   2
   1 -15  10 1884.14 1457.83   2
  -1 -14  10 1217.50 1331.44   2
 -14  15  10 254.486 821.056   4
  15  -1  10 2104.53 1353.59   3
  14   1  10 3878.80 1590.65   3
  14   1  10 368.415 1334.80   4
   1 -15  10 3117.83 1434.53   4
  15  -1  10 3736.54 1889.31   4
  14   1  10 1250.41 1331.32   2
 -15  14  10 919.691 892.558   4
  -1 -14  10 295.398 874.459   4
   0 -15  -9 476.941 1073.36   1
  15   0  -9 2299.45 1011.77   3
  15   0  -9 1849.24 1080.24   1
  15   0  -6 7764.35 1502.74   1
  15   0  -6 7725.16 1400.22   3
   0 -15  -6 6737.30 1638.10   1
   0 -15  -3 2578.92 815.459   1
   0 -15  -3 3564.49 696.171   2
  15   0  -3-26.9578 428.130   1
   0 -15   0 11002.2 1405.16   2
  15   0   0 10993.4 1560.52   3
   0 -15   0 10001.3 1360.68   3
   0 -15   0 11920.5 1358.78   4
   0 -15   3 125.907 256.050   3
   0 -15   3 75.6066 486.229   2
   0 -15   3 115.478 414.009   4
  15   0   3 304.465 609.573   3
   0 -15   6 5898.56 1542.70   2
  15   0   6 3139.75 741.765   1
  15   0   6 5119.04 1511.58   3
 -15  15   6 5259.86 755.465   4
   0 -15   6 3145.53 1201.01   4
  15   0   9 407.431 1238.96   2
   0 -15   9 741.024 1065.32   2
   0 -15   9 125.065 998.853   4
  15   0   9 1102.80 1024.48   3
 -15  15   9 935.339 749.295   4
 -16   0  -7 401.958 647.499   1
  16 -16  -7 46.7150 723.303   1
 -16   0  -4 4167.22 477.234   1
   0  16  -4 3501.03 486.969   3
  16 -16  -4 3385.28 526.735   2
  16 -16  -4 4029.42 491.890   2
  16 -16  -1 108.592 372.556   1
   0  16  -1-103.381 459.470   3
  16 -16   2 7319.00 993.705   3
 -16   0   2 8995.61 1510.69   2
   0  16   2 10011.3 1819.18   3
  16 -16   2 11180.7 1813.89   2
  16 -16   2 9699.08 1176.99   4
   0  16   2 8620.87 1424.20   2
 -16   0   2 9434.64 1226.08   4
 -16   0   2 9219.34 1145.65   1
   0  16   5-167.914 491.816   2
  16 -16   5-258.006 448.711   3
 -16   0   5-589.910 746.047   2
   0  16   5 21.1155 938.320   3
  16 -16   5 1145.66 688.862   4
  16 -16   5-805.444 1054.94   2
 -16   0   5 1004.68 578.108   4
  16 -16   8 6987.68 1232.62   3
 -16   0   8 8160.12 1789.40   2
   0  16   8 7728.88 2368.82   3
  16 -16   8 12342.4 2363.38   4
   0  16   8 4510.71 934.750   2
 -16   0   8 8730.73 1705.59   4
  16 -16   8 9644.30 2305.19   2
  15 -16  -8-555.348 989.567   1
  16 -15  -8 2165.54 1245.86   1
 -16   1  -8 1352.29 786.338   1
 -15  -1  -8 985.857 781.475   1
  16 -15  -5 537.626 201.291   2
  15 -16  -5 1661.10 936.817   1
 -15  -1  -5 1518.10 558.138   1
 -16   1  -5 1207.96 475.496   1
  16 -15  -5 780.536 714.819   1
  15 -16  -2 1095.51 633.479   1
  16 -15  -2 852.707 640.838   1
   1  15  -2 648.058 607.462   3
  -1  16  -2 175.853 388.076   3
  16 -15  -2 28.0747 324.341   2
  15 -16  -2 842.952 515.184   2
 -15  -1   1 3445.54 784.760   4
  15 -16   1 4291.73 778.008   3
  -1  16   1 4876.97 1128.29   2
  16 -15   1 4643.64 888.927   3
 -15  -1   1 3548.91 598.851   1
  15 -16   1 4551.95 1056.01   2
   1  15   1 4595.57 1222.63   3
  -1  16   1 5231.81 1278.11   3
 -15  -1   1 3681.27 919.511   2
  15 -16   1 4180.06 824.911   1
  16 -15   1 5069.64 868.641   1
  15 -16   1 3817.96 568.265   4
  16 -15   1 4041.03 1036.82   2
  16 -15   1 2545.11 548.118   4
 -16   1   1 4184.20 578.742   1
 -16   1   1 4512.99 875.743   4
  -1  16   4 240.372 501.535   2
   1  15   4 163.003 499.622   2
  15 -16   4 919.109 419.670   3
  16 -15   4-54.5247 373.272   3
  16 -15   4 1393.78 1004.12   2
 -15  -1   4 137.870 554.939   2
 -16   1   4 655.291 565.366   2
   1  15   4 212.684 817.810   3
  -1  16   4 499.788 788.896   3
  16 -15   4 1256.29 728.341   4
  15 -16   4 583.267 651.597   4
  15 -16   4 1200.95 1067.62   2
 -15  -1   4 1376.67 642.552   4
 -16   1   4-515.651 452.933   4
 -16   1   7 1955.35 895.162   4
 -15  -1   7 905.287 842.189   2
  16 -15   7 904.130 936.212   2
 -16   1   7 213.661 716.095   2
  16 -15   7 778.475 583.433   3
  15 -16   7 290.555 426.257   3
   1  15   7 234.350 1124.76   3
  -1  16   7 1052.10 1212.42   3
  16 -15   7-329.917 719.646   4
  15 -16   7 282.840 697.219   4
 -15  -1   7 1212.39 715.572   4
  15 -16   7 1387.88 1190.73   2
  14 -16  -9 3047.39 1445.79   1
 -16   2  -9 1617.09 1061.79   1
  16 -14  -9 1276.88 1163.19   1
 -14  -2  -9 818.176 1116.07   1
  16 -14  -6 2503.48 1156.19   1
 -16   2  -6 1945.29 704.710   1
  14 -16  -6 1020.83 796.853   1
  16 -14  -6 978.195 301.226   2
 -14  -2  -6 1949.16 725.591   1
  16 -14  -3 6486.55 824.132   2
  14 -16  -3 5958.96 561.991   2
 -14  -2  -3 4646.50 553.386   1
   2  14  -3 7668.77 1008.64   3
  14 -16  -3 6118.14 692.193   2
  14 -16  -3 8378.28 1350.45   1
  16 -14  -3 10080.9 1534.31   1
  -2  16   0 1921.50 805.481   2
  16 -14   0 1016.53 220.137   4
 -14  -2   0 899.209 479.399   4
  16 -14   0 1654.38 544.762   1
  16 -14   0 1152.66 527.691   3
   2  14   0 617.831 567.118   3
  -2  16   0 1418.83 714.421   3
 -14  -2   0 1890.43 641.570   2
  16 -14   0 1188.08 297.390   4
  14 -16   0 873.316 614.213   2
 -14  -2   0 1336.95 351.114   1
  14 -16   0 1066.87 208.384   4
  14 -16   0 1379.01 599.787   1
  14 -16   3 7351.73 947.825   3
  16 -14   3 6275.59 972.350   3
 -14  -2   3 8360.01 1459.58   2
 -16   2   3 8511.08 1357.74   2
   2  14   3 10374.5 1900.38   3
  -2  16   3 8093.11 1765.90   3
 -14  -2   3 4925.82 1060.76   1
  14 -16   3 4274.55 1192.40   2
  16 -14   3 6921.77 1270.78   4
  14 -16   3 6131.51 1120.82   4
  -2  16   3 9317.95 1316.47   2
  16 -14   3 6466.45 1422.15   2
 -14  -2   3 7732.82 1223.73   4
 -16   2   3 8125.57 1127.65   4
   2  14   3 5915.63 1125.46   2
 -16   2   3 6094.21 1125.04   1
 -14  -2   6 1858.96 793.703   4
  16 -14   6 4205.81 1466.73   2
  -2  16   6 1609.89 591.416   2
   2  14   6 1325.76 612.782   2
 -14  -2   6 1320.26 830.152   2
  16 -14   6 834.321 586.393   3
  14 -16   6 592.129 421.514   3
 -16   2   6 1383.19 742.762   2
   2  14   6 11.1041 844.375   3
  -2  16   6 1510.77 1001.90   3
  16 -14   6 3091.08 1402.80   4
  14 -16   6 2337.31 1152.62   4
 -16   2   6 1017.63 568.380   4
  14 -16   6 181.316 815.901   2
 -14  -2   9 4070.17 1526.34   2
  16 -14   9 2433.52 1430.47   4
 -16   2   9 3073.52 1172.97   2
   2  14   9 1173.95 748.220   2
  16 -14   9 1721.70 762.201   3
   2  14   9 2005.63 1406.25   3
  -2  16   9 2994.69 1439.68   4
  14 -16   9 1974.66 1224.15   4
  14 -16   9 1730.70 1139.41   2
  16 -14   9 3484.14 1744.58   2
 -14  -2   9 1308.74 993.458   4
 -16   2   9 2811.22 1151.12   4
  13 -16 -10 2602.59 1680.56   1
 -16   3 -10 3812.60 1313.72   1
 -13  -3 -10 2916.75 1190.80   1
  16 -13 -10 3972.91 1569.26   1
 -13  -3  -7 1816.42 777.424   1
  13 -16  -7 1783.65 1109.25   1
 -16   3  -7 2038.00 744.474   1
   3  13  -7 505.022 230.256   3
 -13  -3  -4 9654.00 1086.00   1
   3  13  -4 8264.29 926.388   3
  13 -16  -4 12653.7 1808.67   1
  16 -13  -4 11207.8 1733.77   1
  16 -13  -4 8816.52 923.775   2
  13 -16  -1 959.120 523.287   1
  16 -13  -1-393.572 458.545   3
 -13  -3  -1 393.297 148.214   1
  16 -13  -1 415.238 334.091   1
   3  13  -1 1341.36 594.667   3
 -13  -3  -1 421.207 263.555   1
  13 -16  -1 1550.67 547.733   2
  13 -16   2 16601.7 1296.30   3
  16 -13   2 16385.3 1521.87   3
 -13  -3   2 19940.5 2065.40   2
 -16   3   2 16747.4 1915.75   2
   3  13   2 17703.7 2263.91   3
 -13  -3   2 16039.8 1584.14   1
  -3  16   2 19115.0 2367.04   3
  16 -13   2 17327.2 1650.25   4
  13 -16   2 20770.7 2292.37   2
  13 -16   2 16427.4 1474.99   4
  -3  16   2 14552.7 1615.92   2
 -16   3   2 20362.7 1539.41   1
  -3  16   2 15212.1 1473.02   4
 -13  -3   2 13441.8 1499.19   4
 -16   3   2 15663.1 1430.36   4
   3  13   2 15639.9 1753.75   2
  -3  16   5 2134.82 607.483   2
  16 -13   5 705.663 617.190   3
   3  13   5 1454.18 670.725   2
  13 -16   5 741.798 391.826   3
 -13  -3   5 1444.32 935.286   2
 -16   3   5 2096.25 742.727   2
   3  13   5-185.567 756.607   3
  13 -16   5 1821.46 1271.90   2
  -3  16   5 2067.50 1197.77   3
  16 -13   5 1222.93 854.172   4
 -13  -3   5 2856.70 861.148   4
  16 -13   5 406.382 689.466   2
  13 -16   5 2005.88 930.085   4
 -16   3   5 1496.92 655.688   4
 -13  -3   8 3668.45 1301.01   2
  13 -16   8 3973.12 1759.23   2
 -16   3   8 3872.50 1087.93   4
  16 -13   8 3951.78 1655.31   4
 -16   3   8 4044.72 1380.10   2
  16 -13   8 3399.77 1086.15   3
   3  13   8 5114.45 1959.67   3
  13 -16   8 6997.98 1881.31   4
  16 -13   8 4258.17 1595.88   2
 -13  -3   8 4551.41 1237.21   4
 -12  -4  -8 29.0809 752.293   1
  12 -16  -8-537.997 751.190   1
   4  12  -8 271.313 253.567   3
  16 -12  -8 1423.67 959.153   1
 -16   4  -8-648.822 657.467   1
  16 -12  -5 3019.76 631.716   2
   4  12  -5 3649.55 611.315   3
 -12  -4  -5 4162.33 866.101   1
  12 -16  -5 2653.93 894.963   1
  12 -16  -2 2749.13 805.877   1
   4  12  -2 2877.57 724.581   3
  16 -12  -2 2179.75 579.812   2
  16 -12  -2 1719.79 676.476   1
  16 -12  -2 1037.22 196.883   4
 -12  -4  -2 2517.55 485.098   1
  12 -16  -2 2097.40 496.022   2
  16 -12   1 7726.69 1069.83   3
 -12  -4   1 9499.70 1404.80   2
   4  12   1 8188.69 1467.41   3
  12 -16   1 9303.09 1434.18   2
  16 -12   1 8805.59 1082.70   4
  12 -16   1 8653.00 1229.49   1
 -12  -4   1 8998.54 1072.82   1
  16 -12   1 8968.12 960.572   1
  -4  16   1 8753.68 1285.24   2
  12 -16   1 10122.9 946.861   4
  -4  16   1 7508.64 1030.63   4
 -12  -4   1 9904.99 1271.70   4
 -16   4   1 5795.69 850.448   4
 -16   4   1 8127.03 720.533   1
  -4  16   4 634.138 488.040   4
  -4  16   4 822.282 400.885   2
  16 -12   4 2603.09 1372.85   2
  16 -12   4 798.251 610.874   1
  12 -16   4 811.463 316.280   3
  16 -12   4 1090.83 628.871   3
   4  12   4 2169.12 803.091   2
 -12  -4   4 1025.81 608.685   2
  12 -16   4 1712.78 750.561   4
   4  12   4 51.9113 808.795   3
 -16   4   4 1158.88 640.416   2
  16 -12   4 1746.97 815.524   4
 -16   4   4 1194.07 498.806   4
  12 -16   4 1547.69 1091.11   2
 -12  -4   4 1116.44 701.977   4
  12 -16   7 5728.14 1707.72   2
 -12  -4   7 3174.26 1206.08   2
 -12  -4   7 2068.18 807.053   4
  16 -12   7 2018.14 904.875   3
 -16   4   7 3093.16 1135.31   2
   4  12   7 2441.94 1025.87   3
  12 -16   7 1200.76 319.681   3
  16 -12   7 2694.26 1402.15   4
  12 -16   7 1971.36 977.367   4
  16 -12   7 2842.88 1310.38   2
 -16   4   7 3313.35 1011.36   4
 -12  -4  10-158.964 851.569   2
 -16   4  10 1857.36 1136.04   2
   4  12  10-1030.78 1610.86   3
   4  12  10-274.171 1140.78   4
  -4  16  10 371.571 1546.52   4
   4  12  10 888.217 991.575   2
  12 -16  10 2446.78 1566.81   4
  16 -12  10 92.8593 1073.17   2
 -16   4  10-407.629 980.186   4
 -12  -4  10-329.883 961.453   4
  16 -12  10-167.796 1160.63   4
  12 -16  10 29.8016 1267.78   2
 -11  -5  -9 1481.10 1055.51   1
 -16   5  -9 820.413 814.953   1
  11 -16  -9-64.2453 934.550   1
  16 -11  -9 2669.22 1355.09   1
  16 -11  -6 308.169 516.730   2
   5  11  -6-63.4361 313.199   3
  16 -11  -6-138.873 644.286   1
 -11  -5  -6 1491.28 724.580   1
  11 -16  -6 369.948 762.681   1
  11 -16  -3 2023.81 807.771   1
   5  11  -3 717.793 411.868   3
  16 -11  -3 900.644 479.983   2
 -11  -5  -3 829.057 420.184   1
  16 -11  -3 895.439 323.900   4
  16 -11  -3 2216.72 824.051   1
 -11  -5   0 209.884 264.056   1
  16 -11   0 772.693 439.864   3
  16 -11   0 1086.97 441.140   1
  16 -11   0 991.322 300.728   4
   5  11   0 374.332 462.374   3
  -5  16   0 1925.98 763.309   2
  11 -16   0 1485.93 581.586   1
 -11  -5   0 1533.31 674.410   2
 -11  -5   0 228.228 398.475   4
  11 -16   0 1129.13 556.019   2
  -5  16   0 874.538 544.240   4
  11 -16   0 1126.97 325.739   4
  11 -16   3 2470.70 449.332   3
  16 -11   3 1154.57 492.555   1
  -5  16   3 943.699 392.628   2
 -11  -5   3 2306.96 904.421   1
  16 -11   3 962.115 560.807   3
  11 -16   3 748.717 634.514   2
 -11  -5   3 1060.82 745.288   2
 -16   5   3 1184.80 605.357   1
   5  11   3 792.502 880.429   3
 -16   5   3 1178.38 420.636   4
 -16   5   3 809.135 529.626   2
  16 -11   3 1770.13 781.331   4
  11 -16   3 1329.52 508.454   4
 -11  -5   3 2268.35 770.565   4
  -5  16   3 1388.84 539.083   4
 -16   5   6-333.511 494.444   4
  11 -16   6 1032.44 1024.52   2
 -11  -5   6 740.903 921.610   2
  16 -11   6-346.468 562.907   3
 -16   5   6-247.680 516.000   2
   5  11   6 1003.25 1086.80   3
  16 -11   6 551.904 999.793   4
  16 -11   6 76.2338 985.843   2
  11 -16   6 727.719 922.901   4
 -11  -5   6 118.842 618.064   4
 -16   5   9 3516.54 1195.82   4
 -11  -5   9 3443.05 1359.40   2
 -16   5   9 2218.93 1100.87   2
  16 -11   9 851.989 886.412   3
   5  11   9 1241.85 1220.12   3
  11 -16   9 5660.32 1889.49   2
  -5  16   9 3939.92 1699.90   4
   5  11   9 2086.91 1037.68   2
  16 -11   9 1454.15 1256.17   4
  11 -16   9 2143.93 1334.34   4
  16 -11   9 3358.53 1664.83   2
 -11  -5   9 3690.76 1391.73   4
  16 -10 -10 3329.14 1786.45   1
 -10  -6 -10 1669.17 1321.23   1
  10 -16 -10 3932.03 1991.58   1
   6  10  -7 1382.41 533.097   3
  10 -16  -7 1697.58 1107.42   1
 -10  -6  -7 333.158 682.153   1
  16 -10  -7 2753.27 1283.83   1
  10 -16  -4 7930.50 1467.18   1
   6  10  -4 5943.53 927.422   3
  16 -10  -4 6479.67 964.808   2
  16 -10  -4 6366.51 948.640   4
 -10  -6  -4 6811.61 1091.07   1
  16 -10  -4 8536.75 1449.54   1
  10 -16  -1-145.717 341.634   1
  10 -16  -1 625.758 447.989   2
  10 -16  -1 442.860 204.653   4
 -10  -6  -1-614.423 561.610   4
  16 -10  -1-75.5427 391.439   3
   6  10  -1 87.2111 419.240   3
  16 -10  -1-198.966 266.714   1
  16 -10  -1 723.558 495.112   2
 -10  -6  -1-636.469 469.520   2
  10 -16  -1 350.747 592.368   3
 -10  -6  -1 51.3250 260.087   1
  16 -10  -1 267.239 268.761   4
  -6  16  -1 1002.51 723.005   2
  -6  16  -1-115.076 451.907   4
  10 -16   2 3630.84 539.941   3
 -10  -6   2 2628.55 641.936   3
  -6  16   2 3889.70 671.555   4
  16 -10   2 3902.05 832.255   3
 -10  -6   2 4121.17 1023.85   2
   6  10   2 6547.78 1308.51   3
 -16   6   2 4695.18 707.347   4
  16 -10   2 4815.67 648.217   1
  10 -16   2 4132.85 817.083   4
 -16   6   2 4336.93 771.537   1
  10 -16   2 3244.44 1046.08   2
  -6  16   2 3951.82 740.782   2
 -10  -6   2 4332.85 908.670   1
 -10  -6   2 4570.25 882.723   4
  -6  16   5 1945.48 558.028   4
 -10  -6   5 2212.56 806.180   4
 -10  -6   5 2132.23 646.458   2
  16 -10   5 2269.82 887.043   3
   6  10   5 2136.18 1269.93   3
 -16   6   5 2322.35 789.480   2
  16 -10   5 1931.89 888.009   4
  16 -10   5 2470.75 799.509   1
  10 -16   5 3024.96 1076.22   4
 -16   6   5 2745.63 731.063   4
  10 -16   5 4540.57 1408.95   2
  16 -10   5 3045.34 1307.62   2
 -10  -6   8 6049.86 1486.95   2
 -16   6   8 5816.26 1298.95   2
  16 -10   8 2479.86 1041.15   3
   6  10   8 8753.11 2214.59   3
  -6  16   8 7951.80 1988.86   4
  16 -10   8 4876.38 1757.36   4
  16 -10   8 7476.65 1997.85   2
  10 -16   8 5865.92 1838.88   4
 -16   6   8 4932.69 1204.31   4
 -10  -6   8 4095.75 1310.72   4
  10 -16   8 5014.52 1691.72   2
   7   9  -8 1999.39 605.806   3
  -9  -7  -8 853.256 856.257   1
  16  -9  -8 1683.48 1232.35   1
   7   9  -5 6211.76 940.949   3
  16  -9  -5 7796.38 1399.40   1
  16  -9  -5 3249.64 849.352   2
   9 -16  -5 4545.06 1262.83   1
  16  -9  -5 5570.55 1102.36   4
  -9  -7  -5 6973.97 1305.00   1
  16  -9  -2 10730.5 1452.74   3
  16  -9  -2 8629.86 1100.89   2
   7   9  -2 9950.15 1289.49   3
  -7  16  -2 8064.21 1418.64   4
   9 -16  -2 8421.47 1273.42   1
  16  -9  -2 8990.18 897.679   4
  -9  -7  -2 7284.29 888.994   1
   9 -16  -2 9232.89 844.014   2
  16  -9  -2 8861.76 1217.97   1
  16  -9   1 2378.39 527.533   4
  16  -9   1 3971.59 873.965   3
   9 -16   1 3349.58 865.223   2
  -9  -7   1 3338.49 730.813   3
  -7  16   1 2703.78 518.962   4
  -9  -7   1 2650.06 702.616   1
  16  -9   1 3117.47 481.083   1
   7   9   1 4361.29 1131.48   3
  -9  -7   1 3095.77 867.674   2
   9 -16   1 3383.95 791.170   3
  -7  16   1 3913.92 876.040   2
 -16   7   1 2787.90 469.431   1
   9 -16   1 3639.81 619.266   4
  -9  -7   1 3392.19 835.440   4
  16  -9   4 2192.14 613.278   1
  16  -9   4 4283.27 968.494   3
  -9  -7   4 4449.55 1087.42   2
 -16   7   4 3359.52 689.932   4
  -7  16   4 3038.29 625.280   4
   7   9   4 3860.39 1221.71   3
 -16   7   4 3093.74 798.789   2
  -9  -7   4 4856.71 1170.57   4
   7   9   4 2673.69 665.549   1
   9 -16   4 4659.80 1028.13   4
   9 -16   4 5332.58 1371.97   2
   9 -16   7 4370.66 1662.71   2
  -9  -7   7 1423.26 1041.59   2
   9 -16   7 3324.82 1202.55   4
  16  -9   7 1288.04 689.629   3
  -7  16   7 3522.80 1382.43   4
 -16   7   7 2674.86 832.565   2
   7   9   7 3412.24 1721.07   3
  16  -9   7 3260.76 1426.56   4
  16  -9   7 2731.62 1299.84   2
 -16   7   7 2415.20 849.224   4
  -9  -7   7 1127.03 594.720   4
   9 -16  10 4127.74 1873.82   2
   9 -16  10 1522.37 1206.93   4
  -9  -7  10 2120.19 1339.39   2
 -16   7  10 2020.00 868.567   2
  16  -9  10 118.452 871.876   3
   7   9  10 4148.18 1839.02   3
  16  -9  10 2021.70 1567.28   4
  -7  16  10 2707.57 1435.77   4
   7   9  10-443.885 892.266   2
  16  -9  10 3325.37 1380.06   2
 -16   7  10 277.710 855.323   4
  -9  -7  10 2206.86 1153.79   4
  16  -8  -9 1953.30 1220.74   1
   8 -16  -9 949.433 881.706   1
   8   8  -9 938.412 576.805   3
  -8  -8  -9 467.456 1038.81   1
  -8  -8  -6 1110.67 739.111   1
  16  -8  -6-90.4450 552.283   2
   8   8  -6 237.219 397.046   3
   8 -16  -6 254.264 792.005   1
  16  -8  -6 365.216 786.558   1
  16  -8  -3 175.625 406.995   3
   8 -16  -3 258.230 552.734   1
  16  -8  -3 958.468 501.945   1
   8   8  -3-324.309 433.238   3
  16  -8  -3 1306.51 524.990   2
  -8  -8  -3 581.982 392.626   1
   8 -16  -3 189.926 109.522   2
  16  -8  -3 153.098 355.922   4
  16  -8   0 3855.72 946.387   3
   8 -16   0 5915.06 1112.02   3
   8   8   0 4275.41 970.975   3
  -8  -8   0 4408.00 937.470   2
  -8  16   0 4850.78 1043.58   2
  -8  16   0 3944.59 757.889   4
   8 -16   0 5605.66 954.677   2
  16  -8   0 5642.34 702.061   1
   8 -16   0 4479.49 625.682   4
   8 -16   0 3705.66 882.436   1
  -8  -8   0 5144.70 977.494   4
  16  -8   0 4468.45 650.689   4
 -16   8   3 699.770 341.401   4
   8 -16   3 41.2595 635.472   2
  -8  -8   3-284.898 336.161   3
   8 -16   3 341.257 181.603   3
  16  -8   3 374.914 304.256   1
 -16   8   3 914.914 543.680   1
  16  -8   3 798.543 537.321   3
  -8  -8   3 596.643 636.471   4
  -8  -8   3 262.106 476.737   2
   8   8   3 916.304 827.545   3
   8 -16   3 708.549 297.284   3
  -8  16   3 303.967 239.647   4
   8 -16   3 784.792 459.586   4
   8 -16   6 1235.77 995.581   2
  -8  -8   6 493.848 593.849   2
  16  -8   6 890.299 737.113   1
  -8  -8   6 1033.80 819.736   4
  16  -8   6-64.7536 520.919   3
   8   8   6 2284.79 1283.45   3
 -16   8   6 423.176 523.552   2
  -8  16   6 1330.87 752.548   4
  16  -8   6 1443.15 1119.35   4
  16  -8   6 1411.56 952.145   2
   8 -16   6 1709.55 962.723   4
 -16   8   6 1147.80 579.261   4
   8 -16   9-515.653 1018.87   2
  -8  -8   9 1379.14 1107.67   4
  -8  -8   9 1010.52 1104.54   2
  16  -8   9 394.346 910.861   4
 -16   8   9 707.832 884.297   4
 -16   8   9-633.671 719.646   2
  16  -8   9 1207.25 997.885   3
   8   8   9-458.509 1233.55   3
   8   8   9 1119.50 832.010   2
  -8  16   9 637.011 922.310   4
  16  -8   9-201.981 1132.01   2
   8 -16   9-165.436 958.932   4
   7 -16 -10 841.663 1107.10   1
  16  -7 -10 4260.26 1561.52   1
  -7  -9 -10 2559.65 1645.91   1
  -7  -9  -7 3352.42 1173.80   1
   9   7  -7 2732.08 743.215   3
   7 -16  -7 588.527 767.199   1
  16  -7  -7 1405.75 847.013   1
  16  -7  -4 4733.75 1034.68   3
  16  -7  -4 4941.46 1153.34   1
   9   7  -4 3821.04 817.233   3
  16  -7  -4 2868.78 753.360   2
  16  -7  -4 2179.96 765.878   4
   7 -16  -4 1566.11 833.135   1
  -7  -9  -4 2980.42 846.175   1
  -7  -9  -1 2201.39 659.461   4
  16  -7  -1 3086.83 599.427   1
   7 -16  -1 2871.63 665.715   2
  16  -7  -1 2181.82 538.765   3
   7 -16  -1 3160.82 535.764   4
   9   7  -1 2483.93 775.512   3
  16  -7  -1 2521.29 693.442   2
  -7  -9  -1 3053.93 752.598   2
   7 -16  -1 2322.66 823.419   3
  -7  -9  -1 2968.47 639.846   1
  -9  16  -1 2513.31 849.537   2
  -9  16  -1 2645.98 706.640   4
  16  -7  -1 2730.98 599.151   4
   7 -16  -1 3920.96 846.039   1
  -7  -9   2 7934.85 1347.63   2
  16  -7   2 7348.96 1037.62   4
  -7  -9   2 8876.65 1041.77   3
  16  -7   2 10055.0 1356.04   3
   9   7   2 6345.67 1327.00   3
   7 -16   2 6238.13 821.521   3
  -7  -9   2 6016.58 1073.09   1
  16  -7   2 6426.14 490.155   1
  16  -7   2 5174.37 507.278   1
   7 -16   2 8486.89 1380.09   2
 -16   9   2 8698.70 1012.91   1
  -9  16   2 7600.42 717.902   4
   7 -16   2 7707.48 1057.70   4
  -7  -9   2 8224.86 1189.18   4
 -16   9   2 7843.94 740.307   4
   7 -16   5 6144.68 1602.25   2
  16  -7   5 6802.23 1079.99   1
  16  -7   5 5710.77 1280.32   3
  -7  -9   5 7395.36 1462.81   2
   9   7   5 5820.69 1520.00   3
   9   7   5 6002.21 968.837   1
   7 -16   5 6839.11 1329.24   4
  -7  -9   5 7950.06 1432.19   4
 -16   9   5 5035.19 799.544   4
  -9  16   5 6009.73 1199.16   4
  -9  16   5 5186.02 759.892   4
   7 -16   8 1944.50 1374.66   2
  -7  -9   8 2474.05 1252.39   2
  16  -7   8 776.068 740.140   3
 -16   9   8 2610.88 812.137   2
   9   7   8 3088.41 1658.88   3
  16  -7   8 3759.32 1515.62   4
  -9  16   8 3026.99 1227.36   4
   7 -16   8 2300.40 1166.62   4
 -16   9   8 2443.22 928.647   4
  -7  -9   8 1579.17 1022.91   4
  16  -7   8 2785.47 1367.95   2
  10   6  -8 4792.54 976.816   3
  10   6  -8 2282.72 994.243   1
  -6 -10  -8 3852.45 1179.01   1
   6 -16  -8 3939.23 1450.75   1
  16  -6  -5 2878.47 914.690   3
  10   6  -5 3589.88 833.984   3
  16  -6  -5 1145.17 698.066   1
   6 -16  -5 2351.39 938.707   1
  -6 -10  -5 1107.89 556.363   1
  16  -6  -2 5540.34 1079.31   3
   6 -16  -2 3469.23 915.288   1
  -6 -10  -2 6134.72 1070.37   2
  16  -6  -2 4211.26 781.560   1
  10   6  -2 3375.02 861.838   3
  16  -6  -2 3961.57 687.895   4
  -6 -10  -2 3661.62 756.158   1
 -10  16  -2 2902.49 826.496   4
   6 -16  -2 5297.89 708.879   2
  16  -6   1-342.657 274.507   4
   6 -16   1 153.006 470.142   2
  -6 -10   1 333.623 316.681   3
  16  -6   1 560.822 431.986   3
  10   6   1 741.289 740.996   3
  -6 -10   1 1093.08 742.436   2
   6 -16   1 195.944 378.524   3
 -10  16   1 670.122 298.764   4
 -16  10   1 207.842 243.398   1
   6 -16   1-260.826 371.478   4
  -6 -10   1-301.358 387.158   4
  16  -6   4 7508.11 1336.28   3
  10   6   4 7522.22 1594.90   3
   6 -16   4 10056.1 1738.35   2
 -10  16   4 6500.33 938.685   4
  10   6   4 5200.07 798.433   1
   6 -16   4 7310.22 1338.55   4
  -6 -10   4 6767.11 1252.57   4
 -16  10   4 7242.96 772.054   4
 -10  16   4 7227.90 699.117   4
  -6 -10   4 7163.78 1413.42   2
  16  -6   4 6621.59 830.979   1
   6 -16   7 3158.08 1197.15   2
  -6 -10   7 2532.09 977.945   2
  16  -6   7-190.389 619.896   3
  10   6   7 2692.10 1369.14   3
 -16  10   7 931.303 550.934   2
  16  -6   7 372.755 1169.10   4
 -10  16   7 1987.16 913.362   4
 -16  10   7 1788.31 773.536   4
  -6 -10   7 494.454 693.532   4
   6 -16   7 1079.36 980.019   4
  16  -6   7 1220.59 1118.70   2
   6 -16  10 3168.00 1650.79   2
  -6 -10  10 3173.52 1378.54   2
  16  -6  10 5186.07 2005.26   2
  16  -6  10 1440.11 1335.83   3
  10   6  10 2036.76 1349.46   3
  10   6  10 1429.31 1348.89   4
  16  -6  10 2017.23 1465.24   4
  10   6  10 4856.25 1843.12   2
 -10  16  10 3478.40 1436.03   4
   6 -16  10 1663.35 1258.99   4
 -16  10  10 2852.07 1255.61   4
  -6 -10  10 1426.13 1138.63   4
   5 -16  -9 762.922 1008.96   1
  11   5  -9 1932.93 784.363   3
  -5 -11  -9 1602.38 1213.70   1
  16  -5  -9 2199.04 1083.69   1
  11   5  -9 833.463 1084.20   1
  16  -5  -6 1629.47 879.793   3
  16  -5  -6-644.276 848.501   1
  11   5  -6 73.7697 514.538   3
   5 -16  -6 480.812 644.462   1
  -5 -11  -6 914.455 828.337   1
  11   5  -6 1199.16 786.684   1
  16  -5  -3 1338.59 557.664   1
  16  -5  -3 782.585 673.043   3
   5 -16  -3 1714.14 718.207   1
  -5 -11  -3 1932.05 699.805   1
  11   5  -3 2701.25 734.645   3
   5 -16  -3 1659.79 394.959   2
 -11  16  -3 739.204 589.986   4
  16  -5  -3 1933.31 723.229   4
  -5 -11   0 446.627 355.194   4
   5 -16   0 721.306 524.327   2
  16  -5   0 235.758 419.251   3
  -5 -11   0 841.053 496.028   3
  11   5   0 2033.09 822.111   3
  16  -5   0 717.785 403.089   4
  -5 -11   0 990.103 539.290   2
   5 -16   0 747.293 607.921   3
  16  -5   0 575.845 162.580   1
 -11  16   0 787.167 332.334   4
   5 -16   0 1772.74 664.082   1
   5 -16   0 926.349 445.026   4
 -16  11   3 525.562 182.200   4
   5 -16   3-52.0363 516.998   2
  -5 -11   3 1097.36 442.724   3
  -5 -11   3 1264.95 743.788   2
   5 -16   3 865.040 188.704   3
  16  -5   3 1944.80 797.825   3
  11   5   3 754.912 559.609   3
  16  -5   3 550.489 152.080   1
 -11  16   3 990.362 348.363   4
   5 -16   3 1880.29 628.639   4
 -11  16   3 1000.44 240.005   4
  -5 -11   3 2390.42 732.940   4
   5 -16   6-390.106 620.475   2
  -5 -11   6 1323.38 905.691   2
  16  -5   6 1562.18 914.417   3
  11   5   6 390.457 918.514   3
 -11  16   6 485.886 503.523   4
  16  -5   6-91.9538 579.775   1
   5 -16   6 277.330 639.585   4
 -16  11   6 1236.00 545.751   4
  -5 -11   6 924.923 883.666   4
  -5 -11   9-205.446 859.778   4
   5 -16   9 122.018 846.890   2
  -5 -11   9-328.206 998.629   2
  16  -5   9-7.86108 838.451   3
  11   5   9-1135.48 1413.90   3
  16  -5   9 1460.69 1478.77   2
  16  -5   9 343.882 1074.16   4
 -11  16   9 2384.82 1360.69   4
   5 -16   9 532.452 857.425   4
 -16  11   9 32.6710 700.233   4
  12   4 -10 1592.52 1280.15   1
  16  -4 -10 994.452 962.510   3
  12   4 -10 287.443 703.975   3
   4 -16 -10-1412.52 1500.62   1
  -4 -12 -10 16.5515 989.884   1
  16  -4 -10 2153.15 1503.56   1
  16  -4  -7 1924.14 771.754   3
  12   4  -7 1935.13 717.828   3
  12   4  -7 989.061 720.092   1
   4 -16  -7 1797.67 1145.74   1
  16  -4  -7 2678.00 1173.45   1
  -4 -12  -7 1270.59 873.155   1
  16  -4  -4 1183.92 624.847   3
  12   4  -4 295.126 369.638   3
  16  -4  -4 499.957 500.741   1
   4 -16  -4 1032.75 636.142   1
  -4 -12  -4 2197.95 787.373   1
  16  -4  -1 10099.2 1380.86   3
  -4 -12  -1 10136.4 1319.65   2
  12   4  -1 9773.94 1372.50   3
   4 -16  -1 8400.57 1101.40   2
   4 -16  -1 7703.10 1382.32   3
 -12  16  -1 10112.7 1139.12   4
  -4 -12  -1 9548.09 1198.03   1
   4 -16  -1 9227.42 1387.25   1
  16  -4  -1 9446.98 809.564   1
  16  -4  -1 7514.37 1051.56   4
   4 -16  -1 6934.51 992.097   4
  -4 -12  -1 9526.30 1258.42   4
   4 -16   2 1880.02 594.539   4
   4 -16   2 3754.75 1019.23   2
  -4 -12   2 1218.53 458.862   3
  16  -4   2 2896.75 894.244   3
  -4 -12   2 1812.86 826.047   2
  12   4   2 2066.99 863.099   3
   4 -16   2 2158.98 477.844   3
 -16  12   2 1747.82 540.124   1
  -4 -12   2 2767.96 813.516   4
 -12  16   5 2984.28 511.153   4
   4 -16   5 4582.52 1320.48   2
  -4 -12   5 4202.14 1232.22   2
  16  -4   5 4272.97 1162.94   3
  12   4   5 4527.73 1323.14   3
  16  -4   5 3464.76 700.438   1
 -12  16   5 4699.18 746.696   4
   4 -16   5 7203.66 1444.13   4
  12   4   5 2757.79 635.059   1
 -16  12   5 4150.24 630.847   4
  -4 -12   5 4254.06 1097.88   4
   4 -16   8 893.576 1163.19   2
  16  -4   8 644.402 816.214   2
  -4 -12   8 411.305 1024.71   2
  16  -4   8 1048.77 1067.81   3
  12   4   8-319.140 913.542   3
  16  -4   8 1132.66 1404.90   4
 -12  16   8-94.8307 667.743   4
   4 -16   8 503.953 766.189   4
 -16  12   8 1390.00 798.614   4
  -4 -12   8 328.881 701.626   4
  -3 -13  -8 5243.27 1609.84   1
   3 -16  -8 1991.67 1311.78   1
  16  -3  -8 3549.36 1052.48   3
  13   3  -8 4709.22 1196.14   3
  13   3  -8 3382.26 1408.12   1
  16  -3  -8 1597.19 998.259   1
  16  -3  -5 422.091 494.413   3
  13   3  -5 868.311 531.840   3
   3 -16  -5 2553.23 957.437   1
  -3 -13  -5 486.402 627.297   1
  16  -3  -5 3191.13 1053.56   1
  13   3  -5 1958.13 808.359   1
   3 -16  -2 16750.4 1337.75   2
  16  -3  -2 17756.9 1870.49   3
  13   3  -2 17720.6 1833.80   3
  -3 -13  -2 15265.9 1563.67   2
  -3 -13  -2 15117.8 1560.07   1
   3 -16  -2 17956.7 1893.19   1
  16  -3  -2 17119.2 1623.51   4
  16  -3  -2 17710.8 1389.25   1
   3 -16   1-87.5922 475.784   2
  16  -3   1-37.3194 423.436   3
  -3 -13   1 839.722 495.604   3
  -3 -13   1 1275.48 795.311   2
  13   3   1-368.261 598.908   3
   3 -16   1 378.158 401.541   3
  -3 -13   1 323.024 417.372   4
   3 -16   1-175.671 296.665   4
  16  -3   4 10498.3 1728.83   3
  13   3   4 12020.5 1981.49   3
  16  -3   4 7984.32 652.111   1
   3 -16   4 10182.5 1465.28   4
  -3 -13   4 10252.4 1497.96   4
   3 -16   4 10419.3 1742.16   2
 -16  13   4 8625.23 575.087   4
  -3 -13   4 9529.81 1694.81   2
  -3 -13   7 455.415 692.774   2
  -3 -13   7 1545.17 876.433   4
  16  -3   7 950.329 723.624   3
  13   3   7 2312.71 1387.62   3
   3 -16   7 2029.65 1058.78   2
 -13  16   7 2184.59 862.587   4
   3 -16   7 349.417 1005.00   4
 -16  13   7 1677.95 705.262   4
   3 -16  10 3812.96 1701.90   2
  -3 -13  10 3708.67 1539.59   2
  13   3  10 1617.16 1537.87   4
 -13  16  10 1030.43 1016.66   4
  16  -3  10 1774.00 1128.94   3
  13   3  10 4150.08 1774.63   3
  16  -3  10 4709.91 1946.68   4
  13   3  10 3382.71 1764.82   2
  16  -3  10 4847.04 1888.30   2
 -16  13  10 3133.07 1187.28   4
   3 -16  10 4633.14 1620.48   4
  -3 -13  10 5816.12 1919.75   4
  16  -2  -9 802.327 1008.64   1
   2 -16  -9 1944.03 1591.37   1
  16  -2  -9 2133.26 1039.76   3
  14   2  -9 2519.30 986.053   3
  -2 -14  -9 1416.27 1183.07   1
  14   2  -9 2766.90 1342.54   1
 -16  14  -6-243.102 544.907   3
  16  -2  -6-609.411 578.595   3
  14   2  -6 439.940 497.819   3
  -2 -14  -6 873.421 783.375   1
  14   2  -6 1106.74 828.678   1
  16  -2  -6 176.875 546.117   1
   2 -16  -6 1463.53 962.849   1
  16  -2  -3 7241.83 1309.10   3
  14   2  -3 7153.57 1174.77   3
   2 -16  -3 5933.76 808.118   2
  -2 -14  -3 6202.33 961.649   2
   2 -16  -3 6230.04 1281.77   1
  -2 -14  -3 7345.72 1257.38   1
  16  -2  -3 7124.41 1046.72   1
   2 -16   0 1026.59 439.431   4
  -2 -14   0 1314.18 613.430   4
  16  -2   0 1986.10 732.181   3
   2 -16   0 933.418 602.913   2
  14   2   0 405.786 566.074   3
  -2 -14   0 1186.53 627.551   3
  -2 -14   0 1960.21 723.347   2
   2 -16   0 1118.22 678.943   3
   2 -16   0 2069.37 761.509   1
  -2 -14   3 7110.00 765.837   3
   2 -16   3 6891.09 590.419   3
  16  -2   3 8683.84 1538.82   3
  14   2   3 8118.40 1672.77   3
   2 -16   3 7147.63 1150.81   4
  -2 -14   3 9443.01 1405.23   4
   2 -16   3 9627.41 1675.51   2
  -2 -14   3 7469.07 1441.99   2
  14   2   6 2561.85 736.492   1
   2 -16   6 1410.84 868.471   2
  -2 -14   6 2257.03 1115.24   2
  16  -2   6 1293.18 609.346   1
  16  -2   6 3870.38 1283.77   3
  14   2   6 2152.63 1095.79   3
 -14  16   6 2544.12 662.255   4
   2 -16   6 1233.69 878.663   4
 -16  14   6 1566.75 527.392   4
  -2 -14   6 1931.87 1074.74   4
   2 -16   9 1505.93 1267.12   2
 -14  16   9 1505.73 840.259   4
  -2 -14   9 1804.29 1243.20   2
  16  -2   9 2.25912 863.525   3
  14   2   9 4446.55 1668.99   3
  16  -2   9 424.320 1586.68   4
  16  -2   9 2323.88 1498.19   2
 -16  14   9 957.352 780.179   4
   2 -16   9 3134.85 1454.01   4
  -2 -14   9 1528.65 1137.99   4
  16  -1  -7 1060.15 713.360   3
  15   1  -7 1745.13 785.403   3
  16  -1  -7 1505.17 889.543   1
   1 -16  -7 111.339 842.280   1
  -1 -15  -7 1319.64 829.939   1
  15   1  -7 1499.35 859.632   1
  15   1  -4 334.692 531.690   1
  16  -1  -4-54.9206 441.264   3
  15   1  -4 574.764 597.478   3
   1 -16  -4 414.693 594.432   1
  -1 -15  -4 657.514 689.038   1
  16  -1  -4-620.702 553.052   1
   1 -16  -1 3902.62 914.043   2
   1 -16  -1 3491.64 799.576   4
  -1 -15  -1 3245.29 710.874   4
  16  -1  -1 4387.33 1017.77   3
  15   1  -1 4326.34 958.100   3
  -1 -15  -1 2238.49 689.542   2
  -1 -15  -1 2588.92 802.354   1
   1 -16  -1 3862.06 995.734   1
   1 -16   2 1027.91 671.469   2
  -1 -15   2 20.7674 278.607   3
  -1 -15   2 304.934 566.639   2
   1 -16   2-29.7497 302.457   3
  16  -1   2 537.043 688.303   3
  15   1   2 1905.98 815.631   3
   1 -16   2 121.534 340.137   4
  -1 -15   2 472.786 362.025   4
  16  -1   5 1823.39 477.706   1
   1 -16   5 2718.87 1065.55   2
  -1 -15   5 1351.61 883.633   2
  16  -1   5 1528.39 933.517   3
  15   1   5 2408.91 1066.60   3
   1 -16   5 2209.69 778.929   4
 -15  16   5 1225.34 288.975   4
  -1 -15   5 1760.40 749.049   4
 -16  15   5 1338.26 301.823   4
  15   1   5 1061.13 387.365   1
 -16  15   8 1656.32 771.515   4
   1 -16   8 1949.38 1005.47   2
  -1 -15   8-407.060 803.807   2
  16  -1   8 1163.83 1157.34   3
  15   1   8 915.735 1040.67   3
 -15  16   8 859.312 620.842   4
   1 -16   8 1352.83 967.823   4
  -1 -15   8-312.604 767.053   4
  16   0  -8 9170.88 1627.23   3
  16   0  -8 11604.7 2211.86   1
   0 -16  -8 6291.63 1862.16   1
  16   0  -5 1115.25 724.589   1
  16   0  -5-308.715 539.685   3
   0 -16  -5 1351.15 759.744   1
  16   0  -2 7014.72 1263.33   3
   0 -16  -2 7076.07 1022.68   2
   0 -16  -2 6441.35 1167.42   1
   0 -16   1 910.690 610.174   2
  16   0   1-622.690 613.542   3
   0 -16   1-503.126 429.139   3
   0 -16   1 900.863 501.259   4
   0 -16   4 7704.51 1381.45   4
   0 -16   4 6074.21 1550.47   2
  16   0   4 6680.04 1498.45   3
   0 -16   7 1556.42 1063.64   2
  16   0   7 1186.11 1411.31   3
 -16  16   7 726.498 451.374   4
   0 -16   7 1266.30 1037.67   4
  17 -17  -8-646.417 1043.96   1
 -17   0  -8 1270.61 776.441   1
  17 -17  -5 734.094 764.395   1
 -17   0  -5 3.40474 258.129   1
  17 -17  -2 3965.20 902.604   1
   0  17  -2 2965.71 964.239   3
  17 -17  -2 4393.61 862.584   2
 -17   0   1-348.677 393.045   4
  17 -17   1 109.076 305.388   3
   0  17   1 938.332 840.427   3
  17 -17   1 681.738 596.033   2
 -17   0   1-364.032 333.446   1
  17 -17   1 188.054 233.788   4
  17 -17   1 74.0564 364.588   1
   0  17   4 1148.99 690.510   2
  17 -17   4 2548.50 677.883   3
 -17   0   4 409.464 619.827   2
   0  17   4 2911.73 1325.61   3
  17 -17   4 3521.34 1080.70   4
  17 -17   4 1986.85 1015.48   2
 -17   0   4 1439.92 695.108   4
 -17   0   7 611.878 822.832   2
  17 -17   7 390.769 551.704   3
   0  17   7-1119.17 1202.08   3
  17 -17   7 548.625 894.780   4
  17 -17   7 1629.92 1255.32   2
 -17   0   7 731.933 795.790   4
 -16  -1  -9 1264.33 954.490   1
  16 -17  -9 1187.62 1317.39   1
  17 -16  -9 2174.52 1445.21   1
 -17   1  -9 2197.70 1117.16   1
  17 -16  -6 1231.48 1092.80   1
 -16  -1  -6 1811.50 641.159   1
 -17   1  -6 1111.33 523.558   1
  16 -17  -6 1891.30 1118.80   1
  16 -17  -3 4804.65 609.195   2
   1  16  -3 6051.67 984.026   3
  -1  17  -3 6062.66 861.028   3
  17 -16  -3 3683.67 631.455   2
  16 -17  -3 5578.64 784.179   2
  16 -17  -3 6304.64 1282.61   1
  17 -16  -3 6623.70 1314.91   1
  17 -16   0 672.114 159.139   4
  16 -17   0 577.114 406.679   1
 -16  -1   0 1416.50 556.900   4
  17 -16   0 661.513 353.087   1
  16 -17   0 1945.47 675.682   3
  17 -16   0 1036.69 586.148   3
   1  16   0 2457.83 965.656   3
  -1  17   0 1896.29 850.926   3
  17 -16   0 607.165 625.190   2
  16 -17   0 699.445 166.768   4
  16 -17   0 380.298 532.191   2
  17 -16   0 426.897 162.131   4
 -16  -1   0 542.408 199.406   1
 -17   1   3 2898.08 802.163   4
  -1  17   3 3205.93 952.990   2
   1  16   3 2102.98 823.162   2
 -16  -1   3 2466.37 796.975   1
  16 -17   3 1710.27 590.642   3
  17 -16   3 2814.43 705.311   3
 -16  -1   3 840.769 687.194   2
 -17   1   3 1867.61 858.240   2
   1  16   3 4137.43 1382.77   3
  -1  17   3 6396.64 1663.01   3
  17 -16   3 2670.89 856.636   4
  17 -16   3 3495.33 1215.24   2
  16 -17   3 2630.96 848.494   4
 -16  -1   3 2512.83 788.100   4
  16 -17   3 2702.36 1042.61   2
 -17   1   3 1759.72 746.690   1
  17 -16   6 398.322 538.227   3
  16 -17   6 1335.84 576.532   3
 -16  -1   6 2627.35 1117.69   2
 -17   1   6 2064.84 985.057   2
   1  16   6 2802.94 1474.96   3
  -1  17   6 1520.93 1312.18   3
  17 -16   6 2183.57 1124.77   4
  16 -17   6 3994.37 1340.30   4
  17 -16   6 2182.64 1208.04   2
  16 -17   6 821.448 1085.51   2
 -16  -1   6 3459.48 1032.84   4
 -17   1   6 2398.34 887.548   4
 -16  -1   9 4976.56 1428.22   4
 -16  -1   9 2529.33 1221.05   2
 -17   1   9 3119.05 1332.82   2
 -17   1   9 2981.47 1131.38   4
  17 -16   9 2540.38 1467.95   4
  16 -17   9 4167.83 1604.14   4
  17 -16   9 1769.10 1562.50   2
  16 -17   9 2525.70 1565.87   2
  17 -15  -7 4870.67 1532.14   1
 -17   2  -7 5377.98 1064.86   1
  15 -17  -7 4822.23 1570.69   1
 -15  -2  -7 5683.84 1234.97   1
 -15  -2  -4 1016.42 388.737   1
  17 -15  -4 469.276 404.715   2
   2  15  -4 172.507 347.670   3
  15 -17  -4 1584.04 724.313   1
  17 -15  -4 768.936 502.265   1
  17 -15  -1 4445.19 989.113   3
  17 -15  -1 3848.46 844.475   1
   2  15  -1 4660.10 1056.42   3
  -2  17  -1 4490.04 1030.92   3
  15 -17  -1 4182.03 927.745   2
  15 -17  -1 4294.22 1015.32   1
 -15  -2   2 2613.99 777.383   4
 -17   2   2 2612.94 727.345   4
  -2  17   2 2680.80 934.890   2
  15 -17   2 2145.31 602.027   3
  17 -15   2 2457.90 584.942   3
 -15  -2   2 2634.85 665.784   1
   2  15   2 2922.53 1055.57   3
 -15  -2   2 3379.58 991.611   2
  -2  17   2 3278.23 1185.10   3
 -17   2   2 3150.06 910.126   2
 -17   2   2 2381.82 621.750   1
  17 -15   2 2194.78 918.706   2
  17 -15   2 2518.10 686.209   4
  17 -15   2 2373.89 664.236   1
  15 -17   2 2920.71 705.047   4
  15 -17   2 3935.95 1079.82   2
 -15  -2   5 7148.40 1440.20   2
  17 -15   5 6977.35 1183.69   3
  15 -17   5 5530.85 896.956   3
  -2  17   5 4909.18 961.461   2
   2  15   5 3147.94 852.913   2
 -17   2   5 4538.61 1225.61   2
 -17   2   5 6795.40 1257.89   4
   2  15   5 7601.76 1918.38   3
  -2  17   5 5002.64 1607.75   3
  17 -15   5 7089.69 1500.73   4
  15 -17   5 4822.91 1270.64   4
  17 -15   5 4748.06 1526.50   2
 -15  -2   5 8114.36 1412.22   4
  15 -17   5 7125.19 1605.48   2
 -15  -2   8 741.984 713.407   2
 -17   2   8 1842.39 973.851   2
  17 -15   8 74.7936 536.250   3
   2  15   8 215.938 1119.89   3
  17 -15   8-344.995 1107.83   4
  15 -17   8-347.114 870.145   4
  17 -15   8 728.299 1073.76   2
  15 -17   8 1467.14 1308.59   2
 -15  -2   8 465.653 639.518   4
 -17   2   8-473.610 746.963   4
  14 -17  -8 2154.16 1271.84   1
 -14  -3  -8 1825.13 1015.94   1
  17 -14  -8 3557.79 1365.48   1
 -17   3  -8 1592.19 767.474   1
  17 -14  -5 850.003 416.040   2
   3  14  -5 932.380 397.523   3
  14 -17  -5 137.802 846.538   1
 -14  -3  -5 398.273 418.061   1
  17 -14  -5 1542.04 893.340   1
  14 -17  -2 1941.03 770.701   1
  17 -14  -2 1087.29 596.246   1
   3  14  -2 2075.37 685.709   3
  17 -14  -2 1930.01 537.754   2
 -14  -3  -2 2094.90 375.248   1
  14 -17  -2 2633.69 664.425   2
  -3  17   1 1889.33 846.803   2
 -14  -3   1 133.369 367.507   4
 -17   3   1 633.612 490.987   4
  14 -17   1 1307.83 444.782   3
  17 -14   1 1571.20 546.262   3
 -17   3   1 1294.36 331.989   1
 -14  -3   1 1108.64 541.652   1
   3  14   1 1933.51 949.901   3
 -14  -3   1 2203.02 843.909   2
  -3  17   1 1553.99 866.004   3
  17 -14   1 1375.57 482.629   4
  14 -17   1 737.424 494.466   1
  14 -17   1 1204.20 732.277   2
  14 -17   1 1491.59 445.472   4
  17 -14   1 1729.42 580.096   1
  14 -17   4 1908.42 835.773   4
 -14  -3   4 2023.99 735.409   4
  -3  17   4 2291.44 695.241   2
  17 -14   4 2437.78 927.039   2
  14 -17   4 1137.55 512.406   3
  17 -14   4 1388.40 664.465   3
 -14  -3   4 2209.79 959.627   2
 -17   3   4 1322.66 782.143   2
   3  14   4 1944.82 1060.22   3
  -3  17   4 3288.76 1328.82   3
  17 -14   4 934.151 605.360   4
  14 -17   4 30.8070 714.965   2
 -17   3   4 1402.22 725.729   4
  14 -17   7 1793.35 1378.83   2
 -14  -3   7 898.079 860.926   2
  14 -17   7 1549.01 943.105   4
  17 -14   7 1737.25 817.610   3
 -17   3   7-399.765 666.083   2
  14 -17   7 984.450 464.823   3
   3  14   7 1933.61 1093.60   3
  17 -14   7 938.202 797.041   4
  -3  17   7 905.827 428.926   2
  17 -14   7 450.713 905.433   2
 -14  -3   7 1445.86 826.608   4
 -17   3   7 536.298 559.009   4
  13 -17  -9 333.739 1321.58   1
 -13  -4  -9 981.202 1020.47   1
  17 -13  -9 2173.20 1314.70   1
 -17   4  -9 778.592 758.318   1
  17 -13  -6 421.593 418.342   2
  17 -13  -6 348.011 875.197   1
   4  13  -6 307.920 339.730   3
 -13  -4  -6 100.606 495.143   1
  13 -17  -6 1439.82 841.626   1
  13 -17  -3 2157.43 322.161   2
  13 -17  -3 3038.24 1000.42   1
  17 -13  -3 1810.79 539.585   2
   4  13  -3 3685.58 803.835   3
 -13  -4  -3 3030.32 621.268   1
  13 -17  -3 1685.43 318.788   2
  17 -13  -3 2909.73 867.693   1
  17 -13   0 1624.25 334.024   4
 -13  -4   0 1950.58 711.612   4
  17 -13   0 1561.91 614.718   3
  17 -13   0 1544.15 555.203   1
   4  13   0 51.2116 516.777   3
  13 -17   0 2694.25 726.805   1
 -13  -4   0 1836.52 794.048   2
  17 -13   0 1636.77 445.758   4
  13 -17   0 1293.87 630.496   2
  -4  17   0 938.060 515.429   4
  -4  17   0 258.955 637.998   2
 -13  -4   0 1148.25 416.207   1
  13 -17   0 1858.16 347.391   4
 -17   4   3 2923.02 711.011   4
  -4  17   3 2459.92 748.587   2
  13 -17   3 1845.20 492.821   3
  17 -13   3 2383.39 713.504   3
 -13  -4   3 3346.25 872.046   4
  -4  17   3 1954.03 621.898   4
 -13  -4   3 1975.58 935.643   2
  17 -13   3 2044.09 664.692   1
   4  13   3 1684.69 825.250   3
  13 -17   3 2386.33 1101.67   2
 -17   4   3 2795.89 766.858   1
 -17   4   3 1730.85 654.409   2
  13 -17   3 4847.49 994.693   4
  17 -13   3 1816.38 782.899   4
  17 -13   3 1872.54 810.116   2
 -13  -4   3 1322.46 696.356   1
  -4  17   6 159.112 231.783   2
 -13  -4   6 1047.15 797.871   2
  17 -13   6 436.474 541.646   3
  13 -17   6 684.746 363.525   3
 -17   4   6 1517.37 877.178   2
   4  13   6 1731.87 1164.00   3
  17 -13   6 2149.70 1180.46   4
  17 -13   6 1933.02 783.250   2
  13 -17   6 2149.16 1044.28   4
  13 -17   6-182.410 837.393   2
 -13  -4   6 823.485 837.030   4
 -17   4   6 1580.35 714.190   4
 -13  -4   9 973.912 964.567   2
 -17   4   9 1685.63 980.214   2
  17 -13   9 1794.24 945.568   3
   4  13   9-532.499 1096.08   3
  -4  17   9 2304.90 1640.35   4
   4  13   9 1719.69 970.165   2
  17 -13   9 1810.31 1619.57   4
  13 -17   9 2827.68 1484.60   4
  17 -13   9 723.822 1183.34   2
 -13  -4   9-315.063 745.338   4
 -17   4   9 1002.54 912.721   4
  13 -17   9 1366.87 1393.77   2
   5  12  -7 2549.36 567.962   3
  17 -12  -7 3956.46 1295.84   1
 -12  -5  -7 3032.28 1057.05   1
  12 -17  -7 2952.55 1312.76   1
 -12  -5  -4 765.249 483.939   1
  17 -12  -4 489.349 400.115   2
   5  12  -4 996.689 435.684   3
  12 -17  -4 1448.22 789.944   1
  17 -12  -4 691.504 350.710   4
  17 -12  -4 1330.46 662.524   1
  17 -12  -1 8383.67 1251.50   3
   5  12  -1 5926.79 1147.95   3
  17 -12  -1 6758.19 1054.48   2
 -12  -5  -1 6321.78 1116.88   2
 -12  -5  -1 7194.60 722.111   1
  12 -17  -1 7190.97 1044.42   2
  12 -17  -1 7588.04 1263.59   1
  17 -12  -1 8759.31 1144.49   1
  17 -12  -1 5739.00 568.615   4
  -5  17  -1 5269.67 1014.68   4
 -17   5   2 2067.93 622.183   4
  12 -17   2 1895.37 473.590   3
  -5  17   2 1136.18 495.367   4
  17 -12   2 2136.20 596.466   3
 -17   5   2 2178.07 590.763   1
 -12  -5   2 2457.54 748.697   1
 -12  -5   2 3050.90 798.910   2
   5  12   2 2572.65 1028.65   3
  17 -12   2 1305.60 650.793   4
  17 -12   2 2101.85 500.938   1
  12 -17   2 2152.98 583.237   4
  12 -17   2 3013.24 988.859   2
  -5  17   2 1781.29 679.252   2
 -12  -5   2 2959.73 751.839   4
 -17   5   5 6537.03 1239.48   2
  17 -12   5 3963.16 1027.80   3
 -12  -5   5 4243.27 1240.92   2
   5  12   5 6219.27 1632.20   3
  17 -12   5 7531.29 1748.93   2
  17 -12   5 5869.04 1452.31   4
 -12  -5   5 6903.99 1361.36   4
 -17   5   5 6642.73 1087.78   4
  12 -17   5 5200.43 1174.55   4
  12 -17   5 5347.87 1697.34   2
 -12  -5   8 573.547 846.974   4
 -12  -5   8 1348.56 949.340   2
 -17   5   8 732.935 722.893   2
  17 -12   8 2575.08 997.666   3
   5  12   8 2768.34 1615.25   3
  -5  17   8 2165.11 1294.22   4
  17 -12   8 4083.45 1473.79   4
  12 -17   8 2142.50 1262.17   4
  17 -12   8 1483.73 963.873   2
 -17   5   8 1224.73 790.776   4
  12 -17   8-217.735 1016.61   2
  11 -17  -8 1978.57 1215.89   1
   6  11  -8 1197.01 509.055   3
  17 -11  -8 1960.60 1170.84   1
 -11  -6  -8 1254.13 901.025   1
 -11  -6  -5 3477.46 871.151   1
   6  11  -5 4240.85 805.421   3
  17 -11  -5 2902.49 747.090   2
  17 -11  -5 4870.10 1345.60   1
  11 -17  -5 4711.60 1346.85   1
  17 -11  -5 3625.47 788.964   4
  17 -11  -2 2739.88 717.333   3
  11 -17  -2 2260.76 784.998   1
 -11  -6  -2 2691.89 567.127   1
   6  11  -2 2499.57 754.814   3
  17 -11  -2 2652.27 702.275   2
  11 -17  -2 3216.81 578.320   2
  17 -11  -2 3877.79 892.867   1
  17 -11  -2 2516.20 457.443   4
  17 -11   1 4620.53 882.303   3
 -11  -6   1 4832.64 1127.16   2
  -6  17   1 3406.93 890.065   2
   6  11   1 3574.53 1044.45   3
 -11  -6   1 3614.71 726.895   1
 -17   6   1 4871.62 579.218   1
  11 -17   1 5765.39 1199.57   2
  17 -11   1 4471.49 657.653   1
  11 -17   1 4814.67 704.997   4
 -11  -6   1 6192.19 1075.64   4
  -6  17   1 3904.26 757.368   4
  17 -11   1 3800.18 635.290   4
  -6  17   4 1869.20 592.184   4
  11 -17   4 2615.35 400.327   3
  17 -11   4 3513.26 962.520   3
 -11  -6   4 4355.01 1156.57   2
   6  11   4 3073.89 1186.17   3
 -17   6   4 4157.13 941.214   2
  17 -11   4 1949.80 644.122   1
  11 -17   4 5156.61 1140.65   4
  17 -11   4 1438.31 849.657   4
  -6  17   4 2102.87 380.248   2
 -17   6   4 3640.51 776.351   4
  11 -17   4 5158.12 1392.54   2
 -11  -6   4 2537.34 843.840   4
  17 -11   7 1338.77 1195.77   2
 -11  -6   7 1591.38 1113.69   2
  17 -11   7 151.269 701.231   3
 -17   6   7 1368.55 863.709   2
   6  11   7 1825.96 1320.40   3
  17 -11   7 2300.34 1379.32   4
  11 -17   7 2552.23 1061.77   4
 -11  -6   7 2208.48 925.896   4
 -17   6   7 960.941 643.738   4
  11 -17   7 1177.47 932.636   2
  11 -17  10 4117.82 2049.79   2
  17 -11  10 854.224 1482.88   2
 -11  -6  10 870.019 1242.94   2
 -17   6  10 970.379 804.843   2
  17 -11  10 1528.27 1067.84   3
   6  11  10-1060.05 1315.50   3
  -6  17  10 2836.90 1864.15   4
  17 -11  10-291.726 1046.90   4
   6  11  10 17.0868 957.611   2
  11 -17  10 497.149 970.597   4
 -17   6  10-305.945 771.042   4
 -11  -6  10 1274.77 1074.29   4
  10 -17  -9 582.464 1281.25   1
 -10  -7  -9 2152.09 1235.57   1
  17 -10  -9-142.794 875.670   1
  17 -10  -6 1499.54 731.614   2
 -10  -7  -6 2665.13 943.680   1
   7  10  -6 2975.02 730.960   3
  17 -10  -6 2852.35 1215.01   1
  10 -17  -6 1701.67 1039.41   1
  17 -10  -6 1045.05 623.896   4
  17 -10  -3-405.798 634.014   1
  17 -10  -3 1284.99 678.742   3
  10 -17  -3-219.648 587.609   1
   7  10  -3 631.062 535.032   3
  10 -17  -3 479.411 148.244   2
  17 -10  -3-115.664 389.983   2
 -10  -7  -3 783.770 530.388   1
  17 -10  -3 88.1392 311.138   4
  10 -17   0 1824.25 689.076   2
 -10  -7   0 1709.06 663.183   4
  17 -10   0 1872.35 583.900   3
  17 -10   0 2194.59 517.821   1
   7  10   0 2856.26 922.335   3
 -10  -7   0 2360.50 747.706   2
  10 -17   0 1603.86 775.339   3
  -7  17   0 2881.02 911.958   2
  10 -17   0 2588.01 503.764   4
  -7  17   0 1382.29 472.659   4
  10 -17   0 1850.71 743.311   1
  17 -10   0 2077.66 439.966   4
 -17   7   3 705.394 391.004   4
  10 -17   3 773.737 283.469   3
  17 -10   3 789.116 507.402   3
 -17   7   3 1025.30 608.411   1
 -10  -7   3 618.594 612.786   2
   7  10   3-136.472 662.169   3
  10 -17   3 1000.67 450.978   3
  -7  17   3 477.643 316.600   2
  10 -17   3 294.127 654.752   2
  10 -17   3 1364.18 611.941   4
  -7  17   3 1008.12 392.163   4
 -10  -7   3 286.255 412.475   4
  17 -10   3 264.312 313.255   1
  10 -17   6 567.406 843.077   2
 -10  -7   6 1052.96 869.142   2
  17 -10   6-22.7454 547.167   3
   7  10   6 1039.84 1155.03   3
 -17   7   6-64.0338 440.932   2
  17 -10   6 855.141 1001.60   4
 -17   7   6 59.8161 434.789   4
  17 -10   6 779.040 1105.55   2
  10 -17   6-587.795 780.770   4
 -10  -7   6 1586.29 816.642   4
 -10  -7   9 372.837 850.841   4
  -7  17   9 1711.56 1304.90   4
 -10  -7   9 1911.72 1227.93   2
 -17   7   9 814.387 677.318   2
  17 -10   9 422.303 1007.03   3
   7  10   9-1694.07 1282.48   3
  10 -17   9-1104.53 1086.58   2
   7  10   9 729.758 996.618   2
  17 -10   9-120.150 983.643   4
  17 -10   9 383.412 979.071   2
  10 -17   9 693.904 898.265   4
 -17   7   9 100.145 718.659   4
  17  -9 -10 1276.32 1100.32   1
   9 -17 -10 243.674 1098.59   1
  -9  -8 -10 522.370 1179.71   1
   8   9  -7 1081.36 677.000   3
  -9  -8  -7 884.470 772.320   1
  17  -9  -7 106.370 668.998   1
   9 -17  -7 2757.51 1213.35   1
  17  -9  -4 6535.14 1293.06   1
  17  -9  -4 3322.79 924.231   3
  17  -9  -4 4226.80 907.113   2
   8   9  -4 3619.85 826.078   3
   9 -17  -4 2409.51 1011.60   1
  17  -9  -4 4017.96 893.039   4
  -9  -8  -4 4745.77 1009.04   1
  17  -9  -1 7567.98 1178.26   3
   8   9  -1 6304.67 1184.38   3
  -9  -8  -1 5134.60 1035.62   2
  -9  -8  -1 4580.79 970.882   4
   9 -17  -1 4386.47 1105.96   3
  -9  -8  -1 5288.45 784.054   1
   9 -17  -1 5470.93 1069.28   1
   9 -17  -1 5233.57 908.331   2
  17  -9  -1 5081.41 723.534   4
  -8  17  -1 4521.51 944.483   4
  -8  17  -1 4052.13 1118.85   2
  17  -9  -1 5161.27 845.884   1
   9 -17  -1 3902.13 538.602   4
   9 -17   2 2173.09 813.149   2
 -17   8   2 2179.36 544.514   1
  -9  -8   2 1951.14 610.933   3
  17  -9   2 2724.22 928.740   3
  -9  -8   2 1748.61 785.822   2
   8   9   2 2690.91 965.270   3
   9 -17   2 3401.80 686.204   3
  17  -9   2 2935.09 464.085   1
  -9  -8   2 1582.47 710.075   1
  -8  17   2 2395.00 626.137   2
  17  -9   2 2365.75 479.441   1
   9 -17   2 2709.12 662.637   4
 -17   8   2 2679.04 565.656   4
  -8  17   2 2289.39 540.598   4
  -9  -8   2 2742.35 792.955   4
  17  -9   5 6508.86 1352.61   3
  17  -9   5 5245.44 1050.71   1
 -17   8   5 6728.13 1163.85   2
  -9  -8   5 5205.92 1359.71   2
   8   9   5 8047.84 1830.46   3
   9 -17   5 6989.41 1454.92   4
  -9  -8   5 6549.36 1274.67   4
 -17   8   5 5085.05 861.952   4
  -8  17   5 5028.73 851.320   4
   9 -17   5 5039.19 1531.32   2
   9 -17   8 217.392 973.685   2
 -17   8   8-32.7428 557.535   4
  -9  -8   8 169.202 954.029   2
  17  -9   8 455.096 664.380   3
 -17   8   8 852.043 784.276   2
   8   9   8 121.751 861.166   3
  17  -9   8 1010.53 1149.61   4
  -8  17   8-14.6852 830.032   4
  17  -9   8 1385.94 1140.63   2
   9 -17   8 916.724 818.330   4
  -9  -8   8 691.336 869.510   4
  17  -8  -8 1598.90 1102.11   1
   9   8  -8-96.6727 405.296   3
  -8  -9  -8 1421.94 1081.28   1
   8 -17  -8 606.684 1038.13   1
   9   8  -5 5877.31 1016.49   3
  17  -8  -5 4504.10 1089.69   3
  17  -8  -5 7155.18 1477.32   1
   8 -17  -5 5235.76 1300.44   1
  17  -8  -5 4088.99 1009.11   4
  -8  -9  -5 4779.54 1103.77   1
   8 -17  -2 2353.43 879.321   1
  -8  -9  -2 1550.74 465.935   1
  17  -8  -2 3123.78 865.128   3
  17  -8  -2 2887.90 731.673   1
   8 -17  -2 2584.57 524.115   2
   9   8  -2 1793.08 712.201   3
  -8  -9  -2 2456.38 747.461   2
  -9  17  -2 2995.14 917.618   4
  17  -8  -2 2393.01 610.789   4
   8 -17   1 4078.50 949.238   2
  17  -8   1 6150.65 1128.91   3
  -8  -9   1 3457.92 806.568   4
  -8  -9   1 3703.11 833.218   3
   8 -17   1 6163.59 997.868   3
   9   8   1 4670.29 1129.20   3
  -8  -9   1 4301.54 995.431   2
 -17   9   1 5028.53 664.282   1
  -9  17   1 3938.08 657.294   4
  -9  17   1 4323.95 890.479   2
  17  -8   1 4218.32 494.028   1
   8 -17   1 4817.41 796.126   4
  17  -8   1 4603.55 761.506   4
  -8  -9   4 1916.66 684.180   4
   8 -17   4 3056.78 997.719   2
  17  -8   4 4004.01 741.624   1
  -8  -9   4 4172.82 1230.31   2
  17  -8   4 1646.95 697.057   3
   9   8   4 3834.55 1349.73   3
 -17   9   4 3543.06 659.373   4
   8 -17   4 2840.45 874.031   4
  -9  17   4 2954.07 543.901   4
   8 -17   7 4607.53 1487.85   2
 -17   9   7-305.078 560.974   4
  -8  -9   7 427.869 736.845   2
  -8  -9   7 1914.77 1154.40   4
  17  -8   7 748.231 587.088   3
   9   8   7 382.069 823.516   3
 -17   9   7 895.302 584.936   2
  17  -8   7 1537.12 1134.20   4
  -9  17   7 1615.88 1029.17   4
  17  -8   7 907.247 1188.18   2
   8 -17   7 2100.22 1071.67   4
   8 -17  10-981.038 1375.92   2
  -8  -9  10 771.598 1014.40   2
  17  -8  10 2023.64 1293.55   3
   9   8  10-799.314 1239.41   3
  17  -8  10 1292.01 1079.76   4
   9   8  10 1120.72 1067.48   2
  -9  17  10 1398.52 1457.10   4
  17  -8  10-148.075 1500.51   2
   8 -17  10 290.420 1043.63   4
 -17   9  10 432.445 804.550   4
  -8  -9  10-571.786 816.176   4
   7 -17  -9 583.705 1053.22   1
  10   7  -9 1023.07 599.504   3
  17  -7  -9-1264.25 799.517   1
  -7 -10  -9 728.580 910.748   1
  17  -7  -6 518.292 690.919   3
  10   7  -6 251.718 482.050   3
  -7 -10  -6 714.953 621.932   1
   7 -17  -6 125.236 821.657   1
  17  -7  -6 2209.98 985.724   1
  17  -7  -3 815.678 702.229   3
   7 -17  -3 542.679 571.630   1
  -7 -10  -3 418.519 337.723   1
  10   7  -3 491.423 503.079   3
   7 -17  -3 486.237 232.847   2
  17  -7  -3 821.244 637.674   1
 -10  17  -3 1406.74 878.040   4
  17  -7  -3 18.1051 422.600   4
  -7 -10   0 2082.38 666.878   4
   7 -17   0 2315.46 719.304   2
  17  -7   0 1830.42 718.760   3
  17  -7   0 1576.74 343.843   1
  10   7   0 1841.58 733.316   3
  -7 -10   0 2100.88 739.552   2
   7 -17   0 3130.62 941.691   3
 -10  17   0 2862.68 844.195   2
 -10  17   0 2225.17 594.421   4
   7 -17   0 2675.68 857.815   1
  17  -7   0 2510.47 539.805   4
   7 -17   0 2471.15 543.558   4
 -17  10   3 240.701 200.439   4
   7 -17   3 1566.22 996.944   2
 -17  10   3 642.527 524.210   1
   7 -17   3 336.228 155.907   3
  17  -7   3 220.487 190.470   1
  17  -7   3 1010.80 494.022   3
  -7 -10   3 1666.63 705.874   2
  -7 -10   3 454.589 364.094   3
   7 -17   3 141.895 201.130   3
  10   7   3 1613.82 836.375   3
 -10  17   3 219.772 197.406   4
   7 -17   3 33.5340 410.223   4
  -7 -10   3 367.741 442.780   4
  17  -7   6 803.148 647.295   1
   7 -17   6 4376.73 1374.43   2
 -10  17   6 786.747 546.238   4
  -7 -10   6 1551.27 898.925   2
  -7 -10   6 2076.61 1116.29   4
  17  -7   6 2609.88 1090.40   3
  10   7   6 2646.37 1315.59   3
 -10  17   6 2220.47 884.053   4
   7 -17   6 3118.91 1100.75   4
 -17  10   6 1746.98 603.686   4
   7 -17   9-2.55214 918.399   2
  -7 -10   9-701.296 1094.83   2
  17  -7   9 1133.07 974.624   3
 -17  10   9 8.59793 513.799   2
  10   7   9 1157.93 1447.26   3
  17  -7   9 452.865 1251.11   4
 -10  17   9-465.159 975.209   4
  17  -7   9 1993.63 1460.77   2
   7 -17   9 211.344 911.004   4
 -17  10   9-276.098 716.702   4
  -7 -10   9-929.029 846.451   4
  11   6 -10 1170.66 751.717   3
   6 -17 -10 416.127 1116.01   1
  11   6 -10 754.016 1302.56   1
  17  -6 -10-290.587 1054.22   1
  -6 -11 -10 305.050 1094.52   1
  -6 -11  -7 712.348 809.895   1
  17  -6  -7 2281.91 1003.04   3
  11   6  -7 1339.65 704.479   3
  17  -6  -7 1795.62 1029.55   1
   6 -17  -7 1316.11 1190.85   1
  17  -6  -4 3363.89 995.083   3
  11   6  -4 2768.34 795.613   3
   6 -17  -4 3116.42 972.345   1
  17  -6  -4 4770.91 1104.65   1
  -6 -11  -4 3466.27 870.432   1
  17  -6  -4 3452.31 986.552   4
  17  -6  -1 5741.71 1118.35   3
  11   6  -1 4852.03 1057.90   3
  -6 -11  -1 5810.62 1111.15   2
  17  -6  -1 5075.50 688.438   1
   6 -17  -1 5619.87 912.525   2
   6 -17  -1 6499.19 856.091   4
   6 -17  -1 5091.36 1169.58   3
 -11  17  -1 5187.53 928.192   4
  -6 -11  -1 5465.73 907.787   1
   6 -17  -1 5645.18 1106.29   1
  17  -6  -1 4641.42 847.295   4
  -6 -11  -1 4915.47 947.026   4
   6 -17   2 4222.20 1093.54   2
  -6 -11   2 1917.86 569.935   3
  17  -6   2 2933.40 818.867   3
  -6 -11   2 4475.37 1096.70   2
  11   6   2 2398.72 923.639   3
   6 -17   2 2337.08 612.436   4
   6 -17   2 3105.87 648.475   3
 -11  17   2 1851.95 330.479   4
  -6 -11   2 2897.94 709.399   4
 -17  11   2 2732.73 633.779   1
 -11  17   5 3757.52 587.612   4
 -11  17   5 3973.50 870.173   4
   6 -17   5 5261.07 1634.04   2
  11   6   5 4189.19 801.042   1
  -6 -11   5 5142.78 1246.45   2
  17  -6   5 5724.59 1319.76   3
  11   6   5 3336.67 1135.84   3
 -17  11   5 4343.87 659.372   4
  17  -6   5 3668.46 764.441   1
   6 -17   5 5153.35 1188.04   4
  -6 -11   5 3337.75 1009.78   4
   6 -17   8 2524.99 1479.23   2
  -6 -11   8 6.13146 796.180   2
  17  -6   8 1665.82 976.232   3
  11   6   8 2652.65 1539.03   3
  17  -6   8 491.264 974.858   4
  17  -6   8 923.973 925.862   2
 -11  17   8 2729.22 1138.77   4
   6 -17   8-609.731 818.922   4
 -17  11   8 2692.38 874.323   4
  -6 -11   8 2272.18 992.047   4
  17  -5  -8 1377.88 1012.43   3
  -5 -12  -8 1101.86 949.950   1
  12   5  -8 1891.35 791.872   3
  17  -5  -8 1105.77 1070.99   1
  12   5  -8 206.354 788.439   1
   5 -17  -8 1996.92 1398.77   1
  17  -5  -5 5040.08 1191.53   3
  12   5  -5 3911.97 944.318   3
  17  -5  -5 4222.08 1119.75   1
   5 -17  -5 3171.63 1278.62   1
  -5 -12  -5 5655.13 1254.51   1
  -5 -12  -2 2973.73 749.460   1
   5 -17  -2 2935.24 908.176   1
  17  -5  -2 2029.64 720.281   3
  17  -5  -2 2425.03 586.667   1
  12   5  -2 825.072 629.709   3
   5 -17  -2 1959.74 539.225   2
  -5 -12  -2 1738.69 705.787   2
 -12  17  -2 2912.21 934.416   4
  17  -5  -2 636.750 468.255   4
  -5 -12   1 5308.82 902.564   3
  17  -5   1 5805.55 1159.29   3
   5 -17   1 5947.05 989.839   3
  12   5   1 5175.86 1137.71   3
 -12  17   1 3933.94 447.918   4
   5 -17   1 6137.85 1180.63   2
   5 -17   1 7554.63 1040.88   4
  -5 -12   1 4167.62 757.181   4
   5 -17   4 128.511 582.771   2
  -5 -12   4 1504.62 983.366   2
  17  -5   4 1113.14 918.464   3
  12   5   4-341.916 690.693   3
  17  -5   4 1175.35 337.970   1
 -12  17   4 687.129 323.049   4
   5 -17   4 1174.81 776.346   4
  -5 -12   4 994.219 604.547   4
 -12  17   4 551.542 233.379   4
 -17  12   4 860.943 272.146   4
 -12  17   7 5528.46 1183.17   4
   5 -17   7 5052.09 1599.17   2
 -17  12   7 4377.03 914.501   4
  -5 -12   7 3052.98 1444.06   2
   5 -17   7 4098.52 1270.68   4
  17  -5   7 3803.63 1253.74   3
  12   5   7 3329.54 1059.16   3
  -5 -12   7 3749.06 1342.65   4
   4 -17  -9-728.829 1408.02   1
  17  -4  -9-50.2001 763.969   3
  13   4  -9 854.326 747.427   3
  -4 -13  -9 425.737 1043.14   1
  13   4  -9 1074.63 1035.44   1
  17  -4  -9 760.016 1295.79   1
  13   4  -6 1249.52 748.361   1
  17  -4  -6 1309.16 845.547   3
  13   4  -6 1845.72 674.319   3
  17  -4  -6 3013.86 1122.51   1
   4 -17  -6 1212.49 1032.00   1
  -4 -13  -6 2219.22 1013.11   1
  17  -4  -3 1609.16 812.197   3
   4 -17  -3 1992.05 822.561   1
  -4 -13  -3 326.889 381.681   1
  13   4  -3 1884.45 736.595   3
  17  -4  -3 2649.74 750.538   1
   4 -17  -3 2310.22 457.005   2
   4 -17   0 2462.46 620.611   4
  -4 -13   0 1767.26 629.754   4
  17  -4   0 2529.02 758.650   3
   4 -17   0 1815.83 676.482   2
  13   4   0 1020.08 674.568   3
  -4 -13   0 1773.00 618.547   2
   4 -17   0 2357.01 752.814   3
   4 -17   0 2489.47 776.043   1
   4 -17   3 2375.11 350.629   3
   4 -17   3 3384.96 1108.47   2
  -4 -13   3 2578.15 513.761   3
  -4 -13   3 5201.71 1260.18   2
  -4 -13   3 3761.21 876.274   4
  17  -4   3 2986.32 1004.59   3
  13   4   3 2889.42 1122.42   3
   4 -17   3 2049.46 608.379   4
  -4 -13   6-211.391 848.169   2
 -17  13   6-610.825 426.280   4
  17  -4   6 504.497 644.232   3
  17  -4   6-324.055 464.349   1
  13   4   6 1163.24 1144.28   3
 -13  17   6 476.604 442.956   4
   4 -17   6 1550.29 840.051   4
  -4 -13   6 769.122 646.362   4
  13   4   6 280.746 495.125   1
   4 -17   9 9.95697 922.666   2
  -4 -13   9 1517.70 1217.19   2
  17  -4   9 2413.37 1345.18   3
  13   4   9 2229.67 1455.58   3
  17  -4   9-384.287 990.528   4
  17  -4   9 3480.82 1780.77   2
 -13  17   9 1476.09 971.387   4
   4 -17   9 1958.99 1279.27   4
 -17  13   9 1121.97 847.537   4
  -4 -13   9 162.528 782.371   4
  14   3  -7 2748.14 1148.51   1
  17  -3  -7 2406.25 973.204   3
  17  -3  -7-46.5302 627.315   1
  14   3  -7 1366.71 735.674   3
   3 -17  -7 827.275 942.488   1
  -3 -14  -7 953.163 936.055   1
  17  -3  -4 1245.10 604.111   3
  14   3  -4 2184.72 678.685   3
   3 -17  -4 875.313 844.478   1
  -3 -14  -4 2280.36 754.158   1
  17  -3  -4 3381.28 891.889   1
   3 -17  -1 1506.04 551.623   4
  -3 -14  -1 2346.48 810.012   4
  17  -3  -1 1848.50 740.067   3
  14   3  -1 1716.44 756.358   3
   3 -17  -1 1313.48 390.799   2
  -3 -14  -1 2091.57 733.104   2
  -3 -14  -1 1172.21 655.834   1
   3 -17  -1 115.779 383.058   1
   3 -17   2 2287.82 906.165   2
  -3 -14   2 2719.65 606.788   3
  -3 -14   2 3198.20 925.584   2
  17  -3   2 3268.04 945.884   3
   3 -17   2 2432.12 561.785   3
  14   3   2 2225.25 900.480   3
   3 -17   2 2071.44 648.294   4
  -3 -14   2 2809.51 733.068   4
 -14  17   5 571.643 225.577   4
   3 -17   5 465.601 702.362   2
  17  -3   5 663.738 373.546   1
  -3 -14   5 607.975 583.158   2
  17  -3   5 270.646 646.206   3
  14   3   5-1203.78 1074.44   3
 -14  17   5 179.564 229.860   4
  14   3   5 688.319 427.224   1
   3 -17   5 105.494 651.196   4
  -3 -14   5-129.662 427.438   4
 -17  14   5 1074.88 325.472   4
 -17  14   8 902.878 629.514   4
   3 -17   8 1710.19 1264.37   2
  -3 -14   8 1865.32 1159.10   2
  17  -3   8 2051.22 1185.77   3
  14   3   8 2042.67 1283.85   3
   3 -17   8 2730.94 1400.44   4
 -14  17   8 1260.55 818.116   4
  -3 -14   8 951.860 803.224   4
  17  -2  -8 559.614 769.368   3
  17  -2  -8 1870.37 1211.54   1
  15   2  -8 832.298 662.677   3
  15   2  -8 850.795 1030.30   1
   2 -17  -8 1363.67 1244.35   1
  -2 -15  -8 326.984 868.808   1
  15   2  -5 5947.05 1169.76   3
  17  -2  -5 5741.78 1230.38   1
  17  -2  -5 5224.91 1162.38   3
   2 -17  -5 3500.17 1262.03   1
  15   2  -5 6519.66 1276.42   1
  -2 -15  -5 5434.79 1301.75   1
  -2 -15  -2 2180.03 750.135   1
   2 -17  -2 2031.56 723.322   1
  17  -2  -2 1815.02 735.460   3
  15   2  -2 2407.66 849.344   3
   2 -17  -2 1487.95 485.659   2
  -2 -15  -2 2248.05 628.236   2
  17  -2  -2 2986.51 588.970   1
  15   2   1 7408.69 1389.98   3
   2 -17   1 4501.23 1004.58   2
  17  -2   1 4162.92 1035.69   3
  -2 -15   1 3887.56 843.110   3
  -2 -15   1 4774.51 1129.43   2
   2 -17   1 3347.52 778.312   3
   2 -17   1 3843.30 751.028   4
  -2 -15   1 3247.34 782.178   4
   2 -17   4 655.188 589.672   2
  -2 -15   4 1121.53 827.937   2
  17  -2   4 2718.96 1104.70   3
  15   2   4 1481.57 968.327   3
   2 -17   4 1620.81 819.007   4
  -2 -15   4 854.795 584.199   4
  -2 -15   7 6978.10 1868.58   2
  17  -2   7 6138.18 1777.03   3
  15   2   7 3882.14 1446.13   3
 -15  17   7 8139.56 1134.47   4
 -17  15   7 6358.51 947.564   4
   2 -17   7 11314.0 2347.37   2
   2 -17   7 7173.88 1684.21   4
  -2 -15   7 5646.39 1408.67   4
   1 -17  -9 664.127 1007.08   1
  -1 -16  -9 3629.76 1873.00   1
  17  -1  -9 3376.25 1237.67   3
  16   1  -9 2308.56 1077.38   3
  16   1  -9 973.262 1030.79   1
  17  -1  -9 2241.80 1283.34   1
  17  -1  -6 1430.36 864.652   3
  16   1  -6 1463.69 833.769   3
  16   1  -6 2381.56 1098.83   1
  17  -1  -6 2999.41 1046.93   1
   1 -17  -6 2409.90 1154.63   1
  -1 -16  -6 836.761 757.659   1
   1 -17  -3 2580.29 991.237   1
  -1 -16  -3 3164.05 900.442   1
  17  -1  -3 3375.87 951.975   3
  16   1  -3 3351.42 940.722   3
  17  -1  -3 4175.32 879.370   1
   1 -17  -3 3086.84 704.241   2
  -1 -16  -3 843.721 586.559   2
   1 -17   0 2464.78 720.001   4
  -1 -16   0 1652.44 642.627   4
  17  -1   0 1426.69 668.096   3
  16   1   0 773.111 807.465   3
   1 -17   0 582.295 532.064   2
  -1 -16   0 505.666 425.210   2
   1 -17   0 1301.72 722.481   3
  -1 -16   0 2038.53 810.102   1
   1 -17   0 2458.56 807.916   1
   1 -17   3 4726.96 997.390   4
  -1 -16   3 6059.24 717.602   3
   1 -17   3 5100.68 587.123   3
  17  -1   3 6455.81 1454.49   3
  16   1   3 7734.65 1564.10   3
  -1 -16   3 5388.76 1323.75   2
  -1 -16   3 6266.18 1212.03   4
   1 -17   3 6738.90 1474.95   2
   1 -17   6 2357.02 1107.69   2
  -1 -16   6 71.1708 886.012   2
   1 -17   6 1841.77 878.955   4
  17  -1   6 2098.00 1263.57   3
  16   1   6 1137.12 1085.33   3
 -16  17   6 1190.82 380.529   4
  -1 -16   6 3153.79 1082.97   4
 -17  16   6 803.900 362.762   4
   1 -17   9 2998.00 1601.43   2
  -1 -16   9 3601.85 1540.35   2
  17  -1   9 1905.99 1337.37   3
  16   1   9 251.263 992.426   3
  17  -1   9 1587.91 1366.90   2
   1 -17   9 2079.87 1175.20   4
  -1 -16   9 1063.45 1426.71   4
  17   0  -7 1869.86 993.480   3
   0 -17  -7 1977.58 1170.21   1
  17   0  -7 736.492 670.107   1
  17   0  -4 2032.06 740.468   1
  17   0  -4 1448.16 838.763   3
   0 -17  -4 1619.87 855.240   1
   0 -17  -1 639.644 484.106   4
  17   0  -1-357.350 462.241   3
   0 -17  -1 652.095 508.361   2
   0 -17   2 4747.53 790.069   3
   0 -17   2 5434.65 1198.35   2
  17   0   2 4348.09 1144.60   3
   0 -17   2 3986.76 913.038   4
   0 -17   5 271.975 840.878   2
  17   0   5-79.7298 776.750   3
  17   0   5 1079.07 337.992   1
   0 -17   5-653.760 745.965   4
   0 -17   8 334.864 1070.79   2
  17   0   8 960.222 1236.56   3
 -17  17   8-29.7215 511.100   4
   0 -17   8 2080.21 1145.71   4
 -18   0  -6 8089.27 959.619   1
  18 -18  -6 10180.0 2097.30   1
  18 -18  -3 658.941 816.885   1
  18 -18  -3-161.927 301.505   2
   0  18  -3 611.242 519.598   3
  18 -18  -3 513.226 421.320   2
  18 -18   0 5773.44 1075.12   3
  18 -18   0 4690.97 995.674   1
   0  18   0 5319.69 1346.91   3
  18 -18   0 4826.97 1088.06   2
 -18   0   3 374.720 490.999   4
 -18   0   3 784.294 650.460   1
  18 -18   3 57.6865 369.784   3
 -18   0   3 1848.75 1008.96   2
   0  18   3 1066.48 929.612   3
  18 -18   3 1006.85 761.013   4
  18 -18   3 1902.30 1189.59   2
  18 -18   6 3570.59 1305.57   2
  18 -18   6 2539.36 766.157   3
 -18   0   6 4759.11 1396.48   2
   0  18   6 5186.28 1795.73   3
  18 -18   6 4478.39 1453.53   4
 -18   0   6 5355.92 1227.64   4
  17 -18  -7 1600.95 1068.53   1
  18 -17  -7 1680.49 1051.15   1
 -18   1  -7 1776.22 685.021   1
 -17  -1  -7 2657.83 877.592   1
  17 -18  -4 110.221 175.446   2
  18 -17  -4 414.216 360.915   2
   1  17  -4 64.3377 338.017   3
  17 -18  -4 285.028 653.446   1
  18 -17  -4 771.187 853.956   1
  18 -17  -4 512.195 351.012   2
  17 -18  -4 423.859 226.544   2
  18 -17  -1 4572.36 1002.87   3
  17 -18  -1 3785.10 962.125   1
  18 -17  -1 4495.65 1016.79   1
   1  17  -1 6848.44 1409.25   3
  -1  18  -1 4544.81 1127.43   3
  18 -17  -1 4686.91 1016.22   2
  17 -18  -1 4221.34 974.291   2
 -17  -1   2 1229.79 619.364   4
 -18   1   2 1845.26 641.447   4
 -17  -1   2 2287.59 688.315   1
  17 -18   2 1914.81 648.398   3
  18 -17   2 1193.20 523.874   3
 -18   1   2 2359.55 631.624   1
   1  17   2 3338.92 1249.89   3
 -17  -1   2 1836.67 716.735   2
  -1  18   2 802.063 990.410   3
 -18   1   2 1571.10 787.178   2
  18 -17   2 1016.80 741.772   2
  18 -17   2 492.631 450.554   4
  17 -18   2 574.538 433.477   1
  17 -18   2 1863.05 580.761   4
  17 -18   2 3215.22 1251.18   2
  18 -17   2 934.949 524.642   1
  -1  18   5 2063.16 756.214   2
  17 -18   5 1755.79 575.727   3
  18 -17   5 2220.77 717.115   3
 -17  -1   5 3187.30 1182.10   2
 -18   1   5 2807.65 1068.08   2
 -17  -1   5 2090.79 800.683   4
   1  17   5 2099.66 1461.82   3
  -1  18   5 747.322 852.981   3
  17 -18   5 6356.12 1522.07   4
  18 -17   5 2705.25 1120.43   4
  18 -17   5 2947.26 1338.34   2
  17 -18   5 4005.10 1497.06   2
 -18   1   5 2431.02 729.095   4
 -17  -1   8 3480.97 1294.43   2
 -18   1   8 1823.48 1194.56   2
   1  17   8 3395.42 1776.60   3
  18 -17   8 2796.24 1466.64   4
  17 -18   8 2640.38 1271.37   4
  18 -17   8 1271.98 1526.41   2
  17 -18   8 4267.78 1902.78   2
 -17  -1   8 1677.99 923.624   4
 -18   1   8 2794.70 1187.96   4
  16 -18  -8 1385.94 1303.15   1
  18 -16  -8-708.170 1116.82   1
 -16  -2  -8 1729.43 906.705   1
 -18   2  -8-10.7221 557.452   1
  18 -16  -5 1254.98 391.269   2
 -16  -2  -5 1260.35 472.333   1
   2  16  -5 696.075 299.418   3
  16 -18  -5 876.026 748.393   1
  18 -16  -5-177.509 611.705   1
  16 -18  -2 2585.45 895.967   1
  18 -16  -2 2541.98 811.908   1
   2  16  -2 2469.85 814.358   3
  18 -16  -2 2861.90 686.136   2
  16 -18  -2 3028.82 716.880   2
 -16  -2   1 479.097 549.664   4
 -18   2   1 911.434 541.002   4
  16 -18   1 674.167 467.613   3
  18 -16   1 315.654 495.379   3
 -18   2   1 119.194 193.527   1
 -16  -2   1 960.387 501.543   1
  16 -18   1-421.942 594.915   2
   2  16   1-486.373 773.611   3
  -2  18   1 1355.92 774.127   3
 -16  -2   1 1003.01 676.774   2
  18 -16   1-260.001 525.447   2
  18 -16   1 451.966 366.565   4
  16 -18   1 118.975 247.432   4
  16 -18   1 182.508 402.768   1
  18 -16   1 574.249 455.146   1
  -2  18   4 627.288 611.368   2
  16 -18   4 730.917 492.627   3
  18 -16   4 1382.40 631.610   3
 -16  -2   4 2408.09 1023.25   2
 -18   2   4 437.197 642.287   2
   2  16   4-591.852 1087.96   3
  -2  18   4 3082.06 1456.11   3
  18 -16   4-457.204 505.722   4
  18 -16   4 1090.45 866.691   2
  16 -18   4 275.445 534.220   4
  16 -18   4 328.276 661.759   2
 -16  -2   4 608.735 450.080   4
 -18   2   4 334.331 541.943   4
  18 -16   7 1314.79 1187.79   4
 -16  -2   7 1466.42 930.664   2
  18 -16   7 468.771 539.089   3
  16 -18   7 423.826 477.820   3
 -18   2   7 144.884 870.271   2
   2  16   7 897.773 1358.62   3
  16 -18   7 984.702 1056.37   4
  18 -16   7 895.540 923.672   2
  16 -18   7 1231.59 1480.60   2
 -16  -2   7 1221.13 952.321   4
 -18   2   7 4.02413 554.806   4
  15 -18  -9 912.426 1235.52   1
  18 -15  -9 250.813 1095.76   1
 -15  -3  -9 1994.91 1173.37   1
 -18   3  -9 876.342 850.226   1
 -15  -3  -6 3218.91 870.767   1
  18 -15  -6 1736.97 1026.61   1
  15 -18  -6 1241.48 928.687   1
  15 -18  -3 998.258 730.905   1
 -15  -3  -3 1063.30 324.382   1
  18 -15  -3 221.530 379.335   2
   3  15  -3 2001.43 668.277   3
  15 -18  -3 871.161 307.485   2
  18 -15  -3 1585.75 776.632   1
  15 -18  -3 869.455 372.726   2
 -15  -3   0 4862.55 986.439   4
  18 -15   0 5916.44 1046.74   3
   3  15   0 6353.51 1456.25   3
  -3  18   0 8390.70 1484.17   3
 -15  -3   0 4510.61 640.413   1
 -15  -3   0 4956.63 1222.10   2
  18 -15   0 4547.62 552.185   4
  15 -18   0 7433.53 1262.85   2
  15 -18   0 7152.41 1229.89   1
  18 -15   0 7601.53 1118.91   1
  15 -18   0 5020.56 436.161   4
  18 -15   0 4787.41 460.484   4
 -18   3   3 215.735 432.529   4
  -3  18   3-171.226 588.929   2
  15 -18   3 96.3756 406.757   3
  18 -15   3 374.880 386.297   3
 -15  -3   3 266.137 666.874   2
  15 -18   3 2699.63 1287.75   2
   3  15   3-763.641 849.035   3
 -15  -3   3 369.945 575.511   1
 -18   3   3 702.597 518.648   1
 -18   3   3 171.790 692.998   2
  -3  18   3 790.017 756.504   3
  18 -15   3 663.987 556.617   4
  18 -15   3-1337.91 930.472   2
  15 -18   3 857.072 565.298   4
 -15  -3   3-277.383 458.777   4
  18 -15   6 1320.45 797.950   3
 -15  -3   6 5073.89 1313.22   2
  15 -18   6 2784.47 635.163   3
 -18   3   6 3629.64 1264.21   2
   3  15   6 2352.86 1303.78   3
  18 -15   6 3161.81 1248.12   4
  15 -18   6 2646.97 1056.28   4
  18 -15   6 3192.67 1498.80   2
  15 -18   6 4538.00 1532.27   2
 -15  -3   6 3117.40 1088.02   4
 -18   3   6 3394.62 949.986   4
 -15  -3   9-685.944 828.067   2
 -18   3   9-38.8290 795.012   2
   3  15   9-138.250 1369.37   3
  -3  18   9-1447.74 1412.60   4
  18 -15   9 1038.97 1620.80   4
  15 -18   9 3171.81 1508.93   4
  18 -15   9 1396.43 1462.70   2
 -15  -3   9-912.362 954.890   4
 -18   3   9 981.695 835.610   4
  15 -18   9 90.4333 1272.01   2
  18 -14  -7 2341.33 1234.81   1
  14 -18  -7 3829.24 1494.75   1
 -14  -4  -7 1672.25 667.753   1
  18 -14  -4 2521.59 698.532   2
 -14  -4  -4 1326.81 525.925   1
   4  14  -4 1871.23 587.595   3
  14 -18  -4 3378.43 1099.37   1
  18 -14  -4 3710.10 1322.23   1
  14 -18  -1 1841.36 789.952   1
 -14  -4  -1 747.295 253.093   1
  18 -14  -1 2099.86 745.861   3
  18 -14  -1 1744.10 630.505   1
   4  14  -1 1483.07 750.329   3
 -14  -4  -1 1234.20 356.504   1
  14 -18  -1 1181.90 651.678   2
 -14  -4   2 3874.00 880.733   4
 -18   4   2 3421.75 753.022   4
  14 -18   2 2299.59 558.181   3
  18 -14   2 2636.17 707.330   3
  -4  18   2 2470.04 920.595   2
 -14  -4   2 2949.54 946.185   2
   4  14   2 2871.43 1028.80   3
  14 -18   2 3526.84 744.849   4
  18 -14   2 3227.14 843.171   4
 -18   4   2 4570.71 763.132   1
  18 -14   2 2206.79 541.699   1
  14 -18   2 4378.65 1153.23   2
 -14  -4   2 3120.55 833.007   1
  -4  18   5 766.478 456.239   2
  18 -14   5 760.785 452.596   3
  14 -18   5 1324.11 394.925   3
  14 -18   5 1817.04 999.192   2
 -14  -4   5 2354.24 1070.30   2
 -18   4   5 673.465 575.394   2
   4  14   5 659.966 865.211   3
  18 -14   5 2028.90 990.737   4
  18 -14   5 1330.26 800.693   2
  14 -18   5 2786.66 993.449   4
 -14  -4   5 1519.33 710.230   4
 -18   4   5 1389.27 663.414   4
  14 -18   8 1389.73 1161.36   4
 -14  -4   8 3350.09 1391.80   2
  18 -14   8 646.725 589.809   3
 -18   4   8 918.509 811.928   2
   4  14   8-301.523 1122.67   3
  18 -14   8 3192.92 1644.59   4
  18 -14   8-1389.05 1457.57   2
 -14  -4   8 1282.98 916.484   4
 -18   4   8 860.226 787.870   4
  14 -18   8 2151.18 1492.14   2
  13 -18  -8 2671.12 1293.59   1
  18 -13  -8 5080.70 1633.84   1
 -13  -5  -8 1702.21 1006.39   1
  18 -13  -5 1070.81 786.980   1
  18 -13  -5 772.328 561.889   2
 -13  -5  -5 1438.77 642.889   1
   5  13  -5 1530.63 568.625   3
  13 -18  -5 78.3188 633.806   1
  18 -13  -2 8281.81 1409.07   3
   5  13  -2 5107.72 956.370   3
  18 -13  -2 4660.59 803.919   2
  13 -18  -2 7991.08 939.298   2
 -13  -5  -2 5175.11 670.250   1
  18 -13  -2 5489.03 1097.26   1
  13 -18  -2 6790.27 1302.71   1
 -13  -5   1 2237.70 692.930   4
  18 -13   1 1493.51 490.304   1
  18 -13   1 1174.89 541.579   3
   5  13   1 225.510 502.599   3
 -13  -5   1 2352.85 927.310   2
 -13  -5   1 1846.44 574.295   1
  18 -13   1 1336.75 534.973   4
 -18   5   1 1914.71 366.930   1
  18 -13   1 1429.34 447.845   4
  13 -18   1 1181.69 573.005   1
  -5  18   1 2016.17 672.495   4
  13 -18   1 2367.26 499.251   4
  13 -18   1 1326.17 739.611   2
  -5  18   1 916.497 663.319   2
  -5  18   4 2163.34 564.461   2
  18 -13   4 1882.57 700.185   1
 -18   5   4 3537.98 814.001   4
  13 -18   4 2108.51 520.532   3
  18 -13   4 3534.29 974.469   3
 -13  -5   4 2802.16 1016.97   2
   5  13   4 3655.76 1312.40   3
 -18   5   4 3184.26 1046.64   2
  18 -13   4 4173.14 1211.06   4
  18 -13   4 963.188 878.634   2
  13 -18   4 4226.05 1066.37   4
  13 -18   4 4467.25 1391.32   2
 -13  -5   4 2716.36 958.776   4
  18 -13   7 1237.56 1024.08   2
 -18   5   7 227.842 574.480   4
  13 -18   7 1563.26 1002.29   4
 -13  -5   7 1502.77 772.325   2
  18 -13   7 538.460 654.547   3
 -18   5   7 1358.38 871.686   2
   5  13   7 3348.81 1748.34   3
  18 -13   7 859.490 930.850   4
 -13  -5   7 287.917 664.564   4
  13 -18   7 3359.08 1563.95   2
  12 -18  -9 2713.89 1629.55   1
  18 -12  -9 2048.51 1404.66   1
 -12  -6  -9 956.762 939.406   1
  18 -12  -6 2896.59 817.317   2
   6  12  -6 2321.76 596.286   3
  18 -12  -6 2996.95 1126.43   1
 -12  -6  -6 3083.38 987.253   1
  12 -18  -6 3673.03 1456.41   1
  18 -12  -3 2927.78 1038.98   3
  12 -18  -3 1414.35 627.970   1
   6  12  -3 2924.47 775.759   3
  18 -12  -3 1873.06 588.699   2
 -12  -6  -3 2085.67 526.547   1
  18 -12  -3 1447.12 435.067   4
  12 -18  -3 1614.48 275.446   2
  18 -12  -3 2528.97 823.691   1
 -12  -6   0 2371.80 680.817   4
  18 -12   0 5013.61 970.086   3
  -6  18   0 2134.39 885.091   2
  18 -12   0 3126.34 662.608   1
   6  12   0 2382.52 856.239   3
 -12  -6   0 4085.02 1073.11   2
  12 -18   0 4538.03 1002.79   1
 -12  -6   0 3122.97 646.196   1
  12 -18   0 3428.76 506.884   4
  -6  18   0 2864.62 806.945   4
  18 -12   0 2755.60 469.442   4
  12 -18   0 3096.68 831.185   2
 -18   6   3 1207.17 482.459   4
  12 -18   3 894.167 298.241   3
  18 -12   3 27.7847 508.746   3
 -18   6   3 530.942 478.358   1
 -12  -6   3 1640.81 744.570   2
   6  12   3 1847.24 978.845   3
  18 -12   3 2122.76 866.724   4
  12 -18   3 1140.31 662.956   4
  18 -12   3 836.957 486.983   1
  -6  18   3 1723.98 643.740   2
  12 -18   3 2219.33 1026.97   2
  -6  18   3 850.042 448.247   4
 -12  -6   3 847.605 590.825   4
  12 -18   6 204.523 838.828   2
 -18   6   6 10.6252 518.699   4
 -12  -6   6-167.961 735.307   2
  18 -12   6 1186.15 829.730   3
  12 -18   6 1734.94 977.448   4
 -18   6   6 511.308 590.516   2
   6  12   6 367.058 910.580   3
  18 -12   6-815.172 1048.62   4
  18 -12   6-945.547 1126.10   2
 -12  -6   6 233.611 660.869   4
 -12  -6   9 1029.63 1031.16   2
 -18   6   9 2482.76 1122.70   2
  18 -12   9 157.035 936.616   3
   6  12   9 1498.42 1573.55   3
  -6  18   9 204.210 1062.90   4
  18 -12   9-483.257 1101.04   4
  12 -18   9 2346.53 1541.67   4
  18 -12   9-112.238 1251.99   2
 -12  -6   9 1318.52 960.779   4
 -18   6   9 1749.88 826.869   4
  12 -18   9 2415.41 1644.41   2
  11 -18  -7 1301.44 996.412   1
   7  11  -7 2344.31 659.715   3
 -11  -7  -7 2996.74 1040.18   1
  18 -11  -7 1760.16 881.475   1
  18 -11  -4 3718.83 990.900   3
  18 -11  -4 5958.83 1229.24   1
  18 -11  -4 3142.76 826.805   2
   7  11  -4 4377.67 830.300   3
  11 -18  -4 4105.76 1162.79   1
  18 -11  -4 3647.01 739.466   4
 -11  -7  -4 4206.64 868.339   1
  11 -18  -1 2937.08 821.637   1
 -11  -7  -1 4309.26 1004.09   4
  18 -11  -1 4319.97 995.744   3
   7  11  -1 3473.35 889.509   3
 -11  -7  -1 2932.84 852.745   2
  18 -11  -1 2917.58 679.838   1
  11 -18  -1 4384.99 815.013   2
  18 -11  -1 3233.05 543.041   4
  -7  18  -1 2134.11 786.350   4
  11 -18  -1 2772.02 415.873   4
 -11  -7  -1 2510.97 530.166   1
 -11  -7   2 6851.32 1320.91   2
  18 -11   2 7540.61 1264.26   3
   7  11   2 9337.41 1845.18   3
  11 -18   2 9256.94 1211.11   3
  -7  18   2 8219.60 1134.75   2
  18 -11   2 7513.95 798.472   1
  11 -18   2 8044.21 1455.02   2
 -18   7   2 8579.28 997.554   1
  11 -18   2 7977.15 1092.59   4
  -7  18   2 7204.34 932.332   4
 -11  -7   2 7995.70 1235.59   4
 -11  -7   2 7509.47 1260.60   1
 -18   7   2 7665.40 944.123   4
  -7  18   5 743.602 423.289   4
  18 -11   5 136.534 832.675   2
  18 -11   5 1168.99 597.327   3
 -11  -7   5 1829.73 962.300   2
   7  11   5 2757.69 1250.81   3
 -18   7   5 2597.27 863.355   2
  18 -11   5 791.658 873.569   4
  11 -18   5 2039.06 876.126   4
 -11  -7   5 576.802 736.616   4
 -18   7   5 1059.45 541.502   4
  11 -18   5 2604.83 1199.22   2
  18 -11   5 705.029 587.753   1
 -11  -7   8 3438.77 1330.65   2
  18 -11   8 1071.00 805.938   3
 -18   7   8 1515.54 816.565   2
   7  11   8 2697.90 1729.33   3
 -18   7   8 997.584 717.375   4
  -7  18   8 1245.69 1103.32   4
  18 -11   8 1342.58 1181.43   4
  18 -11   8 5676.84 1784.50   2
  11 -18   8 1675.34 1156.57   4
 -11  -7   8 228.657 918.040   4
  11 -18   8 3251.15 1657.86   2
   8  10  -8 2994.85 814.820   3
 -10  -8  -8 1454.42 1012.81   1
  18 -10  -8 3254.84 1400.61   1
  10 -18  -8 3663.34 1731.93   1
  18 -10  -5 2176.03 737.680   2
   8  10  -5 1472.33 563.257   3
  18 -10  -5 3159.56 1103.27   1
  10 -18  -5 617.709 962.909   1
  18 -10  -5 1010.30 657.594   4
 -10  -8  -5 3006.50 901.130   1
  18 -10  -2 6498.27 1266.95   3
   8  10  -2 6808.04 1191.90   3
  10 -18  -2 6549.62 1252.92   1
 -10  -8  -2 5301.85 793.518   1
  18 -10  -2 5647.33 768.756   4
  -8  18  -2 5194.53 1146.39   4
  10 -18  -2 7199.74 861.125   2
  18 -10  -2 5066.93 951.562   1
  18 -10   1 4612.65 1044.35   3
 -10  -8   1 10164.2 1564.10   2
   8  10   1 9870.83 1708.49   3
  10 -18   1 5319.83 1014.12   3
 -10  -8   1 5538.64 967.573   1
 -18   8   1 6064.54 665.378   1
  -8  18   1 9319.51 1315.27   2
  10 -18   1 7044.12 1256.19   2
  -8  18   1 6220.59 906.391   4
  18 -10   1 6091.09 729.689   1
  10 -18   1 5271.17 814.992   4
 -10  -8   1 6390.85 1127.39   4
  18 -10   1 6133.31 828.432   4
  18 -10   4 3322.32 724.928   1
   8  10   4 6309.64 1796.91   3
  18 -10   4 3723.68 900.023   3
 -10  -8   4 5343.54 1310.88   2
  10 -18   4 5146.79 1067.05   4
  -8  18   4 4273.64 747.976   4
 -18   8   4 5410.79 827.411   4
 -10  -8   4 5126.06 1172.46   4
  10 -18   4 5319.08 1498.42   2
  10 -18   7 6101.36 1832.14   2
 -10  -8   7 3032.19 1235.76   2
  18 -10   7 660.090 848.660   3
   8  10   7 8569.71 2273.37   3
 -18   8   7 3278.02 1002.92   2
  -8  18   7 3408.32 1217.75   4
  18 -10   7 5374.46 1860.07   4
  18 -10   7 1635.42 1131.36   2
  10 -18   7 3824.79 1211.76   4
 -10  -8   7 5287.83 1408.85   4
 -18   8   7 2794.63 851.884   4
   9 -18  -9 1724.19 1469.57   1
  18  -9  -9 824.418 1413.02   1
   9   9  -9-841.750 664.095   3
  -9  -9  -9 2317.83 1318.09   1
   9   9  -6 289.507 520.799   3
   9 -18  -6 1793.74 967.637   1
  18  -9  -6 2616.68 1210.05   1
  -9  -9  -6 1259.60 795.748   1
   9 -18  -3 2092.38 339.660   2
  18  -9  -3 3238.94 902.492   3
   9 -18  -3 3048.84 922.784   1
   9   9  -3 1946.09 639.800   3
  18  -9  -3 2629.98 759.718   1
  -9  -9  -3 2917.42 739.100   1
  18  -9  -3 2222.91 615.567   4
  -9  -9   0 888.705 442.306   4
   9 -18   0 324.922 486.722   2
  18  -9   0 487.323 518.316   3
   9   9   0-295.051 519.282   3
  -9  -9   0-14.8492 640.188   2
   9 -18   0 207.219 448.219   3
  18  -9   0 387.331 279.392   1
  -9  18   0-84.3989 478.149   2
  -9  18   0 740.101 533.771   4
   9 -18   0 720.653 653.969   1
  18  -9   0 1072.11 464.377   4
   9 -18   0-73.4941 273.190   4
   9 -18   3 1697.26 865.957   2
 -18   9   3 2233.08 493.073   4
   9 -18   3 2211.70 376.857   3
  18  -9   3 2266.94 497.500   1
  -9  -9   3 2164.03 621.864   3
 -18   9   3 2556.73 737.349   1
  18  -9   3 1656.88 738.313   3
  -9  -9   3 1061.17 735.622   2
   9   9   3 450.596 942.158   3
   9 -18   3 1717.83 458.263   3
   9 -18   3 2247.52 659.935   4
  -9  18   3 2666.53 568.091   4
  -9  -9   3 2419.46 772.677   4
   9 -18   6 575.365 686.087   2
  -9  18   6 16.7310 619.221   4
  18  -9   6 232.335 646.038   1
  -9  -9   6 1127.16 1002.71   2
   9   9   6 250.272 986.419   3
 -18   9   6 222.612 499.643   2
  18  -9   6 2220.73 1138.65   4
   9 -18   6 1357.14 817.278   4
  -9  -9   6-528.320 664.210   4
 -18   9   6 1150.27 529.874   4
  -9  -9   9 915.772 1202.27   2
   9 -18   9-1274.02 1043.37   2
  18  -9   9 1470.48 1070.04   3
 -18   9   9-537.078 567.504   2
  18  -9   9 1157.69 1426.95   4
  -9  18   9 1295.33 1330.08   4
  18  -9   9 1166.58 1195.69   2
   9 -18   9 2156.98 1258.73   4
 -18   9   9 1518.84 953.976   4
  -9  -9   9 831.563 884.306   4
  18  -8  -7 2755.41 1014.76   3
  -8 -10  -7 3678.82 1330.39   1
  10   8  -7 2319.11 733.553   3
   8 -18  -7 2855.02 1365.26   1
  18  -8  -7 6067.25 1575.50   1
  10   8  -4 6458.04 1119.06   3
  18  -8  -4 5677.95 1206.09   3
  18  -8  -4 6079.58 1211.87   1
   8 -18  -4 3892.48 1199.02   1
  -8 -10  -4 3422.13 846.616   1
  18  -8  -4 2877.23 825.592   4
  18  -8  -1 7185.76 908.531   1
  18  -8  -1 5590.03 1094.27   3
  10   8  -1 6310.40 1190.99   3
  -8 -10  -1 7175.18 1269.14   2
 -10  18  -1 6915.29 1153.59   4
  -8 -10  -1 4825.91 767.321   1
   8 -18  -1 8006.82 1319.73   1
  18  -8  -1 5988.80 902.481   4
   8 -18  -1 6291.02 963.631   2
   8 -18  -1 5548.11 750.098   4
  -8 -10  -1 6232.43 1095.60   4
  -8 -10   2 7975.75 1380.51   2
  -8 -10   2 7544.51 1069.94   3
  18  -8   2 7788.01 1340.89   3
  -8 -10   2 6343.95 1141.92   4
  10   8   2 7410.53 1553.87   3
   8 -18   2 7481.63 996.592   3
 -18  10   2 5220.86 810.759   1
   8 -18   2 6640.76 1278.04   2
 -10  18   2 5212.27 671.858   4
   8 -18   2 7097.52 985.864   4
 -10  18   5 1378.91 469.366   4
   8 -18   5 2161.50 1010.37   2
  -8 -10   5 1818.67 882.704   4
  18  -8   5 1989.76 649.488   1
  -8 -10   5 3440.10 1134.38   2
  18  -8   5 2845.49 977.640   3
  10   8   5 351.358 878.006   3
 -10  18   5 2649.55 855.690   4
   8 -18   5 3287.15 950.928   4
 -18  10   5 2984.23 639.759   4
   8 -18   8 6417.30 1816.01   2
  -8 -10   8 4176.91 1352.19   2
  18  -8   8 3683.52 1348.51   3
  10   8   8 5440.24 1914.58   3
 -18  10   8 4839.77 1047.79   2
  18  -8   8 5171.76 1964.43   4
 -10  18   8 7291.22 1773.11   4
  18  -8   8 7053.81 2297.46   2
   8 -18   8 4285.58 1522.17   4
 -18  10   8 4548.70 1050.71   4
  -8 -10   8 5872.59 1673.76   4
  18  -7  -8 2398.97 1035.82   3
  11   7  -8 2883.79 882.900   3
  -7 -11  -8 604.649 843.253   1
  18  -7  -8 2124.32 1276.09   1
   7 -18  -8 3548.69 1509.52   1
  18  -7  -5 1643.73 812.549   3
  11   7  -5 2522.22 833.357   3
   7 -18  -5 1116.28 1059.29   1
  -7 -11  -5 394.473 546.421   1
  18  -7  -5 2182.26 949.602   1
  18  -7  -2 10038.9 1453.85   3
  11   7  -2 9438.30 1454.73   3
  -7 -11  -2 7575.28 1252.88   2
  18  -7  -2 6830.20 1021.31   1
 -11  18  -2 7007.93 1270.56   4
   7 -18  -2 7954.04 1441.61   1
  -7 -11  -2 8990.61 1167.31   1
  18  -7  -2 7200.58 1027.53   4
   7 -18  -2 7646.74 904.620   2
  -7 -11   1 3565.16 800.919   4
  18  -7   1 3111.96 673.874   4
   7 -18   1 3401.62 915.614   2
  18  -7   1 3462.31 1014.15   3
  11   7   1 3271.48 954.854   3
  -7 -11   1 4047.65 939.918   2
   7 -18   1 3855.21 906.237   3
 -11  18   1 2996.59 563.796   4
   7 -18   1 3417.42 655.266   4
   7 -18   4 6133.55 1470.60   2
  -7 -11   4 3146.46 1033.54   2
  18  -7   4 3756.62 982.264   3
  11   7   4 4141.51 1374.99   3
 -11  18   4 3210.01 705.778   4
   7 -18   4 7129.85 1302.38   4
 -11  18   4 4721.80 567.154   4
 -18  11   4 4865.86 624.158   4
  18  -7   4 4024.04 632.346   1
  -7 -11   4 4279.59 1085.96   4
   7 -18   7 2154.78 1094.75   2
  -7 -11   7 875.462 953.688   2
  18  -7   7 1245.78 843.424   3
  11   7   7 1284.54 971.325   3
  18  -7   7 301.203 939.573   4
 -11  18   7 3181.05 1096.55   4
   7 -18   7 1844.16 1109.69   4
  -7 -11   7 2496.75 1138.88   4
 -18  11   7 2306.24 710.279   4
   6 -18  -9 1089.48 1613.38   1
  18  -6  -9 1029.08 769.519   3
  12   6  -9 793.078 561.630   3
  -6 -12  -9 1770.35 994.584   1
  18  -6  -9 896.309 1078.39   1
  18  -6  -6 713.287 743.183   3
  18  -6  -6 545.382 819.398   1
  12   6  -6 1259.03 703.128   3
   6 -18  -6 1341.09 931.620   1
  -6 -12  -6 841.033 835.656   1
  18  -6  -3 1508.44 641.849   1
  18  -6  -3 597.248 618.251   3
   6 -18  -3 894.711 854.458   1
  -6 -12  -3 381.018 502.332   1
  12   6  -3 811.518 720.562   3
   6 -18  -3 1020.40 344.464   2
 -12  18  -3 1617.87 884.457   4
  18  -6  -3 55.3808 477.303   4
   6 -18   0 3500.24 670.841   4
   6 -18   0 3231.73 883.824   2
  18  -6   0 3036.59 966.270   3
  12   6   0 3747.50 1084.44   3
  -6 -12   0 4273.80 983.249   2
   6 -18   0 2739.25 836.863   3
 -12  18   0 3438.50 678.610   4
   6 -18   0 3934.32 950.802   1
  -6 -12   0 3812.63 897.215   4
  18  -6   0 2678.57 659.408   4
   6 -18   3 1992.54 753.653   2
  -6 -12   3 1853.28 590.896   3
  18  -6   3 3227.22 1043.77   3
  -6 -12   3 3566.82 969.834   2
   6 -18   3 1452.72 312.523   3
  12   6   3 3506.59 1236.99   3
 -12  18   3 809.167 200.871   4
   6 -18   3 1841.42 687.059   4
  -6 -12   3 2709.55 876.674   4
 -12  18   6 2032.32 535.495   4
   6 -18   6 1255.75 1076.75   2
  -6 -12   6 4201.72 1325.75   2
  18  -6   6 1979.32 1011.39   3
  12   6   6 3765.53 1316.23   3
  18  -6   6 2492.92 772.938   1
 -12  18   6 1422.25 658.653   4
   6 -18   6 2182.74 1077.39   4
  -6 -12   6 3447.29 1119.97   4
 -18  12   6 2972.06 672.388   4
   6 -18   9 311.633 1143.49   2
  18  -6   9 1883.45 1497.02   4
  -6 -12   9 1583.60 1123.91   2
  18  -6   9 1871.99 1135.52   3
  12   6   9 1632.89 1213.55   3
  18  -6   9 529.110 1202.29   2
 -12  18   9 1807.59 1306.10   4
   6 -18   9 1730.73 1194.52   4
 -18  12   9 654.293 722.556   4
  -6 -12   9 2360.79 1376.30   4
  18  -5  -7 2106.62 953.483   3
  13   5  -7 554.365 577.227   3
   5 -18  -7-252.781 847.856   1
  -5 -13  -7 1162.55 747.117   1
  18  -5  -4 4478.27 1117.57   3
  13   5  -4 2212.63 744.911   3
   5 -18  -4 2722.28 870.264   1
  18  -5  -4 3559.35 872.582   1
  -5 -13  -4 2633.78 897.737   1
  18  -5  -1 826.430 413.869   4
   5 -18  -1 950.408 480.951   4
  -5 -13  -1 1434.43 571.111   4
  18  -5  -1 2114.15 741.222   3
   5 -18  -1 1478.59 569.818   2
  13   5  -1 1824.95 728.154   3
  -5 -13  -1 1727.42 576.809   2
 -13  18  -1 1060.72 557.350   4
  18  -5  -1 1759.15 399.996   1
  -5 -13  -1 840.930 448.253   1
   5 -18  -1 651.063 581.271   1
  -5 -13   2 5901.62 923.960   3
  18  -5   2 8144.19 1435.22   3
   5 -18   2 5905.93 844.108   3
  13   5   2 4220.05 1249.80   3
   5 -18   2 7260.83 1421.09   2
   5 -18   2 5660.98 983.778   4
  -5 -13   2 5686.47 1046.11   4
 -18  13   2 3639.84 789.715   1
  -5 -13   2 6167.04 1278.52   2
 -13  18   5 465.391 246.944   4
   5 -18   5 1091.49 803.695   2
  -5 -13   5 1524.33 845.275   2
  18  -5   5 1231.20 854.484   3
  18  -5   5 962.365 442.763   1
  13   5   5 917.845 1137.30   3
 -13  18   5 524.756 353.271   4
  13   5   5 1376.19 491.890   1
   5 -18   5 1460.56 845.813   4
  -5 -13   5-140.970 640.070   4
 -18  13   5 2246.46 450.975   4
   5 -18   8 1464.69 1217.09   2
  -5 -13   8 8.62270 781.198   2
  18  -5   8 1052.95 959.584   3
  13   5   8 567.717 860.099   3
  18  -5   8 1193.70 1433.30   4
  18  -5   8 3008.66 1537.25   2
 -13  18   8 2605.75 1033.94   4
   5 -18   8 335.503 722.628   4
 -18  13   8 644.863 600.317   4
  -5 -13   8 2888.49 1249.12   4
  18  -4  -8 2991.85 1177.67   3
  14   4  -8 2910.65 952.134   3
  14   4  -8 2719.00 1328.25   1
  18  -4  -8 390.499 864.334   1
  -4 -14  -8 1316.15 945.096   1
   4 -18  -8-76.1491 967.423   1
  18  -4  -5 718.866 702.294   3
  14   4  -5 2109.04 772.320   3
   4 -18  -5-26.1928 625.726   1
  -4 -14  -5 1611.26 848.636   1
  18  -4  -5 2953.25 985.369   1
  18  -4  -2 3164.39 626.969   1
  -4 -14  -2 3914.66 822.408   1
   4 -18  -2 3736.09 897.902   1
  14   4  -2 5175.34 1140.58   3
  18  -4  -2 3483.99 969.328   3
   4 -18  -2 3259.37 704.932   2
  -4 -14  -2 3088.38 770.079   2
   4 -18   1 1982.83 759.184   2
  -4 -14   1 571.040 408.881   3
  18  -4   1 1526.86 765.570   3
  14   4   1 1694.57 791.027   3
  -4 -14   1 1467.80 787.797   2
   4 -18   1 1438.56 656.801   3
   4 -18   1 1217.64 588.372   4
  -4 -14   1 881.181 530.978   4
   4 -18   4 2906.06 1082.92   2
  -4 -14   4 3469.96 1072.79   2
  18  -4   4 1504.75 826.320   3
  14   4   4 3027.34 1173.71   3
  -4 -14   4 2496.53 864.739   4
   4 -18   4 815.509 550.563   4
   4 -18   7 633.619 803.233   2
  -4 -14   7 2342.02 1256.02   2
  18  -4   7 1926.86 1113.45   3
  14   4   7 1376.27 1177.03   3
 -14  18   7 2156.29 781.009   4
   4 -18   7 2562.84 1139.13   4
 -18  14   7 2208.76 650.479   4
  -4 -14   7 1757.72 862.017   4
   3 -18  -9 428.642 1045.02   1
  18  -3  -9 1133.63 1320.39   1
  18  -3  -9 322.185 726.312   3
  -3 -15  -9 135.456 972.186   1
  15   3  -9 221.144 617.376   3
  15   3  -9-475.294 927.311   1
  18  -3  -6 5198.02 1342.19   3
  15   3  -6 2832.44 1018.44   3
   3 -18  -6 3276.07 1245.09   1
  -3 -15  -6 1958.42 1110.81   1
  15   3  -6 2887.29 1091.67   1
  18  -3  -6 1566.25 1002.87   1
   3 -18  -3 130.713 627.141   1
  -3 -15  -3-160.920 398.836   1
  18  -3  -3 915.095 657.498   3
  15   3  -3 23.1197 446.417   3
  18  -3  -3 249.874 394.989   1
   3 -18  -3 538.169 395.519   2
  -3 -15  -3 157.237 494.799   2
  -3 -15   0 5731.41 1181.20   2
  18  -3   0 6933.29 1310.91   3
  15   3   0 5401.82 1253.09   3
   3 -18   0 4638.54 1013.44   3
   3 -18   0 6135.37 1303.52   1
   3 -18   0 6708.52 1129.35   4
  -3 -15   0 6921.28 1079.28   4
   3 -18   0 6099.48 1163.51   2
  -3 -15   3 580.855 430.197   3
   3 -18   3 557.076 642.321   2
   3 -18   3 721.672 278.894   3
  -3 -15   3 1440.68 860.164   2
  18  -3   3 1516.39 771.403   3
  15   3   3 491.631 604.756   3
   3 -18   3-182.099 422.440   4
  -3 -15   3 488.867 566.023   4
   3 -18   6 2793.90 1219.84   2
  -3 -15   6 3457.64 1404.55   2
  18  -3   6 3583.53 1355.70   3
  15   3   6 2228.57 1051.77   3
 -15  18   6 2361.44 540.736   4
   3 -18   6 2701.11 981.111   4
  -3 -15   6 3567.48 1161.28   4
 -18  15   6 1812.89 453.358   4
   3 -18   9 223.264 1015.91   2
  -3 -15   9 1297.73 1109.43   2
  18  -3   9 2125.97 1419.43   3
  15   3   9 163.762 1079.54   3
  18  -3   9-1821.03 1448.74   4
  18  -3   9-831.014 1269.38   2
   3 -18   9 4080.92 1604.08   4
  -3 -15   9 1216.81 1059.10   4
  16   2  -7 1277.14 1034.84   1
  18  -2  -7 166.056 700.755   3
  16   2  -7 272.247 544.315   3
  18  -2  -7 692.124 762.577   1
   2 -18  -7 296.908 748.635   1
  -2 -16  -7 215.156 719.203   1
  18  -2  -4-88.6696 616.956   3
  16   2  -4-101.423 463.877   3
   2 -18  -4 436.124 819.975   1
  -2 -16  -4-16.5026 557.233   1
  18  -2  -4 1252.30 681.058   1
   2 -18  -1 1172.14 521.984   4
  -2 -16  -1-210.115 374.246   4
  18  -2  -1-255.759 527.845   3
  16   2  -1-359.732 540.718   3
   2 -18  -1 853.997 649.382   2
  -2 -16  -1 414.291 413.917   2
  -2 -16  -1-446.628 564.279   1
   2 -18  -1 1231.98 706.034   1
   2 -18   2 3202.52 947.015   2
  -2 -16   2 1754.47 577.624   3
  -2 -16   2 3597.39 1098.32   2
   2 -18   2 2723.82 647.453   3
  18  -2   2 776.118 646.676   3
  16   2   2 768.474 628.152   3
  -2 -16   2 4435.56 1043.11   4
   2 -18   2 2596.69 782.360   4
   2 -18   5 1809.57 1022.31   2
  -2 -16   5 929.276 985.460   2
  18  -2   5 1343.78 943.465   3
  16   2   5 1751.11 992.782   3
  18  -2   5 826.229 260.674   1
   2 -18   5 2345.53 970.013   4
  -2 -16   5 888.896 697.042   4
   2 -18   8 542.070 880.078   4
   2 -18   8-189.994 815.946   2
  -2 -16   8-9.13876 913.051   2
 -18  16   8 741.891 601.501   4
  -2 -16   8 1063.40 939.216   4
  18  -2   8 1628.12 1197.63   3
  16   2   8 1094.81 1049.96   3
  18  -1  -8 2931.23 1130.47   3
  17   1  -8 838.993 866.834   3
  17   1  -8 2373.13 1226.55   1
  18  -1  -8 3287.74 1392.78   1
   1 -18  -8 1018.19 1289.87   1
  -1 -17  -8 255.236 959.840   1
  18  -1  -5 3539.20 1056.68   1
  18  -1  -5 1081.08 686.045   3
  17   1  -5 3364.28 1029.91   3
   1 -18  -5 4945.82 1390.36   1
  -1 -17  -5 707.581 651.299   1
  17   1  -5 2454.16 1023.24   1
  -1 -17  -2 401.739 496.334   1
   1 -18  -2 532.068 536.827   1
  18  -1  -2 2157.10 807.070   3
  17   1  -2 1236.28 688.177   3
   1 -18  -2 1758.22 634.168   2
  -1 -17  -2 903.106 546.966   2
   1 -18   1 5908.62 1301.66   2
  18  -1   1 4889.19 1231.94   3
  -1 -17   1 3651.50 857.624   3
  17   1   1 6657.48 1354.78   3
   1 -18   1 4586.29 1001.47   3
  -1 -17   1 5061.46 997.989   4
  -1 -17   1 6567.17 1353.50   2
   1 -18   1 4270.69 892.327   4
   1 -18   4 122.965 582.610   2
  -1 -17   4-330.886 664.396   2
  18  -1   4 1794.69 1045.61   3
  17   1   4-1067.76 817.476   3
   1 -18   4 790.929 535.030   4
  -1 -17   4 145.341 501.684   4
   1 -18   7 2761.98 1459.88   2
  -1 -17   7 2661.43 1395.28   2
  18  -1   7 1976.35 1182.13   3
  17   1   7 2069.85 1195.63   3
 -17  18   7 1343.64 468.000   4
   1 -18   7 873.302 855.641   4
 -18  17   7 1227.72 483.839   4
  -1 -17   7 3493.62 1219.87   4
  18   0  -6 6200.31 1422.31   3
  18   0  -6 6064.84 1437.55   1
   0 -18  -6 3925.71 1300.19   1
   0 -18  -3 912.352 739.875   1
  18   0  -3 309.363 672.968   3
   0 -18  -3 509.227 550.945   2
   0 -18   0 6733.39 1315.59   2
   0 -18   0 4720.43 933.268   4
  18   0   0 4843.58 1215.29   3
   0 -18   0 3662.76 1049.87   1
   0 -18   3 1.26488 266.464   3
   0 -18   3 143.711 747.145   2
  18   0   3-197.486 584.148   3
   0 -18   3 31.4168 560.129   4
  18   0   6 7334.60 1783.03   3
   0 -18   6 7243.31 1590.81   4
  19 -19  -7 1007.27 1147.13   1
  19 -19  -4 726.773 875.164   1
  19 -19  -4 927.755 394.539   2
  19 -19  -1 667.191 690.514   3
  19 -19  -1-212.584 547.044   1
   0  19  -1 501.108 730.096   3
  19 -19  -1 234.071 483.569   2
 -19   0   2 5227.01 1074.50   4
  19 -19   2 5069.33 976.990   3
   0  19   2 6553.58 1688.94   3
 -19   0   2 4295.97 1203.08   2
  19 -19   2 6196.02 1140.17   1
  19 -19   2 7713.27 1732.94   2
  19 -19   2 5834.78 949.282   4
 -19   0   2 3508.90 768.220   1
  19 -19   5 508.113 529.203   3
 -19   0   5-182.767 771.635   2
   0  19   5 458.431 994.973   3
  19 -19   5-544.367 770.386   4
  19 -19   5-1194.98 884.796   2
 -19   0   5 1280.12 796.363   4
 -19   0   8 877.956 926.791   4
 -19   0   8 1894.03 1096.62   2
  19 -19   8 1703.68 1330.52   4
  18 -19  -8 1492.53 1244.11   1
  19 -18  -8-176.476 958.587   1
 -18  -1  -5-412.892 249.632   1
  18 -19  -5-464.631 693.376   1
  19 -18  -5 398.911 210.630   2
  18 -19  -2 670.412 672.863   1
  19 -18  -2 208.192 584.326   1
   1  18  -2 566.621 603.744   3
  -1  19  -2 2197.71 722.355   3
  19 -18  -2 46.2830 423.759   2
  19 -18  -2 314.855 512.468   2
  18 -19  -2 899.488 549.264   2
 -18  -1   1-463.038 524.140   4
 -19   1   1 81.2271 409.871   4
  18 -19   1-53.6354 358.832   3
  19 -18   1 2512.40 809.013   3
 -19   1   1 605.429 267.874   1
   1  18   1 2954.41 1199.72   3
  -1  19   1 2420.03 1162.44   3
  19 -18   1 427.279 277.514   4
  19 -18   1-139.857 548.917   2
  18 -19   1 1485.74 760.780   2
  18 -19   1 1045.02 361.612   4
 -18  -1   1 593.491 376.965   1
  18 -19   1 1339.95 583.133   1
  19 -18   1 1320.45 601.179   1
  -1  19   4 1606.40 861.094   2
  18 -19   4 1393.25 607.180   3
  19 -18   4 487.249 638.594   3
 -18  -1   4-288.013 789.631   2
 -19   1   4 72.7221 586.711   2
   1  18   4 1500.66 1236.66   3
  -1  19   4-39.6907 986.450   3
  19 -18   4 2106.35 917.512   4
  18 -19   4 2434.33 934.119   4
  19 -18   4 1758.48 1115.73   2
  18 -19   4 1714.43 1009.80   2
 -18  -1   4 385.254 458.394   4
 -19   1   4 11.5889 444.088   4
  19 -18   7 542.632 605.843   3
 -18  -1   7 1203.00 970.150   2
 -19   1   7 879.855 725.580   2
   1  18   7-957.237 1175.59   3
  -1  19   7 335.619 1019.87   3
  19 -18   7-438.069 1001.68   4
  18 -19   7 21.3997 956.456   4
  19 -18   7 905.390 1151.68   2
  18 -19   7 176.971 1142.53   2
 -18  -1   7-318.425 690.221   4
 -19   1   7 418.733 703.019   4
  19 -17  -6 2729.97 1428.88   1
 -17  -2  -6 1441.56 616.905   1
  17 -19  -6 1975.40 1166.79   1
  17 -19  -3 1194.18 728.597   1
  19 -17  -3 1039.62 473.795   2
  17 -19  -3 1094.61 378.481   2
   2  17  -3 1367.97 664.292   3
  19 -17  -3 1358.73 811.079   1
  17 -19  -3 1905.58 512.243   2
 -17  -2   0 1335.44 610.245   4
  17 -19   0 1527.47 586.240   3
 -17  -2   0 1257.32 331.118   1
  19 -17   0 1489.87 643.501   1
  19 -17   0 2034.12 701.726   3
  17 -19   0 1472.90 671.162   1
   2  17   0 1108.49 663.625   3
  -2  19   0 2385.62 896.782   3
  19 -17   0 3556.96 1067.23   2
  17 -19   0 1533.77 830.661   2
  19 -17   0 842.784 186.233   4
 -17  -2   0 687.773 179.015   1
  19 -17   0 950.392 181.730   4
 -19   2   3 1366.01 557.582   4
  -2  19   3 468.960 659.154   2
  17 -19   3 1912.45 607.979   3
  19 -17   3 1304.06 683.330   3
 -17  -2   3 1449.90 812.606   1
 -17  -2   3 1707.60 778.149   4
 -17  -2   3 1999.43 1004.60   2
   2  17   3 2280.09 1147.57   3
 -19   2   3 2156.65 941.061   2
  -2  19   3 2978.78 1184.77   3
 -19   2   3 766.204 583.382   1
  19 -17   3 2238.58 833.008   4
  19 -17   3 3008.47 1148.40   2
  17 -19   3 2565.08 785.630   4
  17 -19   3 881.797 919.798   2
  19 -17   6 1204.20 757.059   3
  17 -19   6 2091.30 687.859   3
 -17  -2   6 2806.58 955.056   2
 -19   2   6 2086.85 1128.94   2
 -17  -2   6 1370.60 743.346   4
   2  17   6 3993.62 1776.37   3
  -2  19   6 1634.32 1358.69   3
  19 -17   6 3037.17 1267.82   4
  17 -19   6 1412.78 1085.91   4
  19 -17   6 1577.72 884.255   2
  17 -19   6 2746.05 1470.07   2
 -19   2   6 1036.78 724.537   4
  19 -16  -7-96.2949 955.831   1
 -16  -3  -7 555.373 611.578   1
  16 -19  -7 1728.76 1129.26   1
  19 -16  -4 413.317 475.008   2
   3  16  -4 1847.20 581.514   3
  16 -19  -4 2575.98 901.325   1
  19 -16  -4 1277.06 784.372   1
 -16  -3  -4 1253.59 392.497   1
  16 -19  -1 303.398 420.054   1
  19 -16  -1 807.081 586.261   3
  19 -16  -1 1267.17 561.695   1
   3  16  -1 1340.43 728.686   3
  16 -19  -1 468.490 524.532   2
 -16  -3  -1 760.736 213.429   1
  -3  19   2 2502.83 1043.68   2
 -16  -3   2 1164.26 641.532   4
 -19   3   2 1554.37 655.356   4
  16 -19   2 1826.47 500.269   3
  19 -16   2 1603.61 603.347   3
 -19   3   2 2469.50 631.430   1
   3  16   2 2394.29 1092.17   3
 -16  -3   2 1154.98 511.656   2
 -16  -3   2 1282.59 661.588   1
  -3  19   2 53.3259 712.424   3
  19 -16   2 2894.61 1119.60   2
  19 -16   2 2787.70 768.510   4
  16 -19   2 3206.01 728.748   4
  16 -19   2 3722.46 1132.28   2
  19 -16   2 2351.06 661.242   1
  19 -16   5 749.504 547.721   3
  16 -19   5 721.531 478.732   3
 -16  -3   5 2547.09 1156.74   2
 -19   3   5-575.188 597.680   2
   3  16   5 2759.99 1316.81   3
  -3  19   5 1412.96 709.591   2
  19 -16   5-532.446 818.282   4
  19 -16   5 1014.51 981.861   2
  16 -19   5 2026.01 941.949   4
  16 -19   5 1912.37 1387.49   2
 -16  -3   5 18.9532 557.465   4
 -19   3   5 332.184 594.198   4
  16 -19   8 5093.97 1655.18   4
 -16  -3   8 6873.83 1630.71   2
  19 -16   8 1371.72 914.018   3
 -19   3   8 2160.65 1092.23   2
 -16  -3   8 4233.19 1153.01   4
   3  16   8 4257.74 1787.40   3
  19 -16   8 4109.50 1621.24   4
  19 -16   8 2689.43 1500.13   2
  16 -19   8 1827.73 1646.44   2
 -19   3   8 2030.18 1027.51   4
  15 -19  -8 1111.87 1096.61   1
 -15  -4  -8-612.703 866.606   1
  19 -15  -8-2490.42 1296.22   1
  19 -15  -5 1072.64 794.617   1
  19 -15  -5 1116.79 500.009   2
   4  15  -5 2993.48 706.386   3
  15 -19  -5 3516.06 1254.12   1
 -15  -4  -5 2247.00 662.786   1
  19 -15  -2 3443.65 977.573   3
  15 -19  -2 2187.00 816.636   1
   4  15  -2 2784.64 819.626   3
  19 -15  -2 3650.18 879.952   1
  19 -15  -2 1835.72 638.080   2
 -15  -4  -2 1761.27 394.401   1
  15 -19  -2 3152.62 693.890   2
 -19   4   1 1298.02 282.791   1
 -15  -4   1 420.829 441.036   4
 -15  -4   1 2205.82 604.572   1
  19 -15   1 1249.33 529.806   1
  19 -15   1 1864.78 418.451   4
  15 -19   1 1721.87 601.560   3
  19 -15   1 1972.82 726.533   3
   4  15   1 698.751 784.936   3
 -15  -4   1 1377.23 842.487   2
  19 -15   1 868.785 418.202   4
  -4  19   1 2340.11 1040.91   2
  15 -19   1 1599.31 678.498   1
  15 -19   1 1830.21 724.238   2
  15 -19   1 1278.63 397.213   4
  15 -19   4 1134.21 543.051   3
  19 -15   4-27.2393 446.567   3
 -15  -4   4 267.729 822.034   2
   4  15   4 284.866 991.983   3
 -19   4   4-883.158 749.852   2
  19 -15   4-1083.93 737.710   4
  19 -15   4 1667.04 1016.30   2
  15 -19   4-484.161 643.581   4
  15 -19   4 158.948 775.812   2
 -15  -4   4-132.826 579.725   4
  -4  19   4-366.526 550.545   2
 -19   4   4-8.79208 407.494   4
 -15  -4   7 1815.68 971.336   2
  19 -15   7 795.760 666.790   3
 -19   4   7 513.226 732.407   2
   4  15   7 89.3207 971.381   3
  19 -15   7 1132.36 1128.79   4
  15 -19   7 2176.56 840.428   4
  19 -15   7 3249.37 1499.04   2
  15 -19   7 2763.07 1688.13   2
 -15  -4   7 1391.95 829.650   4
 -19   4   7 1555.20 868.091   4
  14 -19  -9 355.496 1234.06   1
 -14  -5  -9 1360.88 1114.42   1
  19 -14  -9 1984.15 1370.94   1
  19 -14  -6 1698.50 847.184   1
   5  14  -6 759.544 455.130   3
 -14  -5  -6 299.353 536.716   1
  14 -19  -6 1141.75 988.788   1
  19 -14  -3 4906.44 1210.52   3
  14 -19  -3 4290.05 1079.15   1
  19 -14  -3 2819.78 727.884   2
   5  14  -3 3477.18 818.886   3
  19 -14  -3 3328.49 984.800   1
  14 -19  -3 2883.55 423.457   2
 -14  -5  -3 3687.05 679.547   1
  19 -14   0 434.713 263.254   4
 -14  -5   0 232.377 463.762   4
  19 -14   0 789.470 550.443   3
  19 -14   0-251.882 420.397   1
 -14  -5   0 380.145 441.047   1
   5  14   0-312.963 710.383   3
  14 -19   0 623.439 511.443   1
 -14  -5   0 225.904 616.447   2
  19 -14   0 477.016 336.272   4
  14 -19   0 1187.16 690.086   2
  14 -19   0 498.286 231.574   4
 -19   5   3 2361.27 611.406   4
  14 -19   3 3291.45 608.489   3
  19 -14   3 4743.89 1020.41   3
  19 -14   3 3102.34 814.208   1
 -14  -5   3 2107.27 760.766   2
   5  14   3 7182.89 1714.39   3
  14 -19   3 7103.49 1157.92   4
  19 -14   3 3965.53 1076.21   4
 -19   5   3 5333.63 1016.29   1
  14 -19   3 4099.18 1262.46   2
  -5  19   3 3345.51 844.249   2
 -14  -5   3 3801.19 941.695   4
  19 -14   6-308.172 631.824   3
 -14  -5   6 2494.72 1279.42   2
  14 -19   6 190.331 212.966   3
 -19   5   6-920.119 927.190   2
   5  14   6-438.412 1155.55   3
  19 -14   6-1120.99 1125.64   4
  19 -14   6 392.288 818.523   2
  14 -19   6 1977.22 1117.05   4
  14 -19   6 2230.04 1337.23   2
 -14  -5   6 348.866 657.358   4
 -19   5   6 379.231 564.113   4
 -14  -5   9 1837.79 1066.25   2
 -19   5   9 761.346 1133.80   2
  19 -14   9 2228.98 1072.20   3
   5  14   9 2819.88 1813.24   3
  -5  19   9 3095.03 1739.22   4
  19 -14   9 2417.93 1512.76   4
  14 -19   9 831.431 1144.14   4
  19 -14   9-302.130 1087.62   2
 -14  -5   9 1196.91 992.384   4
 -19   5   9 1466.04 974.473   4
  14 -19   9 4132.96 2080.50   2
 -13  -6  -7 501.283 651.091   1
   6  13  -7 1229.02 502.969   3
  19 -13  -7 2068.04 1243.37   1
  13 -19  -7 2389.35 1341.10   1
  19 -13  -4 2289.23 998.965   1
  19 -13  -4 724.062 517.456   2
   6  13  -4 1677.69 541.933   3
  13 -19  -4 3172.31 1170.43   1
  19 -13  -4 967.019 363.701   4
 -13  -6  -4 1897.36 603.469   1
 -13  -6  -1 1723.49 428.064   1
  13 -19  -1 1727.30 762.742   1
  19 -13  -1 2744.22 689.617   3
  19 -13  -1 1942.03 413.720   4
   6  13  -1 2253.72 784.130   3
  19 -13  -1 2429.84 702.919   1
 -13  -6  -1 2785.10 939.392   2
  13 -19  -1 2642.49 693.607   2
  13 -19   2 4286.74 698.422   3
  19 -13   2 4649.16 1007.64   3
  -6  19   2 3573.92 827.175   4
 -13  -6   2 4203.78 923.346   1
 -13  -6   2 4626.70 1232.86   2
   6  13   2 5287.74 1442.16   3
  19 -13   2 4150.69 710.156   1
  19 -13   2 4391.59 1069.65   4
  13 -19   2 8378.29 1662.54   2
 -19   6   2 6192.14 860.045   1
  13 -19   2 6698.61 990.361   4
  -6  19   2 4330.16 1005.85   2
 -13  -6   2 4769.01 1003.19   4
 -19   6   2 5652.77 910.403   4
  19 -13   5 304.280 705.549   3
  13 -19   5 619.895 227.557   3
 -13  -6   5 1041.96 666.463   2
   6  13   5 511.601 922.401   3
 -19   6   5 85.9947 508.261   2
  19 -13   5 1255.81 934.307   4
  19 -13   5 2188.01 1191.21   2
  13 -19   5 945.135 638.918   4
  13 -19   5 1934.78 1281.84   2
 -13  -6   5-53.6166 594.153   4
 -19   6   5 1120.26 577.960   4
 -13  -6   8 3693.99 1627.13   2
  19 -13   8 1899.25 980.802   3
 -19   6   8 1721.02 870.044   2
   6  13   8 2085.00 1515.32   3
  -6  19   8 1858.51 1404.46   4
  19 -13   8 2790.88 1485.99   4
  19 -13   8 4433.54 1791.98   2
  13 -19   8 3960.33 1352.06   4
 -13  -6   8 2157.53 1099.38   4
 -19   6   8 3619.60 1179.18   4
  13 -19   8 2979.18 1572.38   2
 -12  -7  -8 369.126 755.187   1
  19 -12  -8 2126.19 1180.81   1
  12 -19  -8 625.516 996.283   1
 -12  -7  -5 2024.90 852.928   1
  19 -12  -5 1356.95 648.281   2
  19 -12  -5 3102.75 1030.69   1
   7  12  -5 2134.54 638.099   3
  12 -19  -5 3986.02 1368.36   1
  19 -12  -5 1250.30 567.389   4
  19 -12  -2 375.954 312.067   4
  12 -19  -2 937.828 417.738   2
  19 -12  -2 975.601 672.801   3
  12 -19  -2 243.948 464.517   1
 -12  -7  -2 238.641 356.866   1
   7  12  -2 959.187 679.112   3
  19 -12  -2-34.4748 408.954   1
 -12  -7   1 1965.54 743.594   4
  19 -12   1 2926.38 591.514   4
 -12  -7   1 5428.30 1309.85   2
  19 -12   1 3009.57 748.933   3
  19 -12   1 3727.69 656.099   1
   7  12   1 1867.92 806.269   3
 -12  -7   1 3746.25 869.536   1
  12 -19   1 2719.84 937.745   3
 -19   7   1 2493.79 423.333   1
  12 -19   1 3327.92 616.087   4
  12 -19   1 3163.14 893.137   1
  -7  19   1 2621.28 917.838   2
  -7  19   1 2385.60 771.114   4
  12 -19   1 3032.33 1013.53   2
  12 -19   4 485.309 225.694   3
  19 -12   4 2353.48 915.145   3
 -12  -7   4 793.628 695.221   2
   7  12   4 1898.86 1295.50   3
  19 -12   4 1096.59 657.122   1
  12 -19   4 552.721 353.768   3
  19 -12   4 1143.75 967.682   4
  -7  19   4 719.874 291.387   2
  12 -19   4 661.408 683.810   4
  12 -19   4 2397.30 1047.36   2
 -12  -7   4 571.665 660.463   4
  -7  19   4 726.939 484.144   4
 -19   7   4 645.960 386.226   4
 -12  -7   7 1113.58 1036.37   4
 -12  -7   7 305.612 765.606   2
  19 -12   7 499.453 653.608   3
 -19   7   7 1512.74 824.096   2
   7  12   7-542.887 943.586   3
  19 -12   7 817.405 1089.48   4
  19 -12   7 239.748 1029.29   2
  12 -19   7 3670.56 1220.68   4
 -19   7   7 1137.69 773.635   4
  12 -19   7 417.052 909.059   2
  11 -19  -9 2122.82 1603.71   1
 -11  -8  -9 1461.75 1072.16   1
  19 -11  -9 3434.92 1510.79   1
 -11  -8  -6-987.278 794.037   1
   8  11  -6 383.911 451.814   3
  19 -11  -6 1227.58 901.951   1
  11 -19  -6-131.520 652.013   1
  19 -11  -3 3230.02 959.352   1
  19 -11  -3 3704.11 1064.67   3
  11 -19  -3 2641.64 908.921   1
   8  11  -3 2534.18 848.056   3
 -11  -8  -3 1537.09 511.960   1
  19 -11  -3 1752.08 544.755   4
  11 -19  -3 2054.01 349.538   2
 -11  -8   0 1141.44 655.573   4
  11 -19   0 1605.16 739.254   2
  19 -11   0 1449.69 741.636   3
   8  11   0-192.780 525.290   3
  19 -11   0 1150.55 519.143   1
 -11  -8   0 903.887 657.824   2
  11 -19   0 605.295 653.597   3
  -8  19   0 514.523 562.525   2
  -8  19   0 1149.98 517.274   4
  11 -19   0-233.753 440.429   1
  19 -11   0 998.133 385.375   4
  11 -19   0 332.910 237.281   4
 -19   8   3 2956.87 653.736   4
  11 -19   3 2204.99 422.469   3
 -19   8   3 2065.29 665.286   1
  19 -11   3 2641.50 676.126   3
 -11  -8   3 3529.02 989.050   2
   8  11   3 3586.48 1177.66   3
  11 -19   3 3083.20 673.282   3
  -8  19   3 1220.08 424.560   2
  11 -19   3 3333.13 765.669   4
  19 -11   3 1980.18 457.582   1
  19 -11   3 1871.91 546.791   1
  -8  19   3 1709.95 536.940   4
 -11  -8   3 1816.01 762.592   4
  11 -19   3 1985.48 956.865   2
 -11  -8   6 1443.75 1077.50   2
  19 -11   6 101.495 610.055   3
   8  11   6-411.392 921.745   3
 -19   8   6 503.100 590.922   2
  19 -11   6-817.713 776.628   4
  19 -11   6 96.2682 735.865   2
  11 -19   6 703.756 894.220   4
 -11  -8   6 967.941 648.048   4
 -19   8   6-137.727 441.488   4
  11 -19   6 281.735 1021.73   2
  11 -19   9 2088.81 1667.75   2
 -11  -8   9 1280.62 1298.58   2
  19 -11   9 279.848 943.559   3
 -19   8   9-101.867 677.718   2
   8  11   9 3256.48 1566.27   3
  -8  19   9 616.680 1273.89   4
 -19   8   9 2871.51 1102.03   4
  19 -11   9 2587.77 1524.44   2
  19 -11   9 1215.40 1320.94   4
  11 -19   9 1986.55 1063.64   4
 -11  -8   9 1335.07 940.525   4
 -10  -9  -7 1510.58 772.504   1
   9  10  -7 2082.48 723.017   3
  10 -19  -7 1909.11 1240.69   1
  19 -10  -7 3495.68 1449.91   1
  19 -10  -4 1096.13 850.438   3
   9  10  -4 1768.67 732.069   3
  10 -19  -4 886.509 685.862   1
  19 -10  -4 1319.29 712.271   1
 -10  -9  -4 405.436 503.905   1
  19 -10  -4 1851.63 658.230   4
  10 -19  -1 3192.50 993.004   1
  10 -19  -1 2160.29 483.301   4
 -10  -9  -1 1999.47 698.357   4
  19 -10  -1 1763.13 740.869   3
   9  10  -1 2840.05 942.493   3
 -10  -9  -1 3336.43 956.605   2
  10 -19  -1 3713.38 793.324   2
  -9  19  -1 2199.78 820.835   4
  19 -10  -1 2405.32 669.218   1
  19 -10  -1 2503.32 587.768   4
 -10  -9  -1 1854.84 521.391   1
  19 -10   2 3974.74 840.115   4
  19 -10   2 4231.91 1031.18   3
 -10  -9   2 3987.69 1028.40   2
   9  10   2 5820.98 1445.32   3
  10 -19   2 3978.67 823.140   3
  19 -10   2 2630.02 468.812   1
 -19   9   2 4225.36 749.580   1
  10 -19   2 5826.83 1364.46   2
  19 -10   2 3949.39 560.087   1
  -9  19   2 3733.56 835.660   2
  10 -19   2 4618.83 851.146   4
 -10  -9   2 5066.69 1069.71   4
  -9  19   2 3600.64 659.262   4
  -9  19   5 15.0335 374.839   4
  10 -19   5 1864.54 1124.78   2
 -10  -9   5 2424.88 1102.90   2
  19 -10   5 3002.62 1057.01   3
   9  10   5 1361.79 1233.23   3
  19 -10   5 1632.77 700.229   1
  10 -19   5 1367.25 780.344   4
 -10  -9   5 1437.08 851.756   4
 -19   9   5 1046.04 483.371   4
 -10  -9   8-559.160 981.636   2
  19 -10   8-170.329 873.832   3
   9  10   8-89.9792 1015.08   3
 -19   9   8 1319.95 619.646   2
  10 -19   8 2770.47 1517.46   2
  19 -10   8-991.950 1608.76   4
  -9  19   8 1783.89 1265.93   4
  19 -10   8 484.744 1057.46   2
  10 -19   8-59.7277 701.669   4
 -10  -9   8-478.258 780.677   4
 -19   9   8 537.507 602.438   4
  19  -9  -8 1541.46 1059.33   1
  10   9  -8 561.677 596.439   3
  -9 -10  -8 1001.92 826.526   1
   9 -19  -8 1996.35 1386.20   1
  19  -9  -5 2762.50 1083.57   3
  10   9  -5 1170.17 599.423   3
   9 -19  -5 723.404 772.939   1
  19  -9  -5 1535.43 892.281   1
  -9 -10  -5 439.946 736.990   1
  19  -9  -5 729.916 697.537   4
  19  -9  -2 6870.43 1328.78   3
  19  -9  -2 6198.73 1039.94   1
   9 -19  -2 3341.13 1005.29   1
  10   9  -2 6261.63 1198.92   3
  -9 -10  -2 5667.66 1182.77   2
  -9 -10  -2 4201.43 815.502   1
 -10  19  -2 4163.54 1058.92   4
  19  -9  -2 4307.59 778.516   4
   9 -19  -2 5910.80 769.803   2
  -9 -10   1 2526.45 793.921   4
  19  -9   1 1688.16 480.992   4
   9 -19   1 1321.61 604.101   2
  19  -9   1 3492.04 963.047   3
  10   9   1 1745.27 855.602   3
  -9 -10   1 3918.80 1003.56   2
   9 -19   1 2281.76 711.789   3
  19  -9   1 1266.75 311.016   1
 -10  19   1 1359.71 678.479   2
 -10  19   1 1605.09 525.191   4
   9 -19   1 1620.25 532.732   4
 -19  10   4 1374.96 442.053   4
   9 -19   4 3292.96 1255.75   2
  19  -9   4 2071.61 786.725   3
  -9 -10   4 249.537 596.121   2
  19  -9   4 869.753 381.510   1
  10   9   4 1773.84 1086.06   3
   9 -19   4 578.390 565.656   4
  -9 -10   4 840.946 726.852   4
 -10  19   4 1545.03 457.546   4
   9 -19   7 568.443 883.357   2
  -9 -10   7 2039.69 1111.09   2
  19  -9   7 2739.99 1238.63   3
  10   9   7 680.309 1206.58   3
  19  -9   7 3509.86 1431.41   4
 -10  19   7 417.658 900.864   4
  19  -9   7 1483.57 1244.22   2
   9 -19   7 2236.47 1132.27   4
  -9 -10   7 1192.45 932.456   4
 -19  10   7 2671.67 819.158   4
   8 -19  -9 205.169 1048.82   1
  19  -8  -9 92.9946 793.206   3
  11   8  -9 485.257 543.272   3
  19  -8  -9 2135.26 1296.41   1
  -8 -11  -9 484.332 1000.50   1
  19  -8  -6-299.890 884.313   3
  11   8  -6 401.711 528.373   3
   8 -19  -6-1620.13 1009.81   1
  -8 -11  -6 968.645 806.821   1
  19  -8  -6 1406.92 808.682   1
   8 -19  -3 2613.26 442.686   2
  19  -8  -3 1458.63 724.540   3
   8 -19  -3 482.213 568.100   1
  -8 -11  -3 2607.76 743.704   1
  11   8  -3 3139.75 931.261   3
  19  -8  -3 3792.42 884.946   1
  19  -8  -3 2683.26 770.251   4
  -8 -11   0 1025.82 518.186   4
   8 -19   0 1274.54 675.363   2
  19  -8   0 490.692 467.573   3
  19  -8   0 428.190 252.927   1
  11   8   0 1738.62 841.596   3
  -8 -11   0 690.777 502.563   2
   8 -19   0-274.244 573.573   3
 -11  19   0 595.290 409.337   4
   8 -19   0 1269.05 694.082   1
  19  -8   0-79.7282 339.442   4
   8 -19   0 382.245 367.308   4
  19  -8   3 1197.45 206.064   1
 -19  11   3 1777.81 436.324   4
   8 -19   3 1883.09 319.336   3
   8 -19   3 2016.33 1010.67   2
  19  -8   3 1143.84 255.072   1
  -8 -11   3 1399.37 551.939   3
  19  -8   3 2174.45 871.723   3
  -8 -11   3 1496.57 627.526   2
   8 -19   3 1230.63 377.196   3
  11   8   3 1758.46 1107.55   3
 -11  19   3 1477.15 365.421   4
   8 -19   3 998.269 495.921   4
  -8 -11   3 2542.24 805.730   4
   8 -19   6-78.3438 766.012   2
  -8 -11   6-542.866 649.395   4
  -8 -11   6 682.520 809.989   2
  19  -8   6-116.943 706.140   3
  11   8   6 1012.83 971.046   3
 -11  19   6 112.899 564.077   4
   8 -19   6 512.214 710.050   4
 -19  11   6 828.605 489.190   4
   8 -19   9 2467.52 1559.91   2
  -8 -11   9 2320.01 1441.14   2
  -8 -11   9 1594.74 1160.41   4
  19  -8   9-437.830 933.534   3
  11   8   9 1614.44 1637.63   3
  19  -8   9-1467.21 1742.12   4
 -11  19   9 1045.21 1093.57   4
  19  -8   9-1168.46 1265.15   2
   8 -19   9 2120.83 1727.68   4
 -19  11   9 2282.01 985.664   4
  -7 -12  -7 251.391 739.860   1
  19  -7  -7-900.562 847.248   3
  12   7  -7 228.653 458.883   3
  19  -7  -7 631.584 847.067   1
   7 -19  -7 1017.50 975.683   1
  19  -7  -4 2103.90 904.984   3
  12   7  -4 154.554 557.597   3
   7 -19  -4 1088.34 953.003   1
  -7 -12  -4 2282.82 753.786   1
  19  -7  -4-115.529 497.317   1
  19  -7  -1 3104.05 712.120   4
   7 -19  -1 2324.04 609.249   4
  -7 -12  -1 2890.17 815.127   4
  19  -7  -1 1874.42 709.726   3
   7 -19  -1 3347.40 773.753   2
  12   7  -1 1838.55 777.096   3
  -7 -12  -1 2734.84 788.566   2
   7 -19  -1 2767.47 973.884   1
 -12  19  -1 2033.94 747.747   4
  19  -7  -1 2525.48 492.843   1
  -7 -12  -1 2501.68 684.094   1
   7 -19   2 579.028 588.859   2
  19  -7   2 1817.58 787.696   3
  -7 -12   2 729.196 655.849   2
  12   7   2-556.863 588.620   3
   7 -19   2 746.831 525.401   3
 -12  19   2 563.230 263.474   4
 -19  12   2 480.297 447.167   1
   7 -19   2 743.649 536.920   4
  -7 -12   2 330.622 424.167   4
   7 -19   5 4359.59 1380.05   2
  -7 -12   5 2373.70 1218.67   2
  19  -7   5 3462.29 1119.59   3
  12   7   5 3223.84 1394.18   3
 -12  19   5 1526.91 601.992   4
  19  -7   5 2624.49 651.219   1
   7 -19   5 4360.94 1144.12   4
  -7 -12   5 3072.22 1006.58   4
 -19  12   5 2637.85 569.103   4
 -12  19   5 2306.65 489.691   4
   7 -19   8-560.021 1031.25   2
  -7 -12   8 2086.33 1637.96   2
  19  -7   8 1288.17 1085.77   3
  12   7   8 1166.09 1021.29   3
  19  -7   8 1699.74 1364.95   4
  19  -7   8-637.532 1245.93   2
 -12  19   8 2003.38 1120.01   4
   7 -19   8 632.567 908.372   4
  -7 -12   8 1364.94 1024.26   4
 -19  12   8 862.881 629.675   4
  -6 -13  -8 2395.02 1313.26   1
  19  -6  -8 3201.25 1214.23   3
  13   6  -8 1650.50 823.225   3
  19  -6  -8 2398.46 1438.71   1
   6 -19  -8 1826.83 1202.46   1
  19  -6  -5 409.772 605.776   3
  13   6  -5 1449.33 631.936   3
  19  -6  -5 1040.81 799.205   1
   6 -19  -5 901.895 963.329   1
  -6 -13  -5-256.838 520.933   1
   6 -19  -2 5880.05 881.235   2
   6 -19  -2 3814.40 1095.07   1
  19  -6  -2 5950.74 1239.90   3
  13   6  -2 3180.42 927.738   3
  19  -6  -2 5543.05 861.071   1
  -6 -13  -2 3978.47 1004.44   2
 -13  19  -2 5411.37 1138.73   4
  -6 -13  -2 5265.48 996.164   1
  19  -6  -2 2293.81 708.088   4
  -6 -13   1 1892.59 712.419   4
   6 -19   1 3195.83 905.133   2
  19  -6   1 1509.04 756.300   3
  13   6   1 1262.50 805.516   3
   6 -19   1 2129.04 764.899   3
 -13  19   1 1013.64 308.609   4
   6 -19   1 1544.93 517.123   4
 -19  13   4 1332.12 317.700   4
   6 -19   4 2989.24 1118.31   2
  -6 -13   4 2700.66 1092.49   2
  19  -6   4 1178.05 813.383   3
  13   6   4 2696.38 1360.83   3
   6 -19   4 2644.83 885.817   4
  -6 -13   4 1257.92 512.066   4
 -13  19   4 944.620 236.222   4
   6 -19   7 1878.01 1243.58   2
  -6 -13   7 1960.75 909.905   2
  19  -6   7 2274.73 1425.44   3
  13   6   7 2334.55 1253.86   3
 -13  19   7 2032.75 820.340   4
   6 -19   7 2378.34 1011.37   4
  -6 -13   7 926.342 883.705   4
 -19  13   7 2797.93 783.052   4
   5 -19  -9 186.538 1189.77   1
  19  -5  -9 1276.82 1016.16   3
  14   5  -9 1487.67 830.573   3
  -5 -14  -9 1264.62 1182.41   1
  19  -5  -9 1239.54 1177.81   1
  19  -5  -6 1347.23 938.186   3
  14   5  -6 1176.34 775.755   3
  19  -5  -6-78.3612 588.392   1
   5 -19  -6 747.003 854.549   1
  -5 -14  -6 652.944 642.671   1
   5 -19  -3 3974.18 687.189   2
   5 -19  -3 2793.67 962.160   1
  19  -5  -3 2367.92 882.577   3
  -5 -14  -3 2831.44 838.914   1
  14   5  -3 3575.50 934.940   3
  19  -5  -3 4664.12 952.499   1
   5 -19   0-59.7047 322.362   4
  -5 -14   0-917.095 475.382   4
  19  -5   0-596.113 530.109   3
   5 -19   0 2075.15 739.075   2
  14   5   0 1218.40 697.371   3
  -5 -14   0 1538.52 814.023   2
   5 -19   0 341.620 569.654   3
   5 -19   0-127.893 566.230   1
   5 -19   3 3717.41 471.909   3
   5 -19   3 4793.42 1267.36   2
  -5 -14   3 3234.83 683.276   3
  -5 -14   3 5595.36 1403.68   2
  19  -5   3 2072.82 881.794   3
  14   5   3 4260.26 1294.29   3
   5 -19   3 4999.56 1038.29   4
  -5 -14   3 4098.26 1032.07   4
   5 -19   6-266.280 777.172   2
  -5 -14   6-123.485 750.719   2
  19  -5   6 1121.32 1005.93   3
  14   5   6 1098.56 954.945   3
 -19  14   6-314.770 355.005   4
 -14  19   6 470.979 405.784   4
   5 -19   6 328.386 647.658   4
  -5 -14   6 521.129 736.879   4
   5 -19   9 2388.34 1580.94   2
  -5 -14   9 4133.21 1654.40   2
  19  -5   9 1576.13 1411.19   3
  14   5   9 3379.51 1712.20   3
  19  -5   9 1884.76 1759.73   4
  19  -5   9 1676.91 1267.29   2
   5 -19   9 2286.19 1444.57   4
  -5 -14   9 1701.27 1242.26   4
  19  -4  -7 1906.73 924.394   3
  15   4  -7 1104.71 710.125   3
   4 -19  -7 1066.96 881.417   1
  -4 -15  -7 1197.90 1065.27   1
  19  -4  -7 702.392 688.782   1
  19  -4  -4 349.697 492.606   3
  15   4  -4 1238.85 669.046   3
   4 -19  -4-578.091 530.577   1
  -4 -15  -4 803.387 590.216   1
  19  -4  -4 339.072 518.390   1
   4 -19  -1 1258.88 498.011   4
  -4 -15  -1 1504.68 635.486   4
  19  -4  -1 1284.36 583.412   3
  15   4  -1 706.969 589.016   3
   4 -19  -1 2804.05 795.988   2
  -4 -15  -1 2475.71 842.162   2
  -4 -15  -1 1445.53 706.876   1
   4 -19  -1 2075.85 821.857   1
   4 -19   2 4581.90 1168.99   2
  -4 -15   2 1655.73 565.596   3
  19  -4   2 3629.73 1100.09   3
  -4 -15   2 2202.58 781.559   2
   4 -19   2 3071.95 668.577   3
  15   4   2 1862.75 995.150   3
   4 -19   2 3534.17 877.164   4
  -4 -15   2 928.650 446.267   4
 -19  15   5 1378.88 250.264   4
  19  -4   5 1159.30 284.335   1
   4 -19   5 1502.04 1061.56   2
  -4 -15   5 1403.14 835.565   2
  19  -4   5 2246.19 946.959   3
  15   4   5 3207.72 1302.60   3
   4 -19   5 3457.54 1016.77   4
  -4 -15   5 2894.32 930.474   4
   4 -19   8 615.060 1119.78   2
  -4 -15   8 331.231 894.008   2
  19  -4   8-202.453 881.815   3
  15   4   8 1043.01 1404.13   3
   4 -19   8 497.247 831.012   4
 -19  15   8-543.754 442.950   4
  -4 -15   8 1412.30 826.420   4
  19  -3  -8 3422.21 1271.30   3
  16   3  -8 3290.82 1092.57   3
  19  -3  -8 2394.34 1266.43   1
  16   3  -8 4227.09 1478.89   1
   3 -19  -8 2024.88 1442.27   1
  -3 -16  -8 772.037 1046.26   1
  19  -3  -5-175.728 584.201   3
  19  -3  -5 3085.16 1036.28   1
  16   3  -5 943.976 772.679   3
   3 -19  -5 1969.97 1056.78   1
  -3 -16  -5 1243.28 922.327   1
  -3 -16  -2 3245.06 915.571   1
   3 -19  -2 927.001 752.574   1
  19  -3  -2 3023.82 986.895   3
  16   3  -2 3120.30 961.926   3
   3 -19  -2 3141.48 702.863   2
  -3 -16  -2 1153.04 527.235   2
  -3 -16   1 1171.41 627.516   4
   3 -19   1 815.782 633.029   2
  19  -3   1 2262.37 930.993   3
  16   3   1 2034.94 965.625   3
  -3 -16   1 1859.84 777.082   2
   3 -19   1 1544.79 645.389   3
   3 -19   1 2216.69 660.676   4
  -3 -16   4 1186.23 370.661   3
   3 -19   4 724.758 711.040   2
  -3 -16   4 1645.76 957.961   2
  19  -3   4 251.113 584.438   3
  16   3   4 1431.57 937.103   3
   3 -19   4 3189.44 990.704   4
  -3 -16   4 213.786 621.532   4
   3 -19   7 2514.64 1502.21   2
  -3 -16   7 1943.28 1294.63   2
 -19  16   7 1389.59 488.837   4
  19  -3   7-1129.01 1059.31   3
  16   3   7 372.798 1066.45   3
   3 -19   7 1179.61 879.541   4
  -3 -16   7-221.828 706.856   4
  17   2  -6 1517.74 841.579   1
  19  -2  -6 1213.92 725.209   3
  17   2  -6 850.613 705.985   3
  19  -2  -6 1414.30 939.663   1
   2 -19  -6 2879.74 1123.95   1
  -2 -17  -6 1945.13 1182.90   1
  19  -2  -3 1854.23 673.027   1
   2 -19  -3 193.747 530.385   1
  -2 -17  -3 1022.15 679.354   1
  19  -2  -3 2186.20 868.996   3
  17   2  -3 3972.26 1052.85   3
   2 -19  -3 2460.58 667.878   2
  -2 -17  -3 2974.31 775.493   2
   2 -19   0 2183.96 761.539   4
  -2 -17   0 704.859 393.592   4
  19  -2   0 2598.28 830.571   3
  17   2   0 1828.24 1010.26   3
   2 -19   0 1365.65 633.069   2
  -2 -17   0 3024.27 1000.01   2
  -2 -17   0 2478.09 879.279   1
   2 -19   0 2295.91 817.054   1
  -2 -17   3 976.921 388.229   3
   2 -19   3 717.178 744.418   2
   2 -19   3 1357.06 387.658   3
  -2 -17   3 3378.69 1041.15   2
  19  -2   3 927.347 779.176   3
  17   2   3 1858.57 898.849   3
  -2 -17   3 1526.40 697.119   4
   2 -19   3 1126.21 670.082   4
  -2 -17   6 1924.99 910.479   4
   2 -19   6 3041.23 1493.27   2
  -2 -17   6 3234.35 1393.36   2
  19  -2   6 2068.94 1106.51   3
  17   2   6 2875.29 1319.46   3
   2 -19   6 2973.05 1208.35   4
  19  -1  -7 840.954 999.649   1
  18   1  -7-320.067 828.771   1
  19  -1  -7-313.434 653.726   3
  18   1  -7 862.505 858.981   3
   1 -19  -7 111.947 1075.25   1
  -1 -18  -7-441.262 800.665   1
  19  -1  -4 677.334 762.443   3
  18   1  -4 1364.29 781.583   3
   1 -19  -4 496.122 682.911   1
  -1 -18  -4 1368.39 889.752   1
  19  -1  -4 2137.18 806.420   1
   1 -19  -1 2121.49 827.949   4
  -1 -18  -1 874.796 608.702   4
  19  -1  -1 2050.90 927.031   3
  18   1  -1-160.683 545.488   3
   1 -19  -1 794.327 425.113   2
  -1 -18  -1 1750.73 865.294   2
  -1 -18  -1 762.702 671.936   1
   1 -19  -1 1106.53 650.648   1
  -1 -18   2 558.413 495.178   3
   1 -19   2 1106.16 816.084   2
   1 -19   2 834.489 435.187   3
  -1 -18   2 1168.68 756.755   2
  19  -1   2 113.114 732.370   3
  18   1   2 926.983 740.378   3
   1 -19   2 175.572 528.030   4
  -1 -18   2 920.391 597.802   4
   1 -19   5-512.087 716.785   2
  -1 -18   5-1140.77 1029.84   2
  19  -1   5 243.016 725.228   3
  18   1   5 747.368 858.558   3
   1 -19   5-1306.79 752.302   4
  -1 -18   5 990.958 656.475   4
   1 -19   8-1275.67 1136.82   2
  -1 -18   8 2.40656 956.945   2
  19  -1   8 1127.61 1039.58   3
  18   1   8 1552.39 1438.35   3
   1 -19   8-561.918 821.871   4
  -1 -18   8-1169.59 962.033   4
  19   0  -8 850.012 819.624   3
  19   0  -8 991.165 1056.58   1
   0 -19  -8 2085.65 1385.48   1
  19   0  -5 631.454 808.694   3
  19   0  -5 399.775 548.519   1
   0 -19  -5 906.713 896.292   1
   0 -19  -2 3677.51 1006.84   1
  19   0  -2 4832.14 1293.81   3
   0 -19  -2 2672.37 774.794   2
   0 -19   1 75.6333 479.455   4
   0 -19   1 159.311 555.132   2
  19   0   1 826.922 650.986   3
   0 -19   4 1784.13 998.665   2
  19   0   4 880.529 979.517   3
   0 -19   4 1190.04 688.542   4
   0 -19   7 453.424 1047.00   2
  19   0   7 620.484 1202.37   3
   0 -19   7 1651.44 1131.92   4
  20 -20  -8-26.0540 979.379   1
  20 -20  -5-612.902 947.780   1
  20 -20  -2 535.433 708.624   1
   0  20  -2 825.204 729.942   3
  20 -20  -2 2231.25 820.471   2
  20 -20   1-222.519 398.404   1
 -20   0   1 171.466 685.444   4
  20 -20   1 867.005 435.385   3
 -20   0   1-195.088 212.471   1
   0  20   1 316.011 820.016   3
  20 -20   1 760.879 729.009   2
  20 -20   1-21.4417 218.515   4
 -20   0   4 563.681 715.158   4
  20 -20   4 494.186 567.873   3
 -20   0   4 450.453 892.716   2
   0  20   4 1080.74 1188.63   3
  20 -20   4-353.971 587.953   4
  20 -20   4 1405.41 946.336   2
 -20   0   7-808.301 1036.61   2
   0  20   7 94.3042 1191.78   3
  20 -20   7 1762.20 1237.14   4
  20 -20   7 2178.73 1393.04   2
 -20   0   7-55.0840 716.090   4
  19 -20  -6 2428.24 1251.52   1
  20 -19  -6-231.159 796.467   1
  19 -20  -3 3475.40 1166.18   1
  20 -19  -3 1669.00 604.909   2
  19 -20  -3 1504.69 508.387   2
  20 -19  -3 4719.52 1195.51   1
   1  19  -3 2291.06 797.810   3
  20 -19  -3 1896.17 665.539   2
  19 -20  -3 2359.48 655.708   2
  19 -20   0 4000.48 1045.94   1
  19 -20   0 3655.58 1000.07   3
  20 -19   0 2683.98 852.671   1
  20 -19   0 2703.99 802.405   3
   1  19   0 3988.27 1305.74   3
  -1  20   0 4171.37 1299.85   3
  20 -19   0 2454.28 979.705   2
  19 -20   0 3401.28 1030.26   2
 -19  -1   3 3236.57 983.630   4
 -20   1   3 1955.03 729.285   4
  19 -20   3 2992.95 858.524   4
  19 -20   3 1782.54 689.037   3
  20 -19   3 1739.72 653.383   3
 -19  -1   3 2004.60 921.663   2
   1  19   3 4065.50 1585.71   3
  -1  20   3 4736.79 1596.63   3
 -20   1   3 1587.38 977.556   2
 -20   1   3 1921.41 748.538   1
  20 -19   3 3211.34 906.707   4
  20 -19   3 2097.19 765.774   1
  20 -19   3 2803.49 1299.44   2
  19 -20   3 1612.79 950.621   2
 -19  -1   3 2209.89 885.811   1
  20 -19   6 878.858 733.026   3
  19 -20   6 728.226 566.930   3
 -19  -1   6 2114.32 1247.40   2
 -20   1   6 608.488 854.366   2
   1  19   6 1801.57 1300.78   3
  -1  20   6 2098.41 1547.61   3
  20 -19   6 3683.68 1338.85   4
  19 -20   6 1698.23 1102.86   4
  20 -19   6 453.264 1353.89   2
  19 -20   6 1835.07 1336.35   2
 -19  -1   6 585.281 715.863   4
 -20   1   6 736.545 579.415   4
  20 -18  -7 1047.79 995.459   1
  18 -20  -7 2254.20 1345.66   1
  18 -20  -4 135.210 117.099   2
  18 -20  -4 840.698 799.804   1
   2  18  -4 399.653 474.502   3
  20 -18  -4 1299.85 548.322   2
  20 -18  -4 335.845 632.774   1
  20 -18  -1 1371.68 708.033   3
  18 -20  -1 1628.63 691.373   1
  20 -18  -1 2110.57 854.023   1
   2  18  -1 4417.83 1260.54   3
  -2  20  -1 3481.32 1068.54   3
  20 -18  -1 1334.39 770.225   2
  18 -20  -1 2213.92 775.141   2
 -18  -2   2 1189.87 784.473   4
 -20   2   2-325.148 519.329   4
 -18  -2   2 215.179 483.309   1
  18 -20   2-119.720 395.494   3
  20 -18   2 385.304 516.845   3
 -20   2   2 1529.24 534.979   1
   2  18   2 2134.11 1228.69   3
 -18  -2   2-36.0682 695.357   2
  -2  20   2 1639.86 1051.21   3
  20 -18   2 2836.63 1124.68   2
  20 -18   2 1050.86 581.199   4
  18 -20   2 865.356 525.196   1
  18 -20   2 317.939 681.225   2
  18 -20   2 1018.98 507.573   4
  20 -18   2 608.296 655.813   1
  18 -20   5 1612.75 583.277   3
  20 -18   5 2111.91 716.084   3
 -18  -2   5 1563.74 844.699   2
 -20   2   5 1985.49 1127.23   2
   2  18   5 2091.65 1196.44   3
  -2  20   5 2443.06 1401.27   3
  20 -18   5 2320.13 1130.98   4
  18 -20   5 2922.76 1069.52   4
  20 -18   5 3356.91 1356.22   2
  18 -20   5 2551.41 1265.37   2
 -18  -2   5 2417.94 912.578   4
 -20   2   5 1859.08 794.616   4
 -18  -2   8-255.978 938.313   2
 -20   2   8 587.096 948.160   2
   2  18   8 874.483 1535.23   3
 -20   2   8 1785.68 977.563   4
  20 -18   8 262.580 1037.91   4
  18 -20   8 847.083 1089.65   4
  20 -18   8 1792.10 1769.72   2
  18 -20   8-175.206 1003.63   2
 -18  -2   8-1661.21 1005.31   4
  17 -20  -8 2107.91 1276.86   1
  20 -17  -8 1416.05 1405.66   1
 -17  -3  -8 735.762 739.630   1
 -17  -3  -5 498.230 388.168   1
   3  17  -5-155.224 353.248   3
  17 -20  -5 766.428 755.617   1
  20 -17  -5 1863.94 1186.94   1
  20 -17  -2 700.486 705.142   3
  17 -20  -2 121.768 478.166   1
  20 -17  -2 521.609 615.618   1
   3  17  -2-152.003 589.510   3
  20 -17  -2 71.7917 418.202   2
  17 -20  -2 637.636 584.321   2
 -20   3   1 711.621 208.010   1
  20 -17   1-69.7557 344.821   1
 -17  -3   1 1531.40 648.670   4
  20 -17   1 453.757 304.327   4
  17 -20   1 958.859 437.865   3
  20 -17   1 127.434 426.732   3
 -17  -3   1 1442.28 643.826   1
   3  17   1 631.356 807.453   3
 -17  -3   1 330.030 703.387   2
  -3  20   1 1743.86 1019.19   3
  20 -17   1 1252.10 775.748   2
  20 -17   1 364.157 372.158   4
  17 -20   1 486.035 522.278   2
  17 -20   1 841.502 345.627   4
  17 -20   1 210.587 584.339   1
 -20   3   4 1471.49 613.679   4
  -3  20   4 997.787 729.218   2
  17 -20   4 708.606 544.597   3
  20 -17   4 861.384 677.217   3
 -17  -3   4 2584.22 1088.73   2
   3  17   4 5426.19 1708.58   3
 -20   3   4 2430.63 1048.42   2
  -3  20   4 2106.28 1423.08   3
  20 -17   4 1253.53 731.298   4
  20 -17   4 1712.09 1085.43   2
  17 -20   4 3362.37 951.500   4
  17 -20   4-89.4239 701.528   2
 -17  -3   4 4172.43 1137.51   4
  20 -17   7 2798.73 1049.48   3
 -17  -3   7 317.680 908.958   2
 -20   3   7-199.481 772.039   2
   3  17   7 1416.49 1585.21   3
  20 -17   7 2815.33 1414.18   4
  17 -20   7 1118.05 920.714   4
  20 -17   7-434.579 1074.48   2
  17 -20   7 2618.77 1652.09   2
 -17  -3   7 1726.17 946.284   4
 -20   3   7 764.011 694.683   4
 -16  -4  -6 3389.86 867.779   1
  20 -16  -6 2643.87 1264.61   1
   4  16  -6 1821.57 469.626   3
  16 -20  -6 3056.02 1119.05   1
  16 -20  -3 809.235 323.051   2
 -16  -4  -3 1008.67 323.863   1
  16 -20  -3 1968.51 932.134   1
  20 -16  -3 1209.51 550.852   2
   4  16  -3 1041.45 575.819   3
  16 -20  -3 860.191 318.076   2
  20 -16  -3 2423.72 952.488   1
  16 -20   0 1436.71 758.479   1
 -16  -4   0 1870.82 686.577   4
 -16  -4   0 2638.29 577.585   1
  20 -16   0 760.026 628.201   3
  20 -16   0 1528.31 591.012   1
   4  16   0 2227.23 983.111   3
 -16  -4   0 1183.98 840.563   2
  20 -16   0 1154.42 327.542   4
 -16  -4   0 1328.75 345.204   1
  16 -20   0 1559.73 246.138   4
  16 -20   0 2525.61 841.117   2
  20 -16   0 1650.08 316.133   4
 -16  -4   3 3592.08 950.804   4
 -20   4   3 2529.23 714.479   4
  16 -20   3 2224.33 585.714   3
  20 -16   3 1648.99 705.775   3
 -20   4   3 1612.19 705.415   1
 -16  -4   3 1743.15 874.725   2
   4  16   3 5171.31 1495.32   3
  20 -16   3 3200.40 1067.80   4
  20 -16   3 3083.29 1326.60   2
  20 -16   3 3757.87 834.148   1
  16 -20   3 3864.96 929.824   4
  16 -20   3 3246.99 1302.26   2
  -4  20   3 1835.88 953.204   2
  20 -16   6-43.9524 575.321   3
  16 -20   6 870.794 421.435   3
 -16  -4   6 1076.11 951.016   2
 -20   4   6-436.123 704.138   2
   4  16   6 1002.22 921.605   3
  20 -16   6 648.205 966.792   4
  20 -16   6 1620.40 1402.15   2
  16 -20   6 267.678 686.786   4
  16 -20   6 2034.72 1446.46   2
 -16  -4   6 416.355 634.652   4
 -20   4   6 637.334 471.762   4
  20 -15  -7 4689.96 1539.64   1
  15 -20  -7 2564.47 1434.62   1
 -15  -5  -7 1719.61 908.682   1
 -15  -5  -4 1049.35 515.935   1
  20 -15  -4 130.620 489.223   2
  15 -20  -4 1941.53 917.542   1
   5  15  -4 1910.19 677.650   3
  20 -15  -4 2231.41 877.206   1
  20 -15  -1 4846.53 1082.53   3
   5  15  -1 7555.09 1434.32   3
 -15  -5  -1 3674.98 596.979   1
  20 -15  -1 2559.38 327.324   4
  15 -20  -1 7850.53 1262.90   2
  15 -20  -1 6450.13 1294.46   1
 -15  -5  -1 4174.33 549.383   1
  20 -15  -1 6800.09 1197.39   1
 -15  -5   2 33.4434 545.503   1
 -15  -5   2 520.522 736.336   4
 -20   5   2 491.061 387.160   4
  15 -20   2 529.823 329.146   3
 -20   5   2 612.890 413.075   1
  20 -15   2-536.607 362.436   3
   5  15   2 733.509 912.108   3
 -15  -5   2 874.802 661.166   2
  20 -15   2 364.180 615.620   4
  15 -20   2 262.780 421.635   4
  15 -20   2 1786.34 876.308   2
  -5  20   2 557.438 614.260   2
  20 -15   2 195.903 376.007   1
  15 -20   5 4010.23 633.511   3
  20 -15   5 3545.20 1047.44   3
 -15  -5   5 4846.33 1340.59   2
   5  15   5 5048.64 1795.08   3
 -20   5   5 3006.79 1052.13   2
  20 -15   5 3357.44 1449.76   4
  20 -15   5 4921.33 1814.36   2
  15 -20   5 4820.30 1151.82   4
  -5  20   5 3123.73 602.323   2
  15 -20   5 8156.86 1949.49   2
 -15  -5   5 4181.98 1094.00   4
 -20   5   5 4461.66 901.862   4
 -15  -5   8-1636.60 986.688   2
  20 -15   8 418.799 724.503   3
 -20   5   8 1842.47 1068.69   2
   5  15   8 1599.98 1716.34   3
  20 -15   8 273.577 1240.70   4
 -20   5   8 876.128 826.792   4
  15 -20   8-186.799 895.111   4
  20 -15   8 422.501 1238.77   2
 -15  -5   8 852.017 819.534   4
  15 -20   8 1622.38 1518.96   2
  20 -14  -8 298.777 890.833   1
 -14  -6  -8 2370.39 1104.27   1
  14 -20  -8 792.960 987.482   1
  20 -14  -5 666.800 515.285   2
 -14  -6  -5 871.628 644.305   1
   6  14  -5 1011.22 529.673   3
  14 -20  -5 632.496 682.244   1
  20 -14  -2 4582.12 1190.84   3
  14 -20  -2 3517.83 1154.65   1
   6  14  -2 4038.46 982.908   3
  20 -14  -2 1995.11 306.522   4
  20 -14  -2 3695.91 897.250   1
  14 -20  -2 4782.72 797.410   2
 -14  -6  -2 4026.51 700.591   1
 -14  -6   1 3493.19 955.429   4
  20 -14   1 3037.05 577.635   4
  20 -14   1 4676.06 1010.49   3
  20 -14   1 4196.83 765.029   1
   6  14   1 3799.44 1165.25   3
 -14  -6   1 3390.13 1068.89   2
 -20   6   1 3850.81 450.762   1
 -14  -6   1 3521.04 775.105   1
  20 -14   1 2638.39 725.959   4
  14 -20   1 3849.79 647.083   4
  14 -20   1 3712.27 985.690   1
  -6  20   1 4832.02 1212.82   2
  14 -20   1 4050.17 1071.75   2
 -20   6   4 1879.35 629.978   4
  20 -14   4 1032.61 637.353   1
  14 -20   4 883.265 407.845   3
  20 -14   4 1293.30 833.225   3
 -14  -6   4 915.834 724.270   2
   6  14   4 3025.64 1310.51   3
  20 -14   4 1739.69 943.308   4
  20 -14   4 315.137 769.621   2
  14 -20   4 1841.65 795.647   4
  -6  20   4 1762.21 546.161   2
  14 -20   4 3568.79 1403.94   2
 -14  -6   4 2558.89 890.077   4
 -14  -6   7 2771.25 1258.85   2
  20 -14   7 2407.31 1163.40   3
 -20   6   7 839.766 749.436   2
   6  14   7 4463.17 1842.52   3
  20 -14   7 2165.76 1217.84   4
  20 -14   7 1279.34 1042.75   2
  14 -20   7 47.6593 878.610   4
 -14  -6   7 1193.77 844.163   4
 -20   6   7 2541.60 997.156   4
  14 -20   7 1445.04 1250.22   2
  13 -20  -9 609.458 954.402   1
  20 -13  -9-741.963 1089.50   1
 -13  -7  -9 989.948 923.145   1
 -13  -7  -6 1635.53 856.089   1
   7  13  -6 2541.08 708.283   3
  20 -13  -6 2994.39 1126.81   1
  13 -20  -6 3981.70 1519.72   1
  20 -13  -3 344.073 732.116   3
  13 -20  -3 110.691 176.836   2
  13 -20  -3 1251.88 752.268   1
   7  13  -3-52.3591 456.564   3
 -13  -7  -3 281.089 346.220   1
  20 -13  -3 198.123 288.093   4
  20 -13  -3 1370.48 840.088   1
 -13  -7   0 1183.69 694.961   4
  20 -13   0 2615.12 797.592   3
 -13  -7   0 1748.94 555.624   1
  20 -13   0 2183.09 628.297   1
   7  13   0 1954.61 865.029   3
 -13  -7   0 2659.60 1032.37   2
  -7  20   0 2331.41 819.461   4
  13 -20   0 3306.92 809.263   1
  20 -13   0 1502.06 436.162   4
  13 -20   0 1070.83 328.510   4
  13 -20   0 2514.89 803.378   2
 -20   7   3 533.399 466.884   4
  13 -20   3 1762.43 498.902   3
 -20   7   3 1527.92 643.943   1
  20 -13   3 2218.02 803.110   3
 -13  -7   3 776.424 755.511   2
   7  13   3 528.705 704.360   3
  20 -13   3 562.312 718.295   4
  20 -13   3 171.371 468.969   1
  -7  20   3 644.768 546.110   2
  20 -13   3 1278.13 486.433   1
  13 -20   3 1319.86 612.287   4
  -7  20   3 960.166 590.060   4
  13 -20   3 2375.05 1089.66   2
 -13  -7   3 1449.67 671.951   4
 -13  -7   6-839.462 1046.54   2
  20 -13   6-345.204 708.268   3
   7  13   6 430.049 1193.04   3
 -20   7   6 1682.90 779.419   2
  20 -13   6 271.249 1029.30   4
  20 -13   6 74.0341 958.261   2
  13 -20   6-261.672 644.636   4
 -13  -7   6 1093.87 896.899   4
 -20   7   6 684.741 611.969   4
  13 -20   6 2110.47 1357.61   2
  13 -20   9-1834.40 1303.41   2
  13 -20   9 899.017 1000.62   4
 -13  -7   9 299.318 1096.53   2
  20 -13   9 293.241 736.748   3
 -20   7   9 1179.98 1013.35   2
   7  13   9-680.826 1312.81   3
  -7  20   9 2514.25 1792.58   4
  20 -13   9 3079.37 1875.53   4
  20 -13   9 259.654 1078.62   2
 -13  -7   9-1364.76 1034.49   4
 -20   7   9-865.225 761.129   4
   8  12  -7 912.081 483.877   3
 -12  -8  -7 2040.09 1097.54   1
  12 -20  -7 1871.04 1296.56   1
  20 -12  -4 1896.30 871.504   3
  20 -12  -4 2091.05 1055.81   1
   8  12  -4 237.726 480.599   3
  12 -20  -4 860.172 779.663   1
 -12  -8  -4 902.775 469.914   1
  20 -12  -4 1448.34 595.863   4
  12 -20  -1 2747.37 902.947   1
 -12  -8  -1 4488.97 1043.74   4
  12 -20  -1 3239.21 773.666   2
  20 -12  -1 3563.35 941.070   3
   8  12  -1 3881.04 1053.67   3
 -12  -8  -1 5069.98 1179.46   2
 -12  -8  -1 3370.76 642.344   1
  20 -12  -1 3525.87 788.169   1
  -8  20  -1 2491.86 848.056   4
  20 -12  -1 3261.74 595.391   4
 -12  -8   2 3595.58 937.796   4
 -20   8   2 1895.42 537.964   1
  20 -12   2 1919.31 449.189   1
  20 -12   2 1169.69 554.316   4
  20 -12   2 1768.90 816.491   3
 -12  -8   2 429.169 562.568   2
   8  12   2 2104.74 1016.76   3
  12 -20   2 1306.05 561.054   3
  -8  20   2 1080.32 546.468   2
  -8  20   2 1658.33 572.295   4
  12 -20   2 1484.36 526.777   4
  12 -20   2 1611.10 990.086   2
  20 -12   5 725.900 669.381   3
 -12  -8   5 2467.77 1227.72   2
   8  12   5 3924.44 1505.69   3
  20 -12   5 2473.93 1386.63   4
  12 -20   5 2785.94 1063.10   4
  20 -12   5 869.050 573.580   1
 -12  -8   5 3921.57 1018.02   4
 -20   8   5 1323.84 523.926   4
  12 -20   5-836.611 879.885   2
  12 -20   8 5040.33 1959.37   2
  20 -12   8 1447.51 1413.25   4
 -12  -8   8 1012.06 980.835   2
  20 -12   8-117.064 817.451   3
   8  12   8 369.343 1098.69   3
 -20   8   8 2446.42 1000.48   2
  -8  20   8 315.213 949.765   4
  20 -12   8 1491.23 1491.59   2
  12 -20   8-662.332 1041.65   4
 -12  -8   8 1281.57 1032.81   4
 -20   8   8-559.325 731.659   4
   9  11  -8 2055.17 803.844   3
 -11  -9  -8 1350.62 1022.14   1
  20 -11  -8 2937.20 1238.60   1
  11 -20  -8 679.795 1013.77   1
  20 -11  -5 1612.44 930.003   3
   9  11  -5 936.954 603.316   3
  11 -20  -5 226.489 786.865   1
  20 -11  -5 1627.68 812.505   1
  20 -11  -5 1115.49 727.831   4
 -11  -9  -5 2009.20 783.301   1
  20 -11  -2 2236.74 766.929   1
  11 -20  -2 1853.41 855.530   1
 -11  -9  -2 1261.45 522.475   1
  20 -11  -2 999.753 546.418   3
  11 -20  -2 1465.66 529.567   2
   9  11  -2 2926.80 939.556   3
  20 -11  -2 1420.81 537.212   4
  20 -11   1 1464.82 479.126   4
 -11  -9   1 1358.94 631.486   4
  11 -20   1 2798.00 999.543   2
  20 -11   1 3453.71 955.892   3
  20 -11   1 1714.61 444.896   1
   9  11   1 1545.77 907.727   3
 -11  -9   1 2413.76 803.405   2
  11 -20   1 1064.34 667.449   3
 -11  -9   1 1601.79 652.665   1
  -9  20   1 1857.59 777.079   2
  11 -20   1 2218.24 817.104   1
  -9  20   1 1167.28 540.561   4
  11 -20   1 1864.82 574.262   4
  11 -20   4 2659.31 1342.79   2
 -20   9   4 1063.05 407.426   4
  11 -20   4 577.744 164.092   3
  20 -11   4 2228.26 952.552   3
 -11  -9   4 1539.04 893.328   2
  11 -20   4 509.299 222.934   3
   9  11   4 1877.04 1138.66   3
  11 -20   4 2918.31 974.728   4
  20 -11   4 1338.04 606.884   1
  -9  20   4 995.632 489.280   4
 -11  -9   4 1750.86 909.890   4
  11 -20   7 2266.63 1282.21   2
 -11  -9   7 1224.73 887.590   2
  20 -11   7 2932.97 1108.06   3
   9  11   7 3287.07 1689.11   3
 -20   9   7 2251.61 867.627   2
  -9  20   7 957.365 955.185   4
  20 -11   7 2247.57 1570.95   4
  20 -11   7 1502.50 1310.87   2
  11 -20   7 2349.55 1178.25   4
 -11  -9   7 3629.75 1204.10   4
 -20   9   7 2654.97 824.084   4
  10 -20  -9 540.596 1280.25   1
  20 -10  -9 1353.45 1198.16   1
 -10 -10  -9 1073.40 1188.88   1
  20 -10  -6 2585.43 1059.65   3
  10  10  -6 601.853 614.913   3
  10 -20  -6-35.9853 670.738   1
  20 -10  -6 1169.30 932.772   1
 -10 -10  -6 996.191 890.293   1
  20 -10  -3 633.978 646.888   3
  10 -20  -3 798.381 777.807   1
 -10 -10  -3 622.152 513.081   1
  10  10  -3-117.387 503.359   3
  20 -10  -3 1663.98 730.187   1
  10 -20  -3 211.863 241.986   2
  20 -10  -3 535.614 485.367   4
 -10 -10   0 2590.64 764.278   4
  10 -20   0 2711.80 821.268   2
  20 -10   0 3825.87 977.329   3
  10  10   0 3951.38 1174.53   3
 -10 -10   0 3425.22 975.201   2
 -10  20   0 1640.63 868.048   2
 -10  20   0 2327.59 724.201   4
  20 -10   0 2569.69 540.484   1
  10 -20   0 2703.90 827.282   1
  20 -10   0 2653.15 594.275   4
  10 -20   0 2410.58 543.773   4
  10 -20   3 90.7323 584.983   2
 -20  10   3 16.8969 282.634   4
 -20  10   3-0.79787 453.527   1
  10 -20   3 638.123 251.201   3
  20 -10   3 242.521 524.289   3
 -10 -10   3-604.230 616.766   2
  10  10   3-372.253 910.769   3
  10 -20   3 38.6196 337.234   3
  10 -20   3 468.309 382.892   4
 -10  20   3 194.205 304.599   4
  20 -10   3 393.172 274.298   1
  20 -10   3 493.298 309.208   1
 -10 -10   3 418.303 568.272   4
  10 -20   6 2497.46 1348.75   2
 -10 -10   6 900.974 850.935   2
  20 -10   6 409.525 816.568   3
 -10  20   6-70.2932 812.463   4
  20 -10   6 344.276 974.841   4
  10 -20   6 1233.88 983.780   4
 -10 -10   6 1271.44 790.727   4
 -20  10   6 1582.32 620.193   4
  10 -20   9 1228.57 1261.36   2
 -10 -10   9 691.664 916.243   2
  20 -10   9 275.479 1084.72   3
  10  10   9-271.280 1107.46   3
  20 -10   9 1364.87 1279.45   4
 -10  20   9-218.451 1055.72   4
  20 -10   9 2142.18 1465.36   2
  10 -20   9 2174.31 1352.09   4
 -10 -10   9-717.837 839.164   4
 -20  10   9-593.955 774.984   4
  20  -9  -7 1202.77 1032.11   1
  -9 -11  -7 2330.78 1244.44   1
  20  -9  -7 1879.57 1006.41   3
  11   9  -7 2329.34 863.489   3
   9 -20  -7 2738.38 1447.61   1
  20  -9  -4 467.428 525.628   3
  11   9  -4 2510.31 819.594   3
   9 -20  -4 1844.45 882.378   1
  -9 -11  -4 2143.75 737.942   1
  20  -9  -4 945.367 769.756   1
  20  -9  -4 671.104 605.127   4
   9 -20  -1 1867.50 509.283   4
  -9 -11  -1 1622.36 702.850   4
  20  -9  -1 3194.65 991.634   3
   9 -20  -1 1595.09 636.938   2
  20  -9  -1 2247.14 575.798   1
  11   9  -1 2162.06 827.534   3
  -9 -11  -1 3447.91 955.274   2
 -11  20  -1 2367.80 770.883   4
  -9 -11  -1 2037.24 558.797   1
  20  -9  -1 1981.13 666.374   4
   9 -20  -1 3144.82 974.899   1
   9 -20   2 2081.58 887.374   2
  20  -9   2 2348.44 838.455   3
  -9 -11   2 2961.96 1112.41   2
  11   9   2 506.274 656.742   3
   9 -20   2 2080.92 665.065   3
  20  -9   2 695.251 176.928   1
 -11  20   2 1285.24 423.569   4
  20  -9   2 685.889 164.313   1
 -20  11   2 1355.18 540.365   1
   9 -20   2 2160.23 655.866   4
  -9 -11   2 1255.20 608.385   4
   9 -20   5 1844.43 1032.62   2
  20  -9   5 856.975 613.609   1
  -9 -11   5 538.633 866.036   2
  20  -9   5 742.506 778.371   3
  11   9   5 1076.56 1005.93   3
 -11  20   5 1199.12 584.753   4
   9 -20   5 1257.80 748.971   4
  -9 -11   5 1971.40 911.913   4
 -11  20   5 672.932 375.801   4
 -20  11   5 1102.44 413.340   4
   9 -20   8 3593.66 1487.13   2
  -9 -11   8 2098.51 1363.93   2
  20  -9   8 970.345 1034.38   3
  11   9   8 2919.56 1493.06   3
  20  -9   8 3080.54 1492.23   4
 -11  20   8 1368.76 913.669   4
  20  -9   8 1527.78 1508.19   2
   9 -20   8 3128.85 1297.55   4
  -9 -11   8 1587.54 1018.75   4
 -20  11   8 631.891 625.955   4
  20  -8  -8 1177.29 1145.38   3
  -8 -12  -8 264.133 842.853   1
  12   8  -8 409.200 547.841   3
  20  -8  -8 891.558 1100.76   1
   8 -20  -8 287.427 982.406   1
  20  -8  -5 2627.09 994.982   3
  12   8  -5 2305.84 796.365   3
   8 -20  -5 2790.00 1303.33   1
  -8 -12  -5 2178.86 958.424   1
  20  -8  -5 3140.12 1137.20   1
   8 -20  -2 1371.25 860.693   1
  -8 -12  -2 1528.33 645.842   1
  20  -8  -2 1269.33 763.125   3
   8 -20  -2 1115.19 464.209   2
  12   8  -2 2013.67 852.547   3
  -8 -12  -2 2122.06 769.080   2
 -12  20  -2 959.406 654.613   4
  20  -8  -2 865.209 541.815   1
  20  -8  -2 380.517 457.572   4
  -8 -12   1 2835.55 809.981   4
  -8 -12   1 4538.40 1288.87   2
   8 -20   1 3879.01 1075.12   2
  20  -8   1 4348.20 1059.38   3
  12   8   1 5256.27 1234.89   3
   8 -20   1 4998.37 1065.04   3
 -12  20   1 2439.83 594.737   4
   8 -20   1 3687.90 795.629   4
 -20  12   4 417.865 313.751   4
   8 -20   4 1488.69 901.535   2
  20  -8   4-398.970 745.671   3
  -8 -12   4 1408.30 855.879   2
  12   8   4 247.825 767.761   3
 -12  20   4 736.333 462.041   4
  20  -8   4 693.917 269.159   1
  20  -8   4 300.605 198.802   1
   8 -20   4 744.732 695.004   4
 -12  20   4 314.394 272.855   4
  -8 -12   4 1741.07 807.299   4
   8 -20   7 3711.70 1532.51   2
  -8 -12   7 4309.51 1496.35   2
  20  -8   7-203.954 871.838   3
  12   8   7 2837.55 1503.15   3
  20  -8   7 4231.95 1803.14   4
 -12  20   7 2390.16 948.415   4
   8 -20   7 3981.08 1300.13   4
  -8 -12   7 1732.51 962.475   4
 -20  12   7 2408.48 692.975   4
   7 -20  -9 1250.60 1317.75   1
  20  -7  -9-1431.94 1036.46   3
  13   7  -9 719.874 653.945   3
  -7 -13  -9-462.098 1040.33   1
  20  -7  -9 520.263 943.043   1
  20  -7  -6 1394.85 1148.60   3
  13   7  -6 294.870 597.296   3
  20  -7  -6 286.499 771.764   1
   7 -20  -6 1220.06 958.316   1
  -7 -13  -6 753.707 743.906   1
  20  -7  -3 2398.88 768.675   1
  20  -7  -3 2711.02 976.575   3
   7 -20  -3 512.931 502.980   1
  -7 -13  -3 609.574 492.557   1
  13   7  -3 3315.78 976.165   3
   7 -20  -3 1467.62 438.853   2
   7 -20   0 3019.12 749.487   4
  -7 -13   0 690.601 419.026   4
   7 -20   0 2529.99 864.262   2
  20  -7   0 550.916 546.047   3
  13   7   0 2098.27 949.113   3
  -7 -13   0 827.798 607.504   2
   7 -20   0 710.541 665.894   3
 -13  20   0 1096.89 497.412   4
   7 -20   0 1561.71 607.378   1
   7 -20   3 2208.08 856.394   2
  -7 -13   3 338.821 496.988   3
  20  -7   3 486.069 700.076   3
  -7 -13   3-432.743 557.381   2
   7 -20   3 360.161 244.755   3
  13   7   3 1867.74 1190.11   3
 -13  20   3 141.018 122.926   4
   7 -20   3 646.346 436.316   4
  -7 -13   3 1519.13 761.214   4
   7 -20   6 2956.09 1415.68   2
  -7 -13   6 3595.12 1219.73   2
  20  -7   6 3454.59 1141.29   3
  13   7   6 4083.82 1614.32   3
 -13  20   6 2787.32 776.871   4
   7 -20   6 3602.29 1212.28   4
  -7 -13   6 3691.17 1172.52   4
 -20  13   6 3002.56 645.654   4
   7 -20   9 2774.16 1593.71   2
  -7 -13   9 2369.24 1461.17   2
  20  -7   9 540.709 1110.00   3
  13   7   9 632.370 1445.25   3
  20  -7   9-549.153 1271.35   4
  20  -7   9 919.052 1229.04   2
   7 -20   9-116.337 832.120   4
  -7 -13   9 1416.31 1176.33   4
  20  -6  -7 2735.32 1279.23   3
  14   6  -7 842.844 545.973   3
  20  -6  -7 2003.03 1148.98   1
   6 -20  -7 1215.76 1089.81   1
  -6 -14  -7 2166.17 1207.38   1
  20  -6  -4 1551.58 762.758   3
  14   6  -4-155.904 500.352   3
   6 -20  -4 1204.63 782.049   1
  -6 -14  -4 623.512 597.528   1
  20  -6  -4 2498.01 893.809   1
   6 -20  -1 4404.77 809.066   4
  -6 -14  -1 3730.86 900.439   4
  20  -6  -1 3808.40 1045.74   3
  14   6  -1 6118.79 1274.26   3
  -6 -14  -1 4460.69 1105.70   2
 -14  20  -1 3806.37 841.021   4
  -6 -14  -1 3327.78 839.612   1
  20  -6  -1 3369.50 514.120   1
   6 -20  -1 6053.88 1036.24   2
   6 -20  -1 4815.36 1236.43   1
  20  -6   2 3338.74 1105.54   3
  -6 -14   2 3793.03 1163.07   2
  14   6   2 4001.96 1207.50   3
   6 -20   2 4044.25 813.672   3
   6 -20   2 6433.53 1428.99   2
   6 -20   2 5785.98 1038.10   4
  -6 -14   2 3638.95 970.860   4
   6 -20   5 2563.98 1276.34   2
  -6 -14   5 2891.15 1227.59   2
  20  -6   5 2315.79 1113.76   3
  14   6   5 3315.94 1360.83   3
   6 -20   5 2657.53 956.192   4
  -6 -14   5 3055.18 992.751   4
   6 -20   8 591.043 950.697   2
  -6 -14   8 1381.23 1097.32   2
  20  -6   8 1122.31 1142.28   3
  14   6   8 395.387 1241.60   3
  20  -6   8-980.764 1005.21   4
  20  -6   8-290.434 1190.72   2
   6 -20   8 3038.09 1378.37   4
  -6 -14   8 2575.11 1179.92   4
 -20  14   8 921.099 668.040   4
  -5 -15  -8 989.167 1221.46   1
  20  -5  -8 24.0064 803.120   3
  15   5  -8-307.920 605.431   3
  20  -5  -8 269.111 783.919   1
   5 -20  -8 727.065 1025.70   1
  20  -5  -5 5441.90 1492.30   3
  15   5  -5 4761.30 1189.69   3
   5 -20  -5 3161.15 1346.77   1
  -5 -15  -5 1929.48 858.088   1
  20  -5  -5 5187.95 1312.71   1
  -5 -15  -2 438.971 388.482   1
   5 -20  -2 582.499 598.588   1
  20  -5  -2-356.968 385.818   1
  20  -5  -2 587.141 692.372   3
  15   5  -2 1268.69 717.184   3
   5 -20  -2 1117.87 568.944   2
  -5 -15  -2 631.501 510.910   2
  -5 -15   1 4852.89 1031.01   4
  -5 -15   1 7269.99 1456.94   2
  20  -5   1 6904.45 1354.75   3
  15   5   1 5919.34 1414.34   3
   5 -20   1 5366.77 1079.00   3
   5 -20   1 6176.83 1049.06   4
   5 -20   1 7682.07 1488.94   2
  -5 -15   4 1149.34 502.107   3
   5 -20   4 2906.93 1088.75   2
  -5 -15   4 1924.99 909.591   2
  20  -5   4 1519.11 1029.68   3
  15   5   4 3875.58 1318.50   3
   5 -20   4 2566.97 881.148   4
  -5 -15   4 2704.14 936.884   4
   5 -20   7-2.23387 800.400   2
  -5 -15   7 1181.91 880.714   2
  20  -5   7 3289.57 1501.62   3
  15   5   7 2910.03 1273.32   3
   5 -20   7 2371.04 1038.41   4
  -5 -15   7 1199.25 825.075   4
 -20  15   7 2834.62 635.084   4
  20  -4  -6-993.874 902.973   1
  20  -4  -6 1004.08 902.588   3
  16   4  -6 902.008 725.213   3
   4 -20  -6-843.307 990.113   1
  -4 -16  -6 1275.47 1054.47   1
   4 -20  -3 2432.18 1049.66   1
  -4 -16  -3 2464.41 847.081   1
  20  -4  -3 2718.90 974.436   3
  16   4  -3 3926.24 1103.83   3
  20  -4  -3 3741.87 865.854   1
   4 -20  -3 2760.23 625.281   2
  -4 -16  -3 3547.78 893.705   2
   4 -20   0 2684.83 777.893   4
  -4 -16   0 1542.90 715.927   4
  20  -4   0 2085.74 762.835   3
   4 -20   0 1812.77 722.619   2
  16   4   0 3216.45 1069.68   3
  -4 -16   0 3294.37 1001.96   2
  -4 -16   0 2454.41 777.318   1
   4 -20   0 2745.04 892.651   1
  -4 -16   3-90.6424 358.319   3
   4 -20   3 1225.86 837.069   2
   4 -20   3 1009.09 311.947   3
  -4 -16   3 2734.17 1065.24   2
  20  -4   3 860.998 794.611   3
  16   4   3 1933.17 951.779   3
   4 -20   3 1362.46 647.321   4
  -4 -16   3 651.708 564.228   4
   4 -20   6 6150.84 1676.35   2
  -4 -16   6 116.753 809.868   2
  20  -4   6 2063.68 1072.12   3
  16   4   6 4245.74 1520.81   3
   4 -20   6 5041.69 1454.71   4
  -4 -16   6 2077.80 927.188   4
 -20  16   6 1303.27 309.217   4
  20  -3  -7 2278.28 1133.75   3
  17   3  -7 774.237 850.277   3
  20  -3  -7 1779.06 1162.38   1
   3 -20  -7-209.622 865.027   1
  -3 -17  -7 586.553 871.786   1
  20  -3  -4-420.230 605.771   3
  17   3  -4 1154.47 722.928   3
   3 -20  -4 1823.19 945.546   1
  -3 -17  -4 2183.05 948.049   1
  20  -3  -4 3680.14 968.764   1
   3 -20  -1 365.942 402.219   4
  -3 -17  -1 612.719 516.912   4
  20  -3  -1 945.858 850.532   3
  17   3  -1 682.906 516.635   3
   3 -20  -1 936.320 592.798   2
  -3 -17  -1 442.807 471.803   2
  -3 -17  -1 1041.87 665.813   1
   3 -20  -1 988.861 583.509   1
   3 -20   2 609.469 744.281   2
  -3 -17   2 146.325 467.998   3
  20  -3   2 1025.09 782.020   3
   3 -20   2 709.355 509.320   3
  -3 -17   2 1059.39 791.245   2
  17   3   2 1363.79 934.079   3
   3 -20   2 494.439 451.614   4
  -3 -17   2 136.168 477.124   4
   3 -20   5 1773.26 1291.75   2
  -3 -17   5 1432.01 1036.12   2
  20  -3   5 1335.77 967.877   3
  17   3   5-424.236 738.625   3
   3 -20   5 1573.24 996.293   4
  -3 -17   5 881.380 609.135   4
   3 -20   8 3337.71 1466.55   2
  -3 -17   8 653.503 1186.17   2
  20  -3   8 2769.76 1536.92   3
  17   3   8 2467.86 1309.39   3
   3 -20   8 332.988 769.556   4
  -3 -17   8-122.670 967.258   4
  20  -2  -8 1935.38 1159.93   3
  18   2  -8 199.651 635.811   3
  18   2  -8 1773.56 1082.67   1
  20  -2  -8-930.496 1083.85   1
   2 -20  -8 472.109 894.559   1
  -2 -18  -8 1029.78 1339.79   1
  20  -2  -5 3382.99 1088.27   1
  20  -2  -5 1239.50 860.346   3
  18   2  -5 2477.75 1011.77   3
   2 -20  -5 1119.09 943.102   1
  -2 -18  -5 1387.41 874.685   1
  -2 -18  -2 563.551 538.203   1
   2 -20  -2 1598.84 745.309   1
  20  -2  -2-466.819 632.199   3
  18   2  -2-423.391 557.668   3
   2 -20  -2-33.7315 375.308   2
  -2 -18  -2 605.845 544.560   2
  -2 -18   1 2702.22 821.214   4
   2 -20   1 3405.33 1028.02   2
  20  -2   1 692.039 758.339   3
  18   2   1 2381.75 1080.36   3
  -2 -18   1 4273.28 1112.59   2
   2 -20   1 2530.83 792.500   3
   2 -20   1 2852.09 720.707   4
   2 -20   4 174.774 639.328   2
  -2 -18   4 746.220 930.910   2
  20  -2   4 226.079 772.325   3
  18   2   4 497.409 769.154   3
   2 -20   4 976.258 791.666   4
  -2 -18   4-488.660 508.734   4
   2 -20   7 1984.57 1320.52   2
  -2 -18   7 237.918 1160.41   2
  20  -2   7-154.631 893.109   3
  18   2   7 943.119 961.875   3
   2 -20   7 844.068 804.972   4
  -2 -18   7 1919.89 1083.07   4
  20  -1  -6 1814.56 948.770   3
  19   1  -6 1396.65 882.810   3
   1 -20  -6 410.610 811.255   1
  -1 -19  -6 639.096 933.746   1
  20  -1  -6 394.428 583.467   1
   1 -20  -3 2826.05 1128.79   1
  -1 -19  -3 2761.18 959.116   1
  20  -1  -3 2856.37 914.905   3
  19   1  -3 2259.67 925.708   3
   1 -20  -3 2412.53 726.186   2
  -1 -19  -3 3527.91 915.841   2
   1 -20   0 2381.62 890.277   4
  -1 -19   0 3651.32 968.713   4
  20  -1   0 3254.33 1099.11   3
  19   1   0 2670.56 1143.92   3
   1 -20   0 2231.92 765.987   2
  -1 -19   0 3398.63 974.928   2
  -1 -19   0 3279.84 915.423   1
   1 -20   0 2822.21 845.787   1
  -1 -19   3 3069.44 632.781   3
   1 -20   3 2197.93 526.366   3
   1 -20   3 4600.32 1294.01   2
  -1 -19   3 3387.90 1196.01   2
  20  -1   3 3962.40 1256.16   3
  19   1   3 4136.34 1348.61   3
   1 -20   3 3044.37 937.005   4
  -1 -19   3 2493.51 877.995   4
   1 -20   6-165.944 791.585   2
  -1 -19   6 986.020 815.992   2
  20  -1   6 979.459 802.852   3
  19   1   6 2550.09 1432.26   3
   1 -20   6 998.242 815.988   4
  -1 -19   6 263.920 773.542   4
  20   0  -7 1523.20 873.261   3
  20   0  -7 2087.06 1025.46   1
   0 -20  -7 994.571 1186.85   1
  20   0  -4 1299.81 758.070   3
   0 -20  -4 1696.98 978.746   1
   0 -20  -1-638.881 473.400   4
  20   0  -1 1402.34 894.834   3
   0 -20  -1 306.783 477.132   2
   0 -20  -1-289.561 636.619   1
   0 -20   2 1337.55 617.218   3
   0 -20   2 1634.73 890.210   2
  20   0   2 2180.11 1140.10   3
   0 -20   2 2305.02 883.603   4
   0 -20   5-644.179 714.016   2
  20   0   5 744.917 1097.46   3
   0 -20   5 118.589 772.092   4
   0 -20   8 454.192 972.885   2
  20   0   8 43.0699 1026.23   3
   0 -20   8 838.875 986.405   4
  21 -21  -6 4178.81 1596.18   1
  21 -21  -3 68.9949 655.081   1
  21 -21  -3-1006.08 603.075   2
  21 -21   0 6070.65 1254.20   1
  21 -21   0 5323.56 1131.00   3
   0  21   0 6440.92 1594.55   3
  21 -21   0 4537.54 1177.54   2
 -21   0   3-408.840 534.654   4
  21 -21   3 494.653 554.499   3
   0  21   3 1743.57 1219.97   3
 -21   0   3 656.393 843.658   2
  21 -21   3 517.649 573.201   4
  21 -21   3-726.926 771.885   2
  21 -21   3-277.656 410.283   1
  21 -21   6 1955.87 781.436   3
 -21   0   6 1931.33 1097.24   2
   0  21   6 4117.48 1896.40   3
  21 -21   6 4065.96 1346.39   4
  21 -21   6 6390.07 2057.51   2
 -21   0   6 3813.42 1164.61   4
  21 -20  -7 870.957 1304.18   1
  20 -21  -7 330.461 1212.25   1
  20 -21  -4-625.318 766.273   1
   1  20  -4 1329.62 616.423   3
  21 -20  -4-45.0625 782.667   1
  21 -20  -4 96.8672 340.424   2
  20 -21  -4 88.2789 256.474   2
  20 -21  -1 703.380 494.590   3
  21 -20  -1 1604.25 776.797   3
  20 -21  -1 2229.52 800.227   1
  21 -20  -1-70.1187 486.264   1
   1  20  -1-4.43883 821.455   3
  -1  21  -1 1374.98 896.545   3
  21 -20  -1-504.480 606.560   2
  20 -21  -1 715.278 678.844   2
 -20  -1   2 1639.25 795.654   4
 -21   1   2 381.783 444.597   4
  20 -21   2 766.161 450.723   3
  21 -20   2 467.161 562.449   3
 -21   1   2 791.249 484.491   1
   1  20   2 1311.94 1094.53   3
  -1  21   2 2353.46 1214.98   3
 -20  -1   2-529.006 633.086   2
  21 -20   2 2291.13 1109.32   2
  21 -20   2 560.461 457.664   4
 -20  -1   2 1152.51 679.347   1
  20 -21   2 579.090 666.934   2
  20 -21   2 1172.37 497.315   4
  20 -21   2 902.758 719.755   1
  21 -20   2 245.641 470.485   1
  20 -21   5 559.543 526.732   3
  21 -20   5 895.355 628.019   3
 -20  -1   5 2131.25 1156.93   2
 -21   1   5 2593.38 1064.89   2
   1  20   5 1447.11 1305.79   3
  -1  21   5 278.089 1236.72   3
  21 -20   5 631.031 795.025   4
  20 -21   5 1254.54 837.956   4
  21 -20   5 3848.77 1473.79   2
  20 -21   5 2144.17 1441.99   2
 -20  -1   5-55.4913 618.841   4
 -21   1   5 1193.55 814.200   4
  19 -21  -8 60.3857 1257.51   1
  21 -19  -8-447.307 1068.26   1
  19 -21  -5 438.501 685.969   1
  21 -19  -5 1135.29 830.186   1
  21 -19  -2 3169.62 938.179   3
  19 -21  -2 1879.34 938.241   1
  21 -19  -2 1156.77 744.641   1
   2  19  -2 256.260 638.981   3
  21 -19  -2 1268.92 675.568   2
  19 -21  -2 535.590 572.576   2
  21 -19   1 1177.35 339.028   4
  21 -19   1 2198.13 793.106   1
 -19  -2   1 299.244 680.491   4
  19 -21   1 1826.41 660.983   3
  21 -19   1 1229.89 696.174   3
   2  19   1 302.462 798.489   3
  -2  21   1 1762.43 1084.76   3
  21 -19   1 1726.92 930.026   2
  21 -19   1 1347.43 427.864   4
  19 -21   1 1733.06 864.943   2
  19 -21   1 444.619 284.159   4
 -19  -2   1 618.305 395.067   1
  19 -21   1 484.374 477.059   1
 -19  -2   4 1668.65 825.467   4
 -21   2   4 135.256 553.517   4
  19 -21   4 259.228 430.611   3
  21 -19   4 912.172 639.284   3
 -19  -2   4 504.340 770.904   2
   2  19   4 1233.89 1222.98   3
 -21   2   4 1164.86 977.846   2
  -2  21   4 492.390 1036.59   3
  21 -19   4 1167.77 759.921   4
  21 -19   4 659.708 784.307   2
  19 -21   4 74.4231 557.934   4
  19 -21   4-162.413 861.475   2
  21 -19   7 277.598 629.093   3
 -19  -2   7-901.820 802.978   2
 -21   2   7 938.999 904.096   2
   2  19   7 1608.62 1564.61   3
  21 -19   7 2492.37 1325.79   4
  19 -21   7 3437.01 1515.63   4
  21 -19   7 1439.69 978.051   2
  19 -21   7 1373.82 1503.68   2
 -19  -2   7 1516.16 978.320   4
 -21   2   7 962.379 891.134   4
  21 -18  -6 3038.01 1247.04   1
  18 -21  -6 2872.91 1433.95   1
  18 -21  -3 1054.91 771.315   1
  21 -18  -3 186.246 494.272   2
   3  18  -3 369.206 567.655   3
  18 -21  -3 126.239 306.066   2
  21 -18  -3-594.391 831.197   1
  18 -21  -3 690.695 443.851   2
 -18  -3   0 3458.30 495.114   1
 -18  -3   0 5275.72 1145.83   4
  18 -21   0 8366.29 1297.60   3
  21 -18   0 8372.17 1317.49   3
  21 -18   0 5023.46 1067.13   1
   3  18   0 7710.65 1649.74   3
  18 -21   0 6491.03 1310.96   2
  18 -21   0 7314.63 1332.75   1
  21 -18   0 4399.94 1318.60   2
 -21   3   3 417.210 428.866   4
  18 -21   3 9.12958 414.308   3
  21 -18   3 189.679 523.608   3
  21 -18   3 228.812 504.482   4
 -21   3   3-213.235 516.118   1
 -18  -3   3 12.6606 594.015   2
   3  18   3 1295.95 1184.67   3
  -3  21   3 825.861 875.517   3
  21 -18   3 1837.28 1233.27   2
  21 -18   3-106.351 430.298   1
  18 -21   3 1716.94 678.397   4
  18 -21   3 448.197 824.092   2
 -18  -3   3-187.102 452.582   4
  21 -18   6 2253.72 899.468   3
 -18  -3   6 4529.76 1381.25   2
 -21   3   6 4085.50 1308.85   2
   3  18   6 3499.07 1653.44   3
  21 -18   6 3001.25 1322.28   4
  18 -21   6 3336.99 1171.19   4
  21 -18   6 4321.54 1433.99   2
  18 -21   6 2449.48 1361.26   2
 -18  -3   6 3276.28 1154.59   4
 -21   3   6 2220.89 935.696   4
  21 -17  -7 2089.66 1126.26   1
 -17  -4  -7 693.474 633.802   1
  17 -21  -7-98.0665 1067.61   1
  17 -21  -4 855.315 717.079   1
   4  17  -4 576.217 598.821   3
  21 -17  -4-266.690 698.835   1
 -17  -4  -4-95.6197 274.740   1
  17 -21  -1 1361.03 774.704   1
 -17  -4  -1 88.1397 144.991   1
  21 -17  -1 495.924 495.304   1
   4  17  -1 3.99137 579.737   3
  17 -21  -1 622.889 631.928   2
 -17  -4  -1 388.361 232.443   1
 -17  -4   2 354.880 475.930   4
 -21   4   2 141.707 571.396   4
  17 -21   2 864.263 528.029   3
 -21   4   2 1271.66 487.243   1
  21 -17   2 1268.94 650.646   3
   4  17   2 52.3216 763.262   3
 -17  -4   2 1317.30 945.193   2
 -17  -4   2 1406.36 749.772   1
  21 -17   2 926.608 900.190   2
  21 -17   2 561.213 489.982   4
  17 -21   2 21.4023 517.256   1
  17 -21   2 173.328 321.811   4
  17 -21   2 1276.93 986.137   2
  21 -17   2 1447.89 606.516   1
  17 -21   5 969.808 478.060   3
  21 -17   5 654.026 660.944   3
 -17  -4   5 1554.52 1043.21   2
   4  17   5 2061.55 1168.56   3
 -21   4   5 1177.26 887.721   2
  21 -17   5 702.551 881.302   4
  21 -17   5 2229.46 1362.38   2
  17 -21   5 2605.11 1003.97   4
  17 -21   5 1905.92 1287.45   2
 -17  -4   5 688.459 676.718   4
 -21   4   5 1858.64 761.784   4
 -17  -4   8 734.000 796.422   2
  21 -17   8 1000.53 983.293   3
 -21   4   8 494.362 949.756   2
   4  17   8 2019.40 1537.68   3
  21 -17   8 2700.65 1463.48   4
  17 -21   8 31.4100 853.933   4
  21 -17   8 1855.20 1591.65   2
  17 -21   8 2905.94 1668.48   2
 -17  -4   8 713.255 902.113   4
 -21   4   8 473.801 627.972   4
 -16  -5  -8 1143.20 892.917   1
  21 -16  -8 1633.56 1381.96   1
  16 -21  -8 495.972 1173.46   1
  21 -16  -5 173.072 714.251   1
   5  16  -5 632.470 519.779   3
  16 -21  -5 960.017 825.624   1
 -16  -5  -5 268.783 542.223   1
  21 -16  -2 1216.37 717.287   3
  16 -21  -2-318.504 779.317   1
 -16  -5  -2 1259.28 357.651   1
   5  16  -2 1915.35 856.915   3
  21 -16  -2 1851.85 821.170   1
 -16  -5  -2 847.834 329.709   1
  16 -21  -2 1903.48 639.777   2
  21 -16   1 196.267 277.344   4
 -16  -5   1-73.4238 527.178   4
 -16  -5   1 147.942 472.394   1
  16 -21   1 379.468 470.419   3
  21 -16   1 1047.76 495.231   1
  21 -16   1-166.498 416.383   3
   5  16   1 2644.17 1257.02   3
 -16  -5   1 2199.32 1156.10   2
  21 -16   1 488.299 449.798   4
  16 -21   1-669.422 721.456   1
  16 -21   1 617.924 569.680   2
  16 -21   1 759.797 343.340   4
 -21   5   4 1375.34 642.796   4
  16 -21   4 1585.75 561.986   3
  21 -16   4 2037.44 799.863   3
 -16  -5   4 1548.67 827.513   2
   5  16   4 1793.68 1299.25   3
  21 -16   4 624.616 579.486   4
  21 -16   4 2399.34 1204.25   2
  16 -21   4 1275.40 677.060   4
  -5  21   4-315.878 673.296   2
  16 -21   4 2763.76 1215.30   2
 -16  -5   4 2994.48 922.542   4
 -21   5   7 1251.49 816.582   4
  21 -16   7 839.018 893.641   3
 -16  -5   7-400.634 797.215   2
 -21   5   7 65.1814 795.589   2
   5  16   7 2570.59 1444.97   3
  21 -16   7 161.867 1420.02   4
  21 -16   7-1106.82 1338.72   2
  16 -21   7 764.098 854.418   4
  16 -21   7-267.794 1050.46   2
 -16  -5   7-5.01402 770.311   4
  21 -15  -6 5207.63 1481.42   1
   6  15  -6 3074.58 662.729   3
 -15  -6  -6 5317.12 1100.52   1
  15 -21  -6 6173.23 1644.24   1
  21 -15  -3 67.9641 573.040   3
  15 -21  -3 962.715 314.354   2
  15 -21  -3 2388.11 1093.51   1
   6  15  -3 1749.11 684.530   3
 -15  -6  -3 594.580 336.878   1
  21 -15  -3 1374.37 810.742   1
  15 -21   0 1017.12 272.285   4
 -15  -6   0 1347.12 809.927   4
  21 -15   0 449.278 587.237   3
  21 -15   0 1154.58 532.393   1
   6  15   0 1328.04 889.916   3
 -15  -6   0 1736.56 850.615   2
  21 -15   0 131.722 314.031   4
 -15  -6   0 567.849 291.693   1
 -15  -6   0 724.221 462.855   1
  21 -15   0 901.656 349.441   4
  15 -21   0 1001.88 633.404   2
  15 -21   0 1081.77 601.778   1
 -15  -6   3 1067.55 795.609   4
 -21   6   3 276.181 409.014   4
  15 -21   3 722.275 373.932   3
 -21   6   3-504.163 533.791   1
  21 -15   3 308.396 537.343   3
 -15  -6   3 137.356 643.804   2
   6  15   3 1235.42 900.449   3
  21 -15   3 269.087 649.268   4
  21 -15   3-403.520 439.704   1
  21 -15   3-146.412 395.418   1
  15 -21   3 732.430 553.184   4
  -6  21   3 139.957 618.914   2
  15 -21   3 426.586 723.980   2
  21 -15   6 1350.59 935.632   3
 -15  -6   6-245.524 727.177   2
   6  15   6 1983.33 1319.92   3
 -21   6   6 1424.46 761.204   2
  21 -15   6-1161.12 1214.99   4
  21 -15   6 2290.88 1281.87   2
  15 -21   6 905.702 712.510   4
  15 -21   6 4534.50 1736.73   2
 -15  -6   6 463.069 677.448   4
 -21   6   6 767.167 649.440   4
  21 -14  -7 621.622 789.229   1
 -14  -7  -7-17.4669 648.034   1
  14 -21  -7 1922.42 1105.14   1
  21 -14  -4 1139.45 853.766   1
  21 -14  -4-213.198 677.126   3
  14 -21  -4-334.378 548.088   1
   7  14  -4 744.248 668.372   3
  21 -14  -4 481.132 332.739   4
 -14  -7  -4-300.170 409.250   1
  14 -21  -1 1974.56 745.790   2
 -14  -7  -1 873.384 420.502   1
  14 -21  -1 426.655 549.589   1
  21 -14  -1 1897.97 853.937   3
   7  14  -1 2673.99 997.363   3
  21 -14  -1 1218.34 592.276   1
  21 -14  -1 1594.16 393.057   4
 -21   7   2 2053.36 520.770   1
 -14  -7   2 2146.79 884.814   4
  21 -14   2 2771.73 629.236   1
  21 -14   2 1771.08 614.229   4
 -21   7   2 1782.00 614.161   4
  14 -21   2 2652.04 621.024   3
  21 -14   2 2342.50 794.341   3
 -14  -7   2 2105.74 859.586   1
   7  14   2 1493.80 906.303   3
 -14  -7   2 2236.77 1021.35   2
  21 -14   2 2128.42 876.007   4
  -7  21   2 1407.76 800.042   2
  -7  21   2 2670.62 814.814   4
  14 -21   2 1329.48 541.223   4
  14 -21   2 3261.92 1111.48   2
  21 -14   5-270.151 653.900   3
  14 -21   5 363.874 215.918   3
 -14  -7   5 254.575 670.953   2
   7  14   5 1238.18 1530.52   3
  21 -14   5 2005.04 1040.51   4
  21 -14   5 2768.92 1343.61   2
  14 -21   5 1048.18 784.529   4
 -14  -7   5 597.701 664.366   4
  14 -21   5 3812.41 1477.40   2
 -21   7   5-111.047 392.763   4
 -14  -7   8 1472.70 929.089   2
  21 -14   8 777.577 796.649   3
 -21   7   8 74.6055 828.174   2
   7  14   8 521.029 1303.19   3
  -7  21   8 132.261 1022.50   4
  21 -14   8 502.851 1263.31   4
  21 -14   8 1019.13 1400.88   2
  14 -21   8 2084.57 1152.56   4
 -14  -7   8-59.1928 681.959   4
 -21   7   8 376.030 617.696   4
  14 -21   8 1586.19 1427.24   2
 -13  -8  -8 2377.98 1161.83   1
  21 -13  -8 3734.20 1706.08   1
  13 -21  -8 1526.14 1230.74   1
 -13  -8  -5 1477.13 769.624   1
  21 -13  -5 1178.19 760.416   3
  21 -13  -5 432.048 697.852   1
   8  13  -5 203.188 571.869   3
  13 -21  -5-405.697 595.708   1
  21 -13  -2 6971.54 1345.08   3
  13 -21  -2 4472.33 1105.85   1
 -13  -8  -2 3799.18 666.452   1
   8  13  -2 3333.40 1058.09   3
  13 -21  -2 5203.38 828.567   2
  21 -13  -2 2946.47 495.851   4
  21 -13  -2 7950.34 1337.20   1
  13 -21   1 2390.36 958.964   2
  21 -13   1 925.369 445.341   4
 -13  -8   1 1324.07 647.605   4
  21 -13   1 1921.83 688.249   3
  21 -13   1 643.288 426.201   1
 -13  -8   1 1562.84 779.274   1
   8  13   1 2383.58 1051.04   3
 -13  -8   1 352.482 720.732   2
  13 -21   1 963.926 724.906   3
  -8  21   1 1355.21 828.432   2
  13 -21   1-890.067 589.677   1
  -8  21   1 970.134 640.749   4
  13 -21   1 460.023 338.833   4
 -21   8   4 1045.38 512.331   4
  21 -13   4 1083.29 779.855   4
  13 -21   4 735.776 301.282   3
  21 -13   4 3380.05 1099.78   3
  21 -13   4 1440.98 683.317   1
 -13  -8   4 1816.81 891.892   2
   8  13   4 1349.09 1231.47   3
  13 -21   4 1947.79 535.340   3
  13 -21   4 2610.13 820.475   4
  -8  21   4 1081.68 612.259   4
 -13  -8   4 3023.48 1019.22   4
  13 -21   4 2675.53 1309.70   2
 -13  -8   7 1711.76 1141.74   2
  21 -13   7-1.55686 800.536   3
   8  13   7 2831.07 1525.07   3
 -21   8   7 375.220 601.496   2
  21 -13   7 3038.56 1746.36   4
  21 -13   7-424.418 1101.92   2
  13 -21   7-40.1609 925.721   4
 -13  -8   7 182.705 827.701   4
 -21   8   7-162.657 515.646   4
  13 -21   7 1775.33 1675.57   2
  21 -12  -6 1809.51 925.420   3
 -12  -9  -6 1902.94 950.719   1
   9  12  -6 1054.51 715.661   3
  12 -21  -6 3345.04 1385.05   1
  21 -12  -6 953.684 891.107   1
  21 -12  -3 1468.50 716.772   3
  21 -12  -3 3942.60 1051.76   1
  12 -21  -3 1846.14 961.007   1
  12 -21  -3 1817.93 335.920   2
   9  12  -3 1969.64 831.605   3
 -12  -9  -3 2705.13 719.042   1
  21 -12  -3 1665.49 572.156   4
 -12  -9   0 2006.22 780.617   4
  12 -21   0 3074.21 858.282   2
  21 -12   0 3190.79 982.526   3
   9  12   0 4138.48 1226.05   3
 -12  -9   0 3224.66 1094.17   2
  21 -12   0 1908.55 544.791   1
 -12  -9   0 1786.04 516.311   1
  -9  21   0 2579.65 885.020   4
  12 -21   0 4221.36 613.468   4
  12 -21   0 3756.43 1153.97   1
  21 -12   0 1656.34 506.419   4
 -21   9   3 1014.82 448.689   4
 -21   9   3 2835.99 818.485   1
  12 -21   3 720.681 300.507   3
  21 -12   3 2546.57 813.511   3
 -12  -9   3 871.253 731.166   2
   9  12   3 324.001 1021.16   3
  12 -21   3 2621.62 685.031   3
  21 -12   3 1542.82 551.444   1
  12 -21   3 2165.98 732.321   4
  -9  21   3 888.037 470.491   4
  21 -12   3 2410.88 520.381   1
 -12  -9   3 2299.66 886.022   4
  12 -21   6 2575.23 1265.97   2
 -12  -9   6 1514.67 1101.94   2
  21 -12   6 2430.12 1174.59   3
   9  12   6 2484.20 1288.55   3
  21 -12   6-877.797 984.242   4
  21 -12   6 16.4254 821.481   2
  12 -21   6 924.504 776.290   4
 -12  -9   6 2644.92 1036.05   4
 -21   9   6 1525.02 673.937   4
  21 -11  -7-1118.75 890.013   3
 -11 -10  -7 810.648 672.391   1
  10  11  -7 1588.39 774.868   3
  11 -21  -7 895.869 1168.65   1
  21 -11  -7 1481.03 921.535   1
  21 -11  -4 2130.84 1153.26   3
  11 -21  -4 3715.64 1218.03   1
  10  11  -4 3063.00 931.359   3
  21 -11  -4 1897.14 865.627   1
 -11 -10  -4 2655.10 834.357   1
  21 -11  -4 2090.38 793.874   4
  11 -21  -1 718.933 711.131   1
  21 -11  -1 1806.24 656.493   1
  11 -21  -1 987.122 341.907   4
 -11 -10  -1 1086.39 620.405   4
  11 -21  -1 654.275 456.875   2
  21 -11  -1 1148.37 656.411   3
  10  11  -1 2574.16 979.335   3
 -11 -10  -1 1340.50 696.344   2
 -10  21  -1 382.669 581.459   4
  21 -11  -1 886.144 428.382   4
 -11 -10  -1 954.836 492.291   1
 -11 -10   2 3068.32 925.019   4
  11 -21   2 3774.31 1133.51   2
  21 -11   2 2813.11 525.339   1
  21 -11   2 3434.98 1035.79   3
 -11 -10   2 4337.59 1186.34   2
  10  11   2 3987.26 1337.09   3
  11 -21   2 3312.69 858.846   3
 -21  10   2 4203.63 736.716   1
 -10  21   2 7365.36 924.368   4
  21 -11   2 2959.66 508.417   1
  11 -21   2 3542.70 829.961   4
  11 -21   5 2253.86 1217.61   2
  21 -11   5 831.242 649.361   3
 -11 -10   5-38.3831 768.515   2
  10  11   5-823.181 989.761   3
  21 -11   5 855.648 944.842   4
  11 -21   5 1035.85 647.662   4
 -11 -10   5 321.904 527.446   4
 -21  10   5 447.810 407.679   4
  11 -21   8 1825.59 1406.59   2
 -11 -10   8 2915.14 1224.95   2
  21 -11   8 4234.84 1490.28   3
  10  11   8 1939.81 1463.33   3
  21 -11   8 3853.54 2067.44   4
 -10  21   8 4853.70 1642.40   4
  21 -11   8 2095.12 1484.92   2
  11 -21   8 1819.77 1122.82   4
 -11 -10   8 3225.84 1345.71   4
 -21  10   8 718.215 623.886   4
  21 -10  -8 3416.93 1417.84   1
  21 -10  -8 3874.70 1438.76   3
  11  10  -8 3114.50 959.768   3
 -10 -11  -8 2520.56 1063.80   1
  10 -21  -8-1026.87 1140.98   1
  21 -10  -5 683.424 769.971   3
  11  10  -5 340.459 654.662   3
  10 -21  -5 207.738 858.640   1
 -10 -11  -5 172.055 632.817   1
  21 -10  -5 239.051 637.235   1
  10 -21  -2 2988.71 1254.06   1
  21 -10  -2 5147.04 1014.21   1
 -10 -11  -2 2514.35 650.168   1
  21 -10  -2 3376.61 1048.83   3
  11  10  -2 3507.99 1095.43   3
 -10 -11  -2 2350.47 893.751   2
  21 -10  -2 1619.26 605.613   4
  10 -21  -2 5202.69 790.437   2
 -10 -11   1 2176.27 717.843   4
  10 -21   1 1286.65 715.091   2
  21 -10   1 596.965 481.731   3
  11  10   1 1857.78 967.744   3
 -10 -11   1 1963.44 923.572   2
  10 -21   1 1709.15 776.405   3
  10 -21   1 559.276 585.099   1
 -11  21   1 697.113 474.901   4
  21 -10   1 801.673 294.047   1
  10 -21   1 1330.84 453.460   4
 -21  11   4 1369.77 436.313   4
  10 -21   4 3997.58 1350.33   2
  21 -10   4 847.867 403.438   1
  21 -10   4 3476.82 1175.49   3
 -10 -11   4 3240.87 1227.59   2
  11  10   4 4510.55 1401.27   3
  21 -10   4 1957.53 379.097   1
  10 -21   4 4355.49 1073.95   4
 -11  21   4 1146.23 489.297   4
 -10 -11   4 2369.79 874.281   4
  10 -21   7 2590.35 1413.24   2
 -10 -11   7 369.069 820.506   2
  21 -10   7 1084.37 784.569   3
  11  10   7 230.247 912.919   3
  21 -10   7-111.023 1089.70   4
 -11  21   7 1047.67 962.376   4
  21 -10   7 1154.61 1158.55   2
  10 -21   7 2202.88 1120.58   4
 -10 -11   7 1340.81 1003.58   4
 -21  11   7 662.910 474.766   4
  21  -9  -6 258.617 717.522   1
  21  -9  -6 1556.31 1019.42   3
  12   9  -6 1283.39 756.791   3
   9 -21  -6 1540.59 1107.79   1
  -9 -12  -6 1353.17 961.396   1
  21  -9  -3 2280.06 1026.18   3
   9 -21  -3 1311.02 823.195   1
  -9 -12  -3 2418.10 860.240   1
  12   9  -3 2603.84 1012.94   3
   9 -21  -3 1587.24 421.102   2
  21  -9  -3 1234.62 649.852   1
  21  -9  -3 1064.90 664.099   4
   9 -21   0 2703.13 657.587   4
  -9 -12   0 3847.82 1033.90   4
   9 -21   0 3661.25 1004.86   2
  21  -9   0 2813.40 771.592   3
  12   9   0 2676.18 1078.73   3
  -9 -12   0 3401.41 1142.02   2
  21  -9   0 2258.47 438.549   1
 -12  21   0 1082.94 615.413   4
  -9 -12   0 1445.02 592.397   1
   9 -21   0 324.088 539.510   1
  21  -9   0 1786.02 621.111   4
   9 -21   3 2152.01 371.601   3
   9 -21   3 4292.73 1248.09   2
  21  -9   3 5120.20 1320.27   3
  -9 -12   3 2407.95 949.871   2
   9 -21   3 2271.09 532.891   3
  12   9   3 933.035 871.190   3
 -12  21   3 1146.42 414.996   4
   9 -21   3 3549.97 956.983   4
  -9 -12   3 3352.12 952.262   4
   9 -21   6 3615.57 1478.75   2
  -9 -12   6 1377.71 1180.96   2
  21  -9   6 2376.81 1087.02   3
  12   9   6 2104.25 1012.43   3
 -12  21   6 2613.64 904.815   4
   9 -21   6 237.217 796.314   4
  -9 -12   6 2394.55 1069.03   4
 -21  12   6 2152.74 637.297   4
  21  -8  -7 193.473 746.982   3
  13   8  -7 447.950 587.073   3
  21  -8  -7-362.950 719.680   1
   8 -21  -7-736.731 1008.51   1
  -8 -13  -7 77.1217 789.471   1
  21  -8  -4 920.245 629.762   1
  21  -8  -4 2120.78 1034.31   3
  13   8  -4 1675.07 770.809   3
   8 -21  -4 1882.78 958.128   1
  -8 -13  -4 1686.35 877.270   1
   8 -21  -1 475.756 380.825   4
  21  -8  -1 914.622 367.004   1
  -8 -13  -1 2387.46 821.509   4
  21  -8  -1 1325.09 766.294   3
   8 -21  -1 2938.63 805.529   2
  13   8  -1 2380.36 1021.57   3
  -8 -13  -1 204.021 596.556   2
 -13  21  -1 1072.25 655.308   4
  -8 -13  -1 243.226 366.761   1
   8 -21  -1 2220.70 808.499   1
  -8 -13   2 7400.76 1495.85   2
   8 -21   2 5376.12 1189.26   2
  21  -8   2 5856.56 1316.64   3
  13   8   2 5525.64 1513.69   3
   8 -21   2 3732.98 807.193   3
 -13  21   2 3352.80 488.551   4
 -21  13   2 3295.27 777.975   1
   8 -21   2 6923.31 1154.36   4
  -8 -13   2 5493.49 1134.89   4
 -21  13   5 319.402 346.539   4
   8 -21   5-408.040 776.811   2
  -8 -13   5 696.619 787.924   2
  21  -8   5 940.768 758.942   3
  13   8   5 625.347 1030.50   3
 -13  21   5 748.672 461.404   4
   8 -21   5 626.372 518.815   4
  -8 -13   5 1884.21 959.036   4
   8 -21   8 3866.94 1622.68   2
  -8 -13   8 948.660 1044.70   2
  21  -8   8 1197.47 1136.22   3
  13   8   8 2450.11 1323.57   3
  21  -8   8 1163.63 1353.05   4
  21  -8   8 1155.83 1350.25   2
   8 -21   8 3271.55 1373.39   4
  -8 -13   8 2524.42 1353.42   4
 -21  13   8 1380.99 620.470   4
  -7 -14  -8 1421.07 991.942   1
  21  -7  -8 1320.29 1186.99   3
  14   7  -8 1852.11 783.673   3
  21  -7  -8 898.493 1064.45   1
   7 -21  -8 3142.30 1577.43   1
  21  -7  -5 620.635 694.222   3
  14   7  -5 1743.72 730.909   3
  21  -7  -5 1050.55 849.057   1
   7 -21  -5 76.0269 704.780   1
  -7 -14  -5-537.526 764.220   1
   7 -21  -2 2662.00 995.303   1
  -7 -14  -2 906.670 623.147   1
  21  -7  -2 3279.65 943.923   3
  14   7  -2 3278.59 1008.45   3
   7 -21  -2 1372.18 568.057   2
  21  -7  -2 2845.28 680.098   1
  -7 -14  -2 3925.64 1047.52   2
 -14  21  -2 3082.32 992.770   4
  -7 -14   1 1596.77 740.237   4
   7 -21   1 602.700 515.456   2
  21  -7   1 925.473 881.141   3
  14   7   1 178.215 695.743   3
  -7 -14   1 2405.31 1015.63   2
   7 -21   1 335.358 554.089   3
 -14  21   1 94.2696 231.239   4
   7 -21   1 1745.15 605.437   4
   7 -21   4 1858.01 1150.32   2
  -7 -14   4-263.687 693.880   2
  21  -7   4 1811.46 913.986   3
  14   7   4 733.552 937.880   3
   7 -21   4 3196.07 1013.88   4
  -7 -14   4 2275.98 929.317   4
   7 -21   7-374.723 926.512   2
  -7 -14   7 973.554 864.997   2
  21  -7   7 1000.47 766.162   3
  14   7   7 234.273 976.264   3
   7 -21   7 1520.70 954.136   4
  -7 -14   7 1571.94 943.038   4
 -21  14   7-81.4875 384.645   4
  21  -6  -6 891.022 857.070   3
  15   6  -6 842.112 771.878   3
   6 -21  -6-19.4400 754.784   1
  21  -6  -6 998.743 753.364   1
  -6 -15  -6 499.662 819.833   1
   6 -21  -3 541.671 734.938   1
  21  -6  -3 1258.58 738.890   3
  -6 -15  -3 960.077 578.681   1
  15   6  -3-620.738 698.891   3
   6 -21  -3 455.973 329.953   2
  21  -6  -3 577.252 601.728   1
   6 -21   0 1320.38 563.813   4
  -6 -15   0 757.056 543.038   4
  21  -6   0 896.220 814.584   3
   6 -21   0 789.901 678.839   2
  15   6   0 672.195 628.530   3
  -6 -15   0 584.692 676.312   2
  -6 -15   0 520.009 479.005   1
   6 -21   0 627.426 639.979   1
   6 -21   3 946.659 777.778   2
  -6 -15   3 823.049 531.008   3
   6 -21   3 928.191 290.592   3
  21  -6   3 1063.09 750.195   3
  -6 -15   3 1713.15 776.326   2
  15   6   3 2274.93 1181.26   3
   6 -21   3 1208.64 623.000   4
  -6 -15   3 1177.75 781.654   4
   6 -21   6 5744.88 1665.91   2
  -6 -15   6 5299.75 1616.54   2
  21  -6   6 6098.71 1676.74   3
  15   6   6 5934.86 1781.22   3
 -21  15   6 3598.31 541.102   4
   6 -21   6 4829.12 1291.12   4
  -6 -15   6 6839.21 1619.24   4
  21  -5  -7 169.434 880.344   3
  16   5  -7 465.437 714.722   3
   5 -21  -7-119.630 920.326   1
  -5 -16  -7-183.060 934.025   1
  21  -5  -7 726.022 847.886   1
  21  -5  -4 1898.80 857.631   3
  16   5  -4 685.451 573.747   3
   5 -21  -4 1049.78 950.058   1
  -5 -16  -4 385.065 580.627   1
  21  -5  -4 3402.37 945.193   1
   5 -21  -1 773.200 466.864   4
  -5 -16  -1 1760.83 850.387   4
  21  -5  -1-294.078 705.998   3
  16   5  -1 781.179 716.099   3
   5 -21  -1 326.343 492.400   2
  -5 -16  -1 2567.53 870.455   2
  -5 -16  -1 1664.44 651.939   1
   5 -21  -1 1275.93 797.444   1
   5 -21   2 2637.56 1070.45   2
  21  -5   2 1350.53 890.040   3
  -5 -16   2 3053.13 1147.18   2
   5 -21   2 1144.44 569.913   3
  16   5   2 730.229 804.687   3
   5 -21   2 451.748 453.388   4
  -5 -16   2-11.3896 448.687   4
   5 -21   5 1945.38 997.216   2
  -5 -16   5 639.239 863.121   2
  21  -5   5 245.635 745.033   3
  16   5   5-317.393 737.170   3
   5 -21   5 413.498 587.632   4
  -5 -16   5-548.598 747.308   4
   5 -21   8 606.932 1033.99   2
  -5 -16   8 992.353 1003.41   2
  21  -5   8 2280.17 1255.18   3
  16   5   8 1828.12 1232.52   3
   5 -21   8 3215.20 1411.56   4
  -5 -16   8 2435.22 1432.21   4
  21  -4  -8 1225.44 1053.95   3
  17   4  -8 1179.74 863.727   3
  21  -4  -8-1130.60 986.476   1
   4 -21  -8-173.318 1099.41   1
  -4 -17  -8-216.747 900.679   1
  21  -4  -5 2134.50 1095.77   3
  17   4  -5 881.005 809.791   3
  21  -4  -5 1723.70 865.129   1
   4 -21  -5 1086.22 987.433   1
  -4 -17  -5 49.9366 722.102   1
  -4 -17  -2-8.08002 506.534   1
   4 -21  -2 1796.62 938.071   1
  21  -4  -2 1260.92 910.006   3
  17   4  -2 959.442 772.343   3
   4 -21  -2 922.482 494.857   2
  -4 -17  -2 1612.37 747.007   2
  -4 -17   1 69.7811 452.301   4
   4 -21   1 1727.20 871.007   2
  21  -4   1 1137.40 892.451   3
  17   4   1-1108.28 739.583   3
  -4 -17   1-574.557 592.358   2
   4 -21   1-472.280 707.587   3
   4 -21   1 309.168 507.049   4
   4 -21   4 87.5192 851.057   2
  -4 -17   4-515.211 694.962   2
  21  -4   4-58.7132 858.580   3
  17   4   4 1246.72 753.165   3
   4 -21   4 340.268 576.081   4
  -4 -17   4 117.464 508.512   4
   4 -21   7 1242.76 957.915   2
  -4 -17   7 2355.65 1358.01   2
  21  -4   7 1215.99 1307.05   3
  17   4   7 85.5946 909.915   3
   4 -21   7 754.096 857.501   4
  -4 -17   7 940.658 725.384   4
  21  -3  -6 917.697 1014.23   3
  18   3  -6 2050.52 905.158   3
   3 -21  -6 1470.43 1145.48   1
  -3 -18  -6-1.75395 779.907   1
   3 -21  -3 64.6177 578.053   1
  -3 -18  -3-312.560 658.792   1
  21  -3  -3-979.907 801.662   3
  18   3  -3 1644.26 844.782   3
   3 -21  -3 614.275 565.507   2
  -3 -18  -3 1062.50 632.063   2
  -3 -18   0 7488.42 1336.55   2
  21  -3   0 6358.54 1379.45   3
   3 -21   0 5613.11 1205.28   2
  18   3   0 3479.61 1087.98   3
  -3 -18   0 8780.56 1427.53   1
   3 -21   0 7404.90 1469.09   1
   3 -21   0 6100.64 1140.63   4
  -3 -18   0 6692.25 1262.87   4
  -3 -18   3 771.690 495.492   3
   3 -21   3 1515.15 1015.80   2
   3 -21   3 95.2894 248.108   3
  -3 -18   3-90.7398 696.359   2
  21  -3   3 542.130 860.764   3
  18   3   3-47.0580 684.169   3
   3 -21   3 378.421 605.920   4
  -3 -18   3 1144.32 462.729   4
   3 -21   6 2377.47 1219.41   2
  -3 -18   6 5984.24 1699.31   2
  21  -3   6 3527.46 1235.73   3
  18   3   6 2465.85 1309.64   3
   3 -21   6 3684.43 1214.69   4
  -3 -18   6 2540.56 1174.89   4
  21  -2  -7 1032.19 946.345   1
  21  -2  -7 482.784 838.372   3
  19   2  -7 1268.12 879.205   3
   2 -21  -7 736.154 1310.22   1
  -2 -19  -7 343.997 863.791   1
  21  -2  -4 279.445 545.019   1
  21  -2  -4 147.168 580.305   3
  19   2  -4 406.059 773.959   3
   2 -21  -4 227.837 624.981   1
  -2 -19  -4-43.4953 705.963   1
   2 -21  -1 1742.01 716.785   4
  -2 -19  -1 641.985 745.332   4
  21  -2  -1 23.9599 642.217   3
  19   2  -1 1405.42 706.552   3
   2 -21  -1 1409.98 731.855   2
  -2 -19  -1 1091.48 569.413   2
  -2 -19  -1 640.563 752.405   1
   2 -21  -1 3126.98 1097.43   1
   2 -21   2 1080.30 841.751   2
   2 -21   2 272.243 469.604   3
  -2 -19   2 658.130 714.585   2
  21  -2   2 898.826 880.330   3
  19   2   2 417.619 643.956   3
   2 -21   2 960.366 495.182   4
  -2 -19   2 313.688 484.271   4
   2 -21   5 411.772 701.650   2
  -2 -19   5 1512.69 1053.42   2
  21  -2   5 3063.01 1357.68   3
  19   2   5-256.047 760.163   3
   2 -21   5 121.788 810.330   4
  -2 -19   5 2306.15 1136.39   4
   2 -21   8 1870.20 1462.96   2
  -2 -19   8-787.346 1075.29   2
  21  -2   8 683.734 1034.03   3
  19   2   8 2483.50 1545.13   3
   2 -21   8 588.817 904.257   4
  -2 -19   8 853.926 967.777   4
  21  -1  -5 1005.32 734.939   3
  20   1  -5 967.095 841.308   3
   1 -21  -5 384.160 689.126   1
  -1 -20  -5 1226.73 1061.21   1
  -1 -20  -2 972.065 747.804   1
  21  -1  -2 875.957 775.832   3
  20   1  -2-416.940 645.243   3
   1 -21  -2 636.930 509.582   2
  -1 -20  -2 960.181 647.356   2
   1 -21   1-155.112 484.932   4
  -1 -20   1 968.076 720.391   4
  21  -1   1 354.619 628.118   3
   1 -21   1 711.968 687.301   2
  20   1   1 1120.76 1006.38   3
  -1 -20   1 905.901 698.409   2
   1 -21   4 467.891 781.184   2
  -1 -20   4 623.639 948.778   2
  21  -1   4 1894.83 1126.24   3
  20   1   4-792.730 769.366   3
   1 -21   4-243.065 612.847   4
  -1 -20   4 905.521 684.842   4
   1 -21   7-161.613 1235.60   2
  -1 -20   7 1527.66 1262.16   2
  21  -1   7 30.0825 931.281   3
  20   1   7 685.684 1059.03   3
   1 -21   7-663.091 966.294   4
  -1 -20   7 312.017 799.865   4
  21   0  -6 3323.34 1238.54   3
   0 -21  -6 2893.80 1234.93   1
   0 -21  -3-541.255 711.558   1
  21   0  -3 518.477 657.376   3
   0 -21  -3-190.627 452.018   2
  21   0   0 4338.48 1532.24   3
   0 -21   0 3673.96 1067.32   2
   0 -21   0 5626.59 1343.69   1
   0 -21   0 7150.39 1319.15   4
   0 -21   3 1213.79 921.934   2
  21   0   3 1220.28 854.181   3
   0 -21   3 1016.98 681.967   4
   0 -21   6 5253.08 1743.34   2
  21   0   6 3258.39 1685.04   3
   0 -21   6 2252.52 1014.80   4
  22 -22  -4 838.534 914.348   1
  22 -22  -1 369.426 496.911   3
  22 -22  -1 1125.81 806.129   1
   0  22  -1 1188.99 937.297   3
  22 -22  -1 234.861 674.128   2
 -22   0   2 1763.73 806.654   4
  22 -22   2 235.239 392.743   3
   0  22   2-417.441 933.926   3
  22 -22   2 397.961 823.046   2
  22 -22   2 1018.14 497.561   4
  22 -22   2 502.173 606.668   1
 -22   0   5-670.657 645.383   4
  22 -22   5-510.090 538.359   3
 -22   0   5 2088.04 1174.12   2
   0  22   5-788.200 1206.24   3
  22 -22   5-834.971 998.796   4
  22 -22   5 1373.24 1331.60   2
  21 -22  -5 1977.45 1213.15   1
  22 -21  -5 474.479 911.481   1
  22 -21  -2 491.092 789.670   3
  21 -22  -2 2101.21 967.223   1
  22 -21  -2 1590.02 1122.98   1
   1  21  -2 407.807 686.237   3
  22 -21  -2 941.542 575.937   2
  21 -22  -2 793.456 653.685   2
  21 -22   1 240.942 573.830   1
 -21  -1   1 507.081 639.829   4
  22 -21   1 1002.74 648.281   1
  21 -22   1 1982.59 753.421   3
  22 -21   1-124.177 525.690   3
   1  21   1 832.907 1165.03   3
  -1  22   1 1112.93 1068.16   3
  22 -21   1 1128.78 822.130   2
  21 -22   1 389.877 636.857   2
  22 -21   1 360.052 274.615   4
  21 -22   1 624.805 237.163   4
 -21  -1   4 1762.69 1030.82   4
 -22   1   4 72.8837 550.744   4
  21 -22   4 275.845 461.903   3
  22 -21   4 79.9243 590.507   3
 -21  -1   4-100.088 816.600   2
   1  21   4 82.1777 1179.10   3
 -22   1   4 599.311 851.536   2
  -1  22   4 679.592 1144.96   3
  22 -21   4 1169.65 802.626   4
  21 -22   4 541.031 570.833   4
  22 -21   4-367.089 889.368   2
  21 -22   4 1282.96 1355.03   2
 -21  -1   7 741.407 923.779   2
 -22   1   7 136.857 862.169   2
   1  21   7 361.800 1356.64   3
  22 -21   7 1235.59 1128.74   4
  21 -22   7 392.823 878.933   4
  22 -21   7 314.804 1190.76   2
  21 -22   7 2257.72 1491.60   2
 -21  -1   7 1940.85 1057.43   4
 -22   1   7 178.775 757.944   4
  20 -22  -6 1230.93 1067.31   1
  22 -20  -6 522.905 819.434   1
  20 -22  -3 2561.96 1038.18   1
   2  20  -3 1336.65 708.356   3
  22 -20  -3 1578.34 1027.56   1
  22 -20  -3 2818.14 758.925   2
  20 -22  -3 830.204 455.727   2
  20 -22   0 1354.92 782.367   1
  20 -22   0 975.755 592.385   3
  22 -20   0 1203.70 736.572   3
  22 -20   0 1140.51 696.367   1
   2  20   0 1598.22 1142.63   3
  -2  22   0 2507.59 1293.93   3
  22 -20   0 1098.29 672.414   2
  20 -22   0 1666.24 867.435   2
 -20  -2   3 1649.48 727.899   4
 -22   2   3 3207.83 1046.40   4
  20 -22   3 1534.47 545.473   3
  22 -20   3 1323.74 684.774   3
   2  20   3 5488.10 1829.07   3
 -20  -2   3 4562.64 1371.76   2
  -2  22   3 2152.34 1396.03   3
  22 -20   3 3765.00 961.511   4
  22 -20   3 2224.16 1088.14   2
  20 -22   3 2438.98 887.569   1
  20 -22   3 3484.02 907.865   4
  22 -20   3 2081.83 740.594   1
  20 -22   3 2824.61 1376.45   2
  22 -20   6 344.351 618.489   3
 -20  -2   6 3004.93 1432.00   2
 -22   2   6 120.594 856.858   2
   2  20   6 3530.36 1948.30   3
  22 -20   6 4039.90 1473.76   4
  20 -22   6 3033.40 1297.99   4
  22 -20   6 2154.80 1401.60   2
  20 -22   6 4474.56 1856.37   2
 -20  -2   6 806.290 908.034   4
 -22   2   6 1054.32 659.413   4
  22 -19  -7 4009.68 1646.85   1
  19 -22  -7 322.793 1298.37   1
  19 -22  -4 1345.93 861.215   1
   3  19  -4-560.952 599.317   3
  22 -19  -4 1378.08 914.870   1
  22 -19  -1-256.664 518.304   3
  19 -22  -1 967.344 765.531   1
  22 -19  -1 457.804 633.290   1
   3  19  -1 620.378 782.976   3
  22 -19  -1 1148.33 667.402   2
  19 -22  -1-430.746 639.032   2
 -19  -3   2 1215.30 700.545   4
 -22   3   2 714.900 505.383   4
  19 -22   2 1079.55 564.498   3
 -19  -3   2 1529.36 798.767   1
 -22   3   2 69.2191 322.107   1
  22 -19   2 1137.51 685.734   3
   3  19   2-276.514 912.109   3
 -19  -3   2 804.730 655.748   2
  22 -19   2 1231.74 988.923   2
  22 -19   2 825.682 558.822   4
  19 -22   2 1187.11 826.286   1
  19 -22   2 1034.11 513.948   4
  19 -22   2-43.6402 634.886   2
  22 -19   2 259.432 425.155   1
 -22   3   5 199.630 520.767   4
  19 -22   5-15.5268 408.566   3
  22 -19   5 943.451 786.629   3
 -19  -3   5-456.787 802.241   2
   3  19   5 2050.40 1508.95   3
 -22   3   5-225.197 806.791   2
  22 -19   5 444.438 912.813   4
  22 -19   5 51.3118 878.488   2
  19 -22   5 858.202 817.382   4
  19 -22   5 989.672 943.551   2
 -19  -3   5 301.714 575.991   4
   4  18  -5 798.693 487.473   3
  22 -18  -5 514.515 755.259   1
  22 -18  -2 1147.26 701.146   3
  18 -22  -2 1272.89 802.599   1
   4  18  -2 1655.22 796.856   3
  22 -18  -2 1322.44 762.575   1
  18 -22  -2 1367.49 637.372   2
  22 -18   1 1167.57 390.363   4
 -18  -4   1 599.119 593.011   4
  22 -18   1 1242.22 642.207   1
  18 -22   1 1226.97 618.822   3
  22 -18   1 1955.58 748.582   3
 -18  -4   1 835.259 508.219   1
   4  18   1 774.438 920.421   3
 -18  -4   1 963.008 901.636   2
  22 -18   1-456.949 767.714   2
  22 -18   1 689.377 459.724   4
  18 -22   1 1051.61 818.697   2
  18 -22   1 1578.25 417.836   4
  18 -22   1 814.110 582.594   1
 -18  -4   4-163.528 632.703   4
 -22   4   4 1500.56 732.213   4
  18 -22   4 532.924 485.010   3
  22 -18   4 1067.12 684.593   3
 -18  -4   4-129.660 647.078   2
   4  18   4-690.149 1068.51   3
  22 -18   4 1609.19 962.022   4
  22 -18   4 709.239 886.017   2
  18 -22   4 117.943 493.550   4
  18 -22   4 519.831 809.072   2
  22 -18   7 191.980 634.235   3
 -18  -4   7 785.900 921.717   2
 -22   4   7-43.2150 830.491   2
   4  18   7 724.292 1487.83   3
  22 -18   7 726.797 1092.58   4
  18 -22   7 1637.26 1101.00   4
  22 -18   7 1130.66 1260.75   2
  18 -22   7 598.615 982.927   2
 -18  -4   7 225.572 729.740   4
 -22   4   7 97.7576 571.951   4
  22 -17  -6 829.851 1474.37   1
  17 -22  -6-132.561 801.751   1
 -17  -5  -6 907.628 613.595   1
  17 -22  -3 2546.04 519.285   2
  22 -17  -3 3481.84 1157.21   3
 -17  -5  -3 1775.78 428.043   1
  17 -22  -3 2047.82 975.258   1
   5  17  -3 2472.05 853.760   3
  22 -17  -3 1648.24 855.313   1
  17 -22   0 582.278 613.103   1
  17 -22   0 79.8665 97.7568   4
 -17  -5   0 471.878 485.505   4
 -17  -5   0 1706.60 590.633   1
  22 -17   0 1376.69 588.210   3
  22 -17   0 487.450 463.495   1
   5  17   0 144.875 663.751   3
  22 -17   0 224.882 243.333   4
 -17  -5   0 333.165 236.539   1
  17 -22   0 1476.76 809.712   2
  22 -17   0 273.427 237.395   4
 -17  -5   3 1534.80 716.096   4
 -22   5   3 1813.62 733.038   4
  17 -22   3 1223.47 506.941   3
 -22   5   3 781.409 552.105   1
  22 -17   3 2026.94 736.640   3
 -17  -5   3 3279.93 1267.71   2
   5  17   3 732.397 1017.62   3
  22 -17   3 1976.19 892.284   4
  22 -17   3 1830.82 981.627   2
  17 -22   3 480.925 394.225   4
  22 -17   3 1931.30 648.413   1
  17 -22   3 701.534 967.332   2
  -5  22   3 1234.52 878.553   2
  22 -17   6 1476.23 901.485   3
 -17  -5   6 94.1733 899.055   2
   5  17   6-268.568 1294.47   3
 -22   5   6-229.331 810.487   2
  22 -17   6 248.429 885.968   4
  22 -17   6 1476.91 1153.93   2
  17 -22   6 1354.17 955.031   4
  17 -22   6 2346.19 1380.92   2
 -17  -5   6 219.032 720.354   4
 -22   5   6 480.544 530.705   4
  22 -16  -7-1379.48 1103.29   1
  16 -22  -7 1805.85 1281.15   1
 -16  -6  -7 387.037 635.221   1
  22 -16  -4 2083.91 1030.18   3
 -16  -6  -4 1038.59 549.912   1
  16 -22  -4 2059.07 1043.91   1
   6  16  -4 1230.82 784.060   3
  22 -16  -4 1895.06 1002.68   1
  16 -22  -1 1818.96 814.451   1
 -16  -6  -1 2226.50 462.989   1
  22 -16  -1 3396.18 1056.74   3
 -16  -6  -1 1348.26 476.398   1
   6  16  -1 3916.29 1154.95   3
  22 -16  -1 1864.18 834.739   1
  22 -16  -1 1611.41 267.015   4
  22 -16  -1 777.316 226.587   4
  16 -22  -1 2488.68 790.792   2
 -16  -6   2 1046.17 770.546   1
 -16  -6   2 630.299 524.090   4
 -22   6   2 1096.87 420.860   1
  22 -16   2 1479.11 611.260   1
  22 -16   2 785.338 538.780   4
 -22   6   2 1395.90 569.133   4
  16 -22   2 1720.12 600.636   3
  22 -16   2 1197.29 658.853   3
   6  16   2 3457.07 1278.29   3
 -16  -6   2 768.868 769.993   2
  22 -16   2 1054.11 658.412   4
  16 -22   2 695.792 681.121   1
  -6  22   2 217.917 723.585   2
  16 -22   2 1009.39 498.491   4
  16 -22   2 905.477 820.752   2
 -22   6   5 132.616 488.878   4
  22 -16   5 1763.36 945.615   3
  16 -22   5 472.902 363.819   3
 -16  -6   5 604.893 1003.66   2
   6  16   5 2616.45 1549.73   3
  22 -16   5-360.797 995.733   4
  22 -16   5 852.437 1139.34   2
  16 -22   5 819.833 632.243   4
  16 -22   5 2635.71 1465.05   2
 -16  -6   5 571.271 690.097   4
 -16  -6   8 376.420 978.925   2
  22 -16   8-70.9755 732.522   3
 -22   6   8 182.093 1140.20   2
   6  16   8-1405.50 1217.39   3
  22 -16   8 1233.39 1392.13   4
  22 -16   8-567.937 1306.51   2
  16 -22   8 685.452 935.073   4
 -16  -6   8 134.986 757.179   4
 -22   6   8 181.456 622.621   4
  16 -22   8 766.399 1401.39   2
  22 -15  -8-357.397 1059.12   1
 -15  -7  -8 648.410 981.058   1
  15 -22  -8 1746.67 1432.12   1
  22 -15  -5 93.5584 653.602   3
  22 -15  -5 651.516 768.955   1
 -15  -7  -5 450.250 625.207   1
   7  15  -5 332.517 590.601   3
  15 -22  -5 793.565 910.207   1
  15 -22  -2 2194.83 604.726   2
  22 -15  -2 2275.34 942.472   3
  15 -22  -2 1951.26 1015.69   1
 -15  -7  -2 1253.26 488.561   1
   7  15  -2 931.180 692.811   3
  22 -15  -2 2830.87 956.093   1
  22 -15  -2 1035.33 250.505   4
  22 -15   1 2282.47 562.516   4
 -15  -7   1 1550.46 552.155   4
  22 -15   1 2311.91 872.285   3
  22 -15   1 2011.36 703.613   1
   7  15   1 978.899 952.914   3
 -15  -7   1 1749.72 993.073   2
 -15  -7   1 366.474 547.489   1
  22 -15   1 1590.04 653.270   4
  15 -22   1 780.724 519.087   1
  15 -22   1 1019.31 380.757   4
  15 -22   1 2743.92 979.956   2
 -22   7   4 476.050 481.252   4
  15 -22   4 88.5720 352.305   3
  22 -15   4-459.385 519.362   3
 -15  -7   4-1542.51 822.885   2
   7  15   4 634.970 1289.29   3
  22 -15   4 1753.78 1067.91   4
  22 -15   4 866.919 779.389   2
  15 -22   4 1770.94 804.270   4
  15 -22   4 1944.43 1185.47   2
 -15  -7   4-443.956 578.063   4
 -15  -7   7 39.4505 814.627   2
  22 -15   7 454.798 829.470   3
   7  15   7 1223.56 1679.63   3
 -22   7   7 1337.69 929.629   2
  22 -15   7 2161.04 1340.16   4
  22 -15   7 4268.70 1799.24   2
  15 -22   7 1945.71 1027.56   4
 -15  -7   7 1329.45 894.704   4
 -22   7   7 935.768 670.244   4
  15 -22   7 1724.03 1211.74   2
  22 -14  -6 619.065 710.657   3
 -14  -8  -6 605.598 707.112   1
   8  14  -6 683.450 629.952   3
  22 -14  -6-695.701 904.042   1
  14 -22  -6 1308.91 1125.77   1
  22 -14  -3 2524.55 934.240   1
  22 -14  -3 3711.39 1071.84   3
  14 -22  -3 859.110 811.789   1
  14 -22  -3 1236.80 309.964   2
   8  14  -3 2786.48 820.071   3
 -14  -8  -3 2070.30 684.181   1
  22 -14  -3 1723.34 447.479   4
  14 -22   0 77.6616 254.767   4
  14 -22   0-535.305 657.485   2
 -14  -8   0-494.189 658.271   4
  22 -14   0 132.156 518.870   3
   8  14   0 551.864 804.935   3
  22 -14   0-218.560 437.496   1
 -14  -8   0-283.916 521.749   2
 -14  -8   0 167.548 306.069   1
 -14  -8   0 840.919 550.365   1
  14 -22   0 573.742 654.141   1
  22 -14   0-112.354 309.272   4
 -22   8   3 828.485 484.121   4
 -22   8   3 1475.80 637.779   1
  14 -22   3 1249.90 471.305   3
  22 -14   3 1171.60 651.180   3
  22 -14   3 1036.86 572.012   1
 -14  -8   3 2275.24 1033.96   2
   8  14   3 2289.05 1096.19   3
  14 -22   3 1464.94 709.437   3
  22 -14   3 1907.30 1132.37   4
  -8  22   3 1345.44 619.413   2
  14 -22   3 2090.80 674.489   4
  -8  22   3 1256.85 672.864   4
  22 -14   3 1225.13 478.110   1
  14 -22   3 1291.07 817.287   2
 -14  -8   3 1729.97 780.564   4
  22 -14   6 769.943 925.595   3
 -14  -8   6 1216.15 1136.67   2
   8  14   6-2273.72 1447.14   3
  22 -14   6 968.892 1172.64   4
  22 -14   6-613.706 1222.13   2
  14 -22   6-1269.61 823.019   4
 -14  -8   6 925.734 728.436   4
 -22   8   6 559.506 619.303   4
  14 -22   6 538.176 1062.89   2
  22 -13  -7 593.052 777.601   3
   9  13  -7-376.247 614.459   3
 -13  -9  -7 1158.25 896.024   1
  22 -13  -7 285.176 1018.25   1
  13 -22  -7 1574.10 1061.94   1
  22 -13  -4 2917.36 1037.74   3
  22 -13  -4 1888.62 942.996   1
  13 -22  -4 1331.50 959.078   1
   9  13  -4 1240.86 724.946   3
 -13  -9  -4 1483.93 668.472   1
 -13  -9  -1 990.635 452.758   1
  13 -22  -1 1569.03 800.649   1
 -13  -9  -1 265.024 494.788   4
  13 -22  -1 1117.16 577.140   2
  22 -13  -1 1240.89 800.527   3
   9  13  -1 1298.82 796.473   3
 -13  -9  -1 254.772 561.241   2
  22 -13  -1 950.667 565.381   1
  22 -13  -1 504.972 425.350   4
 -13  -9   2 289.598 498.453   4
  13 -22   2 210.648 682.574   2
  22 -13   2 293.107 351.211   1
  22 -13   2 588.166 529.903   3
   9  13   2 516.543 1017.51   3
 -13  -9   2 1045.17 807.616   2
  13 -22   2-5.56671 539.880   3
  -9  22   2-133.563 646.607   2
  22 -13   2 359.867 429.868   1
  -9  22   2 650.215 447.884   4
 -22   9   2-131.676 341.171   1
  13 -22   2-221.650 460.749   4
 -22   9   5 1637.63 599.371   4
  13 -22   5 841.747 1032.32   2
  22 -13   5 2034.81 1080.10   3
 -13  -9   5 453.906 1013.99   2
   9  13   5 2029.25 1184.28   3
  22 -13   5 4507.16 1622.86   4
  13 -22   5 2015.02 852.332   4
 -13  -9   5 2306.10 964.186   4
  13 -22   8 865.431 1294.49   2
 -13  -9   8 1947.35 1380.31   2
  22 -13   8 339.799 782.389   3
   9  13   8-133.007 1185.16   3
  -9  22   8 2067.49 1346.88   4
  22 -13   8 1633.48 1462.00   4
  22 -13   8 1561.18 1591.22   2
  13 -22   8 1731.23 1343.39   4
 -13  -9   8 653.012 922.187   4
 -22   9   8 788.672 669.802   4
  22 -12  -8 2160.80 1230.02   3
 -12 -10  -8 2168.30 1176.97   1
  12 -22  -8-30.8181 981.490   1
  22 -12  -8 1662.12 1352.72   1
  22 -12  -5 937.933 921.954   3
  10  12  -5 3409.91 1009.67   3
  12 -22  -5 1421.32 1018.00   1
  22 -12  -5 1086.78 943.640   1
 -12 -10  -5 315.158 630.573   1
  12 -22  -2 1356.03 847.049   1
  22 -12  -2 1896.74 685.646   1
  22 -12  -2 3059.68 986.427   3
 -12 -10  -2 1503.66 583.772   1
  12 -22  -2 1910.24 610.865   2
  10  12  -2 2863.11 1086.79   3
  22 -12  -2 1463.33 572.375   4
  22 -12   1 2123.89 596.643   4
 -12 -10   1 1589.82 621.601   4
  12 -22   1 3966.16 1153.35   2
  22 -12   1 3053.66 798.686   3
  10  12   1 2560.27 1138.27   3
 -12 -10   1 4080.08 1160.42   2
  22 -12   1 2039.35 511.084   1
  12 -22   1 1114.73 771.931   3
 -10  22   1 2052.27 871.840   2
 -10  22   1 2200.01 762.124   4
  12 -22   1 4574.90 1137.43   1
  12 -22   1 2219.23 673.123   4
  12 -22   4 983.501 943.971   2
 -22  10   4 1780.59 560.562   4
  12 -22   4 726.741 229.389   3
  22 -12   4 2095.61 925.609   3
 -12 -10   4 1096.39 767.152   2
  10  12   4 3448.49 1537.96   3
  22 -12   4 1667.54 512.833   1
  12 -22   4 2194.88 838.883   4
 -10  22   4-67.4766 437.608   4
 -12 -10   4 1779.83 885.071   4
  12 -22   7 2287.55 1330.61   2
 -12 -10   7 3692.14 1671.84   2
  22 -12   7 2290.37 1136.14   3
  10  12   7 1035.64 1260.97   3
 -10  22   7 3431.82 1277.66   4
  22 -12   7 2005.76 1317.33   4
  22 -12   7 5038.48 1855.15   2
  12 -22   7 3118.99 1404.03   4
 -12 -10   7 620.445 690.378   4
 -22  10   7 2819.15 800.409   4
  22 -11  -6 2056.57 1109.49   3
  11  11  -6 378.209 744.527   3
  11 -22  -6-1587.67 1079.21   1
  22 -11  -6 526.492 739.706   1
 -11 -11  -6 791.975 805.604   1
  22 -11  -3 2350.37 997.075   3
  11 -22  -3 3674.94 1258.86   1
 -11 -11  -3 1647.09 666.158   1
  11  11  -3 951.767 761.246   3
  11 -22  -3 1830.12 389.062   2
  22 -11  -3 3438.61 1001.37   1
  22 -11  -3 2179.42 715.298   4
  11 -22   0 926.486 434.654   4
  22 -11   0 216.718 289.700   1
 -11 -11   0 353.943 487.105   4
  11 -22   0 851.807 569.648   2
  22 -11   0 1939.29 894.785   3
  11  11   0 1361.14 940.729   3
 -11 -11   0 488.211 636.466   2
 -11  22   0 1260.33 665.820   4
 -11 -11   0 1208.13 546.121   1
  11 -22   0 813.486 620.899   1
  22 -11   0 837.160 497.436   4
  11 -22   3 2303.24 430.030   3
  22 -11   3 2045.67 385.497   1
  22 -11   3 2583.02 925.898   3
 -11 -11   3 2554.30 1126.67   2
  11  11   3 1809.97 912.670   3
  11 -22   3 3430.40 723.973   3
  22 -11   3 1120.07 360.443   1
 -11  22   3 1616.12 560.712   4
  11 -22   3 1993.63 703.428   4
 -11 -11   3 3831.59 1083.54   4
  11 -22   6 1090.94 1066.86   2
 -11 -11   6 462.439 765.996   2
  22 -11   6 140.185 741.203   3
  11  11   6-233.277 1059.40   3
  22 -11   6-1270.55 1220.80   4
 -11  22   6 742.029 795.412   4
  11 -22   6 64.9703 580.069   4
 -11 -11   6 1404.16 934.858   4
 -22  11   6 21.9715 381.009   4
 -10 -12  -7-280.781 774.182   1
  22 -10  -7 2451.22 1429.02   1
  22 -10  -7 3233.60 1261.63   3
  12  10  -7 3117.24 1013.27   3
  10 -22  -7 581.908 1047.48   1
  22 -10  -4 1920.91 953.664   3
  10 -22  -4 1131.46 932.333   1
  12  10  -4 2296.89 954.061   3
 -10 -12  -4 756.359 742.028   1
  22 -10  -4 2252.20 899.948   1
  10 -22  -1 2701.47 988.994   1
  10 -22  -1 1890.09 543.114   4
 -10 -12  -1 2438.83 940.134   4
  22 -10  -1 2614.43 892.464   3
  10 -22  -1 1852.47 617.303   2
  12  10  -1 2426.76 1080.88   3
  22 -10  -1 2435.32 567.261   1
 -10 -12  -1 2577.09 958.787   2
 -12  22  -1 1995.61 864.715   4
  22 -10  -1 2034.05 681.532   4
 -10 -12  -1 2413.30 670.370   1
 -10 -12   2 4820.86 1155.94   4
  10 -22   2 3294.64 1100.99   2
  22 -10   2 4216.06 1168.81   3
 -10 -12   2 2667.17 1168.33   2
  12  10   2 2726.56 1158.67   3
  10 -22   2 3084.62 832.962   3
 -22  12   2 1154.52 517.790   1
 -12  22   2 991.564 412.228   4
  10 -22   2 2385.86 742.393   4
 -22  12   5 2148.43 590.025   4
  10 -22   5 2888.66 1329.56   2
 -10 -12   5 2559.66 1281.61   2
  22 -10   5 2423.18 865.413   3
  12  10   5 2006.70 1281.54   3
 -12  22   5 1440.63 728.109   4
  10 -22   5 2206.66 882.598   4
 -10 -12   5 737.003 591.890   4
  10 -22   8 1968.84 1492.33   2
 -10 -12   8 757.510 1031.63   2
  22 -10   8 585.304 986.428   3
  12  10   8 4380.10 2163.59   3
  22 -10   8 1664.17 1720.51   4
  22 -10   8 3844.39 1626.24   2
  10 -22   8 89.0398 729.295   4
 -10 -12   8 2148.25 1169.02   4
 -22  12   8 1027.79 589.625   4
  22  -9  -8 571.908 800.810   3
  -9 -13  -8 976.413 1101.22   1
  13   9  -8 1009.23 723.640   3
  22  -9  -8 1106.82 916.097   1
   9 -22  -8 1317.50 1240.10   1
  22  -9  -5 167.592 685.013   3
  13   9  -5 2770.52 1059.92   3
   9 -22  -5 354.092 668.699   1
  -9 -13  -5 1372.45 871.502   1
   9 -22  -2-527.236 612.426   1
  -9 -13  -2 311.410 548.183   1
  22  -9  -2 324.586 580.769   3
   9 -22  -2 932.761 526.567   2
  13   9  -2-1012.23 888.272   3
  -9 -13  -2 289.437 540.631   2
 -13  22  -2-1333.94 932.925   4
  22  -9  -2 1196.02 558.401   1
  22  -9  -2 253.806 506.369   4
  -9 -13   1 301.003 556.216   4
   9 -22   1 1171.64 806.885   2
  22  -9   1 2111.39 996.854   3
  13   9   1 568.743 925.680   3
  -9 -13   1 951.873 713.815   2
   9 -22   1 1036.17 641.412   3
 -13  22   1 1396.15 524.598   4
   9 -22   1 929.135 614.806   1
   9 -22   1 2085.60 678.822   4
   9 -22   4 2030.67 1001.71   2
  22  -9   4 1719.72 909.711   3
  -9 -13   4 1707.46 1113.13   2
  13   9   4 669.398 993.355   3
 -13  22   4 1659.01 523.555   4
 -13  22   4 976.033 326.629   4
   9 -22   4 2010.76 829.180   4
  -9 -13   4-142.491 479.555   4
   9 -22   7 584.295 993.340   2
  -9 -13   7 444.034 1071.60   2
  22  -9   7 1136.34 1222.09   3
  13   9   7 927.715 1208.21   3
  22  -9   7 1480.40 1551.70   4
   9 -22   7 1787.70 1087.38   4
  -9 -13   7 531.102 743.209   4
 -22  13   7 499.211 479.750   4
  22  -8  -6 140.377 672.244   3
  14   8  -6 468.041 591.381   3
  22  -8  -6 1734.74 942.256   1
   8 -22  -6-650.490 826.397   1
  -8 -14  -6 1845.52 1115.34   1
  22  -8  -3 2601.11 823.702   1
   8 -22  -3-92.2057 534.029   1
  22  -8  -3 1441.67 845.396   3
  -8 -14  -3 1588.05 761.250   1
  14   8  -3 1520.53 847.207   3
   8 -22  -3 920.134 419.335   2
   8 -22   0 115.142 453.374   4
  -8 -14   0 246.555 574.066   4
   8 -22   0 889.210 720.733   2
  22  -8   0 335.591 594.332   3
  14   8   0-668.592 835.612   3
  -8 -14   0-299.568 531.802   2
 -14  22   0 279.902 464.664   4
  -8 -14   0 1090.99 404.572   1
   8 -22   0 798.853 641.947   1
   8 -22   3 762.583 785.714   2
  22  -8   3 1710.05 940.993   3
   8 -22   3 1574.62 450.382   3
  -8 -14   3 2549.29 1130.93   2
  14   8   3 7.53422 802.579   3
   8 -22   3 1515.18 668.153   4
  -8 -14   3 2299.56 879.589   4
 -22  14   6 696.801 423.913   4
   8 -22   6-289.021 1076.81   2
  -8 -14   6 256.817 791.803   2
  22  -8   6 271.456 879.306   3
  14   8   6 628.834 1035.36   3
   8 -22   6 2272.15 994.655   4
  -8 -14   6 1216.24 820.034   4
  22  -7  -7 1731.18 1030.48   3
  15   7  -7 2686.67 949.672   3
  22  -7  -7 1218.17 1033.17   1
   7 -22  -7 1118.53 1291.66   1
  -7 -15  -7 262.761 941.474   1
  22  -7  -4-773.872 726.740   3
   7 -22  -4-705.950 872.039   1
  15   7  -4 553.335 515.018   3
  -7 -15  -4 1056.90 708.181   1
  22  -7  -4 787.707 740.595   1
   7 -22  -1 844.491 489.899   4
  -7 -15  -1 1321.02 644.445   4
  22  -7  -1 3210.78 1068.83   3
   7 -22  -1 1475.67 618.294   2
  15   7  -1 3144.22 1153.71   3
  -7 -15  -1 3647.26 1187.18   2
  22  -7  -1 1884.12 373.379   1
 -15  22  -1 531.609 537.244   4
  -7 -15  -1 846.888 382.026   1
   7 -22  -1 1241.80 899.219   1
   7 -22   2 2154.11 939.885   2
  22  -7   2 2880.18 1041.59   3
  -7 -15   2 2925.70 1101.73   2
   7 -22   2 1050.13 584.614   3
  15   7   2 2015.11 989.729   3
   7 -22   2 1968.33 666.285   4
  -7 -15   2 2348.93 871.594   4
   7 -22   5 2556.46 1223.28   2
  -7 -15   5 1303.40 1074.11   2
  22  -7   5 2009.77 1246.12   3
  15   7   5 783.817 842.531   3
   7 -22   5-398.572 605.691   4
  -7 -15   5 185.313 558.125   4
   7 -22   8 2362.72 1509.99   2
  -7 -15   8 343.116 988.429   2
  22  -7   8 544.797 924.621   3
  15   7   8 1088.85 1384.75   3
  22  -7   8-322.566 1137.49   4
   7 -22   8 2047.54 1290.21   4
  -7 -15   8 1056.06 1087.26   4
  -6 -16  -8-622.073 1089.64   1
  22  -6  -8 1311.01 990.262   3
  16   6  -8 328.418 716.419   3
   6 -22  -8 1955.96 1501.12   1
  22  -6  -8 523.996 977.369   1
  22  -6  -5 747.302 673.055   3
  16   6  -5 853.530 744.540   3
   6 -22  -5 708.989 701.234   1
  -6 -16  -5-280.385 675.946   1
  22  -6  -5 791.534 776.289   1
  -6 -16  -2-518.824 525.892   1
   6 -22  -2 1941.02 1046.89   1
  22  -6  -2 3331.76 1025.15   3
  16   6  -2 771.299 737.773   3
   6 -22  -2 1536.50 612.203   2
  22  -6  -2 1543.14 501.114   1
  -6 -16  -2 675.577 666.631   2
  -6 -16   1 2970.66 911.525   4
   6 -22   1 3762.15 1198.26   2
  22  -6   1 1681.12 823.012   3
  16   6   1 3111.32 1141.60   3
  -6 -16   1 1476.89 752.002   2
   6 -22   1 2942.91 937.313   3
   6 -22   1 2167.09 922.585   1
   6 -22   1 5176.75 1056.44   4
   6 -22   4 2244.60 1207.44   2
  -6 -16   4 33.2881 793.134   2
  22  -6   4 2315.37 983.582   3
  16   6   4 347.462 827.655   3
   6 -22   4 1926.43 862.195   4
  -6 -16   4 866.089 551.377   4
   6 -22   7 2891.03 1425.57   2
  -6 -16   7 798.979 1007.90   2
  22  -6   7-555.568 863.882   3
  16   6   7 314.160 1369.57   3
   6 -22   7-255.188 771.773   4
  -6 -16   7-569.535 743.652   4
  22  -5  -6 2192.78 1025.82   1
  22  -5  -6 886.701 856.715   3
  17   5  -6 1505.06 867.088   3
   5 -22  -6 372.776 774.525   1
  -5 -17  -6 769.771 831.349   1
   5 -22  -3 1896.46 882.055   1
  -5 -17  -3 924.634 646.186   1
  22  -5  -3 895.537 777.368   3
  17   5  -3 840.333 688.702   3
   5 -22  -3 1826.00 668.436   2
  -5 -17  -3 1074.75 651.942   2
  22  -5  -3 1301.41 637.494   1
   5 -22   0-261.738 388.074   4
  -5 -17   0 395.925 602.843   4
  22  -5   0-257.264 543.195   3
   5 -22   0 1516.74 811.689   2
  17   5   0-240.347 582.348   3
  -5 -17   0 871.635 826.361   2
  -5 -17   0-158.168 441.456   1
   5 -22   0 743.010 811.401   1
   5 -22   3 3469.51 1283.58   2
  22  -5   3 4671.53 1397.90   3
  -5 -17   3 4398.01 1256.27   2
  17   5   3 1975.87 1095.33   3
   5 -22   3 3709.66 949.110   4
  -5 -17   3 3813.92 1067.44   4
   5 -22   6-298.936 772.619   2
  -5 -17   6 377.320 937.081   2
  22  -5   6 2353.71 1502.15   3
  17   5   6-576.905 1003.32   3
   5 -22   6 701.966 881.952   4
  -5 -17   6 512.774 760.121   4
  22  -4  -7 937.051 960.911   3
  18   4  -7 1270.33 764.739   3
  22  -4  -7 2175.69 1206.37   1
   4 -22  -7 140.222 1015.34   1
  -4 -18  -7-32.0166 847.537   1
  22  -4  -4 663.093 760.696   3
  18   4  -4-285.170 666.494   3
   4 -22  -4 388.623 865.677   1
  -4 -18  -4 521.851 551.449   1
  22  -4  -4-23.1895 525.231   1
   4 -22  -1 4094.85 958.292   4
  -4 -18  -1 2008.10 865.736   4
  22  -4  -1 4150.76 1209.30   3
  18   4  -1 1119.01 608.786   3
   4 -22  -1 2082.84 751.958   2
  -4 -18  -1 1651.32 837.980   2
  -4 -18  -1 2281.90 875.983   1
   4 -22  -1 1742.92 1016.33   1
   4 -22   2 2063.20 1003.45   2
  22  -4   2 1428.97 800.404   3
   4 -22   2 1896.41 720.830   3
  -4 -18   2 2968.33 1246.39   2
  18   4   2 919.622 959.162   3
   4 -22   2 1576.01 714.059   4
  -4 -18   2 914.965 555.567   4
   4 -22   5 2563.69 1266.82   2
  -4 -18   5 533.110 913.263   2
  22  -4   5 943.721 987.640   3
  18   4   5 694.630 846.231   3
   4 -22   5 1378.71 748.487   4
  -4 -18   5 1413.62 865.842   4
  22  -3  -5 1334.04 801.848   3
  19   3  -5-125.179 643.713   3
  22  -3  -5 265.719 643.955   1
   3 -22  -5 453.918 866.376   1
  -3 -19  -5 639.415 680.335   1
  -3 -19  -2 828.427 723.713   1
   3 -22  -2 1288.27 734.917   1
  22  -3  -2-126.181 669.822   3
  19   3  -2-436.169 632.243   3
   3 -22  -2 433.444 560.487   2
  -3 -19  -2 300.259 470.363   2
   3 -22   1-594.375 575.545   4
  -3 -19   1 91.1047 582.869   4
   3 -22   1-417.407 613.746   2
  22  -3   1-360.179 605.671   3
  19   3   1 1006.88 924.908   3
  -3 -19   1 1734.06 979.812   2
   3 -22   4-295.846 713.332   2
  -3 -19   4 985.479 729.643   2
  22  -3   4-962.873 1114.32   3
  19   3   4 358.169 983.881   3
   3 -22   4 1278.01 816.800   4
  -3 -19   4 1797.08 867.681   4
   3 -22   7 3376.88 1613.68   2
  -3 -19   7 686.681 1007.45   2
  22  -3   7-1488.22 1344.10   3
  19   3   7-142.228 1012.97   3
   3 -22   7-130.481 883.257   4
  -3 -19   7 101.056 770.750   4
  22  -2  -6 2455.72 1157.37   3
  20   2  -6 689.004 886.915   3
   2 -22  -6 2432.18 1194.19   1
  -2 -20  -6 257.012 762.939   1
  22  -2  -6 1836.08 1002.07   1
   2 -22  -3 4501.90 1455.32   1
  -2 -20  -3 3319.11 1164.39   1
  22  -2  -3 3129.76 1113.65   3
  20   2  -3 2531.04 978.972   3
   2 -22  -3 2241.07 686.721   2
  -2 -20  -3 2349.52 827.452   2
   2 -22   0 1544.86 813.542   4
  -2 -20   0 996.497 710.098   4
  22  -2   0-309.227 652.206   3
  20   2   0 733.431 791.722   3
   2 -22   0-112.833 720.782   2
  -2 -20   0 2720.63 956.545   2
  -2 -20   0 582.798 614.096   1
   2 -22   0 1941.45 967.396   1
   2 -22   3 4787.25 1471.61   2
  -2 -20   3 3184.43 1245.38   2
  22  -2   3 2964.17 1449.84   3
  20   2   3 2316.79 1150.43   3
   2 -22   3 4327.01 1063.62   4
  -2 -20   3 1771.40 741.677   4
   2 -22   6 2004.71 1219.83   2
  -2 -20   6 2119.72 1164.55   2
  22  -2   6 1403.71 1169.32   3
  20   2   6 1211.36 953.270   3
   2 -22   6 1833.68 1044.93   4
  -2 -20   6 1819.03 1028.94   4
  22  -1  -7 1223.95 842.725   3
  21   1  -7 1362.01 1033.34   3
   1 -22  -7 1236.67 1409.73   1
  -1 -21  -7-407.459 963.417   1
  22  -1  -7-176.928 909.496   1
  22  -1  -4-190.603 665.394   3
  21   1  -4 1884.93 963.712   3
   1 -22  -4-713.856 842.767   1
  -1 -21  -4 866.759 797.689   1
   1 -22  -1 1317.20 825.061   4
  -1 -21  -1-105.230 642.681   4
  22  -1  -1-152.033 666.568   3
  21   1  -1 203.612 693.978   3
   1 -22  -1 2072.72 851.284   2
  -1 -21  -1 402.141 511.958   2
  -1 -21  -1 427.007 824.686   1
   1 -22  -1 358.475 773.877   1
   1 -22   2 2213.23 1033.77   2
  -1 -21   2 1451.84 863.992   2
  22  -1   2 1193.03 853.090   3
  21   1   2-613.145 902.410   3
   1 -22   2-252.297 519.280   4
  -1 -21   2-77.2550 498.045   4
   1 -22   5 1362.58 935.414   2
  -1 -21   5 1313.25 1141.23   2
  22  -1   5 760.041 1270.68   3
  21   1   5 1004.22 1192.89   3
   1 -22   5 33.8033 822.692   4
  -1 -21   5 1740.86 966.493   4
  22   0  -5 682.615 785.888   3
   0 -22  -5 74.3653 723.203   1
   0 -22  -2 829.508 961.276   1
  22   0  -2 142.608 758.364   3
   0 -22  -2 540.062 576.226   2
   0 -22   1-392.513 551.245   4
  22   0   1 671.766 830.115   3
   0 -22   1-164.595 640.309   2
   0 -22   1 523.730 885.991   1
   0 -22   4 439.376 774.431   2
  22   0   4-56.7098 737.665   3
   0 -22   4-127.286 560.749   4
  23 -23  -5 664.836 988.119   1
  23 -23  -2 2311.15 878.879   3
  23 -23  -2 2086.89 1059.36   1
   0  23  -2 2600.77 1127.20   3
  23 -23  -2 2059.71 774.041   2
  23 -23   1-51.1175 521.736   1
  23 -23   1-354.360 455.872   3
   0  23   1 1258.53 1073.90   3
  23 -23   1 428.979 750.122   2
 -23   0   4 546.793 879.524   4
  23 -23   4 941.824 614.742   3
   0  23   4-737.855 1287.90   3
 -23   0   4 847.326 948.476   2
  23 -23   4 235.609 632.978   4
  23 -23   4 824.751 626.736   1
  23 -23   4 663.815 939.078   2
  22 -23  -6 857.811 968.300   1
  23 -22  -6 836.682 905.546   1
  22 -23  -3 1760.85 995.142   1
  23 -22  -3 750.999 1019.74   1
   1  22  -3 822.704 731.512   3
  23 -22  -3 2495.77 831.027   2
  22 -23  -3 1873.81 668.351   2
  22 -23   0 747.289 562.550   3
  22 -23   0 669.774 586.733   1
  23 -22   0 1845.18 757.335   3
  23 -22   0 285.179 662.499   1
   1  22   0 1342.58 1065.85   3
  -1  23   0 1893.53 1205.44   3
  23 -22   0 923.515 724.982   2
  22 -23   0-82.0424 594.007   2
 -22  -1   3 704.024 731.118   4
 -23   1   3 1321.28 821.914   4
  22 -23   3 3383.97 896.208   3
  23 -22   3 2677.59 829.629   3
   1  22   3 3191.28 1679.23   3
  -1  23   3 4123.10 1759.86   3
 -22  -1   3 4026.86 1485.96   2
  23 -22   3 2763.38 913.644   4
  23 -22   3 2012.45 1246.95   2
  22 -23   3 2814.47 829.176   4
  22 -23   3 1708.27 1241.96   2
  22 -23   3 1542.81 765.509   1
  23 -22   3 2186.45 839.287   1
 -23   1   6 370.314 722.968   4
 -22  -1   6-78.5714 1032.09   2
 -23   1   6 626.554 922.777   2
   1  22   6 1616.50 1766.65   3
  23 -22   6 1838.10 948.933   4
  22 -23   6 370.579 736.926   4
  23 -22   6-471.853 1122.24   2
  22 -23   6-1253.52 993.035   2
 -22  -1   6 166.161 649.754   4
  21 -23  -4-95.1969 837.278   1
   2  21  -4 1183.27 662.263   3
  23 -21  -4 301.250 885.966   1
  21 -23  -1 803.735 707.819   3
  23 -21  -1 647.496 648.837   3
  21 -23  -1 749.134 783.612   1
  23 -21  -1 2193.62 1009.16   1
   2  21  -1 2309.93 1255.01   3
  23 -21  -1 1305.72 799.098   2
  21 -23  -1 1934.17 894.014   2
  23 -21   2 732.254 633.647   1
 -21  -2   2 1674.59 934.198   4
 -23   2   2 197.128 506.516   4
  21 -23   2 1378.74 601.038   3
  23 -21   2 324.068 523.893   3
   2  21   2-1669.43 1209.47   3
  -2  23   2-444.605 1054.80   3
 -21  -2   2 1275.07 987.855   2
  23 -21   2-325.492 905.316   2
  23 -21   2 771.706 547.730   4
  21 -23   2 546.317 856.746   2
  21 -23   2 1433.67 496.509   4
  21 -23   2 424.021 625.525   1
 -21  -2   5 778.833 717.161   4
 -23   2   5 1235.44 693.611   4
  21 -23   5 339.551 462.981   3
  23 -21   5 696.306 671.138   3
 -21  -2   5-183.208 764.986   2
   2  21   5 128.653 1010.35   3
 -23   2   5 1769.01 1153.50   2
  23 -21   5-97.5781 755.893   4
  21 -23   5 936.809 716.607   4
  23 -21   5 616.330 1254.52   2
  21 -23   5 2081.30 1397.03   2
  20 -23  -5 1573.44 1044.33   1
  23 -20  -5 137.110 845.044   1
  23 -20  -2 926.141 897.617   3
  20 -23  -2 548.303 569.848   1
  23 -20  -2 1511.13 885.540   1
   3  20  -2 527.839 783.733   3
  23 -20  -2 767.052 661.555   2
  20 -23  -2 878.742 724.690   2
 -20  -3   1 553.151 683.333   4
  23 -20   1 1759.12 783.759   1
  20 -23   1 879.562 562.787   3
  23 -20   1 864.978 646.238   3
   3  20   1 1955.27 1130.97   3
  23 -20   1 300.775 722.930   2
  23 -20   1 524.859 317.432   4
  20 -23   1 925.450 881.043   2
  20 -23   1 664.147 276.508   4
  20 -23   1 1588.49 793.841   1
 -20  -3   4 1215.73 699.616   4
 -23   3   4 1443.28 825.430   4
  20 -23   4 1694.57 708.488   3
  23 -20   4 1343.27 774.110   3
 -20  -3   4 1244.69 901.124   2
   3  20   4 330.102 1104.51   3
  23 -20   4-396.866 635.876   4
  23 -20   4 1510.33 894.632   2
  23 -20   4 1422.90 729.511   1
  20 -23   4 1534.80 764.760   4
  20 -23   4 1496.77 1130.02   2
 -20  -3   7 1956.39 1185.58   2
 -23   3   7 1433.58 1206.51   2
   3  20   7 1260.74 1405.36   3
  23 -20   7-57.8795 971.668   4
  20 -23   7 1767.04 1196.93   4
  23 -20   7-566.549 1207.21   2
  20 -23   7 2147.90 1539.35   2
 -20  -3   7 655.841 831.774   4
 -23   3   7-1655.81 913.795   4
  23 -19  -6 1930.45 1163.07   1
  19 -23  -6-502.152 1018.07   1
  19 -23  -3 1960.05 548.669   2
  23 -19  -3 3545.33 1264.03   3
  19 -23  -3 1804.43 1011.82   1
   4  19  -3 2520.82 903.761   3
  23 -19  -3 1491.42 782.099   1
 -19  -4   0 699.383 225.206   1
  19 -23   0 299.795 609.535   1
  19 -23   0 1618.34 690.946   3
  23 -19   0 1581.07 587.061   3
  23 -19   0 1363.04 751.847   1
 -19  -4   0 8.76155 304.758   1
   4  19   0 1665.34 1087.96   3
  23 -19   0 1520.70 968.017   2
  19 -23   0 772.535 743.982   2
 -19  -4   3 1758.12 835.216   4
 -23   4   3 2960.84 906.187   4
  19 -23   3 1925.31 719.096   3
  23 -19   3 3977.76 983.118   3
   4  19   3 4431.02 1652.74   3
 -19  -4   3 1238.86 894.727   2
  23 -19   3 1937.93 893.715   4
  23 -19   3 1846.13 1193.56   2
  19 -23   3 2022.27 818.628   1
  19 -23   3 3854.31 994.324   4
  23 -19   3 3400.85 955.134   1
  19 -23   3 2274.17 1342.64   2
  23 -19   6-315.407 673.014   3
 -19  -4   6 2566.98 1493.19   2
   4  19   6 1643.42 1543.80   3
 -23   4   6 1924.49 1279.95   2
  23 -19   6-824.047 1102.88   4
  23 -19   6 653.334 1458.11   2
  19 -23   6 308.506 718.828   4
  19 -23   6 973.534 1215.76   2
 -19  -4   6 2342.37 901.165   4
 -23   4   6-87.3580 702.541   4
  23 -18  -7-591.247 1012.78   1
  18 -23  -7 238.210 910.720   1
  23 -18  -4 180.954 767.602   3
  18 -23  -4 365.837 712.073   1
   5  18  -4 1301.62 702.669   3
 -18  -5  -4 109.363 258.692   1
  23 -18  -4 1858.91 1112.95   1
  18 -23  -1 1586.46 815.691   1
  23 -18  -1 537.527 609.711   3
 -18  -5  -1 829.218 288.063   1
  23 -18  -1 1223.85 658.419   1
   5  18  -1 1078.90 851.448   3
  18 -23  -1 2674.87 959.673   2
 -18  -5  -1 591.829 320.300   1
 -18  -5   2 488.645 618.954   4
  23 -18   2 71.4410 459.063   1
 -23   5   2-421.234 565.339   4
  18 -23   2 568.295 494.762   3
  23 -18   2-567.621 659.954   3
   5  18   2 920.842 832.396   3
 -18  -5   2 110.923 645.400   2
  23 -18   2 216.914 822.774   2
  23 -18   2 245.749 504.566   4
  18 -23   2 1093.37 724.254   1
  18 -23   2 639.552 418.801   4
  18 -23   2-449.147 785.047   2
 -23   5   5 1686.53 802.529   4
  23 -18   5 359.885 675.553   3
 -18  -5   5 945.934 929.131   2
   5  18   5 1088.89 1485.44   3
  23 -18   5 328.665 791.055   4
  23 -18   5 3195.92 1508.06   2
  18 -23   5 881.771 759.743   4
  18 -23   5 800.838 986.592   2
 -18  -5   5 140.092 629.347   4
  23 -17  -5 1786.48 960.621   1
  23 -17  -5 2252.54 1023.16   3
   6  17  -5 1540.87 791.149   3
  17 -23  -5 1942.96 1053.74   1
 -17  -6  -5 992.618 613.036   1
  17 -23  -2 661.933 497.683   2
  23 -17  -2 2169.92 1074.17   3
  17 -23  -2 806.460 720.165   1
   6  17  -2 2243.47 900.717   3
 -17  -6  -2 677.694 332.660   1
  23 -17  -2 1835.19 828.947   1
 -17  -6  -2 428.081 327.787   1
  23 -17   1 646.291 431.473   4
 -17  -6   1 745.677 633.154   4
 -17  -6   1 1198.04 663.540   1
  17 -23   1 697.259 522.542   3
  23 -17   1 1521.90 756.408   3
  23 -17   1 1376.54 633.403   1
   6  17   1 1133.23 1146.19   3
 -17  -6   1 1462.12 865.236   2
  23 -17   1 1085.44 518.418   4
  17 -23   1 1477.01 913.360   1
  17 -23   1 1814.68 886.040   2
  17 -23   1 988.571 375.725   4
 -23   6   4-549.862 596.341   4
  17 -23   4 219.218 360.082   3
  23 -17   4-997.048 733.149   3
 -17  -6   4 939.792 832.779   2
   6  17   4-14.5564 982.071   3
  23 -17   4 1739.50 1128.28   4
  23 -17   4 476.930 1046.16   2
  23 -17   4-50.6320 449.858   1
  17 -23   4 794.059 808.442   4
  17 -23   4 1327.34 995.642   2
 -17  -6   4-214.524 619.694   4
  23 -17   7 603.531 764.874   3
 -17  -6   7 1014.56 1124.72   2
   6  17   7 2478.50 1917.29   3
 -23   6   7 1554.68 985.166   2
  23 -17   7 1867.50 1345.63   4
  23 -17   7 984.771 1354.60   2
  17 -23   7 1875.89 1079.77   4
 -17  -6   7 1042.80 973.570   4
  17 -23   7 909.297 1551.29   2
 -23   6   7-661.860 795.496   4
  23 -16  -6 1279.81 1065.91   3
  23 -16  -6-126.439 875.453   1
 -16  -7  -6 1437.04 796.683   1
  16 -23  -6 560.252 876.392   1
  16 -23  -3 1558.40 384.222   2
  16 -23  -3 3367.15 1138.73   1
   7  16  -3 3684.30 1175.38   3
 -16  -7  -3 1691.63 563.996   1
  23 -16  -3 2565.01 965.231   1
  16 -23   0 1440.75 330.895   4
 -16  -7   0 1801.54 744.548   4
  23 -16   0 492.447 586.109   3
  23 -16   0 1608.25 686.145   1
   7  16   0 259.400 725.250   3
 -16  -7   0 2457.25 876.825   2
  23 -16   0 1445.54 550.823   4
 -16  -7   0 1663.77 664.114   1
 -16  -7   0 1615.10 484.541   1
  23 -16   0 1158.08 409.958   4
  16 -23   0 2147.81 844.543   2
  16 -23   0 2622.86 931.062   1
 -16  -7   3 1029.42 698.460   4
 -23   7   3-152.493 430.767   4
  16 -23   3 376.841 351.294   3
  23 -16   3-206.614 576.433   3
 -16  -7   3-1088.46 958.149   2
   7  16   3-1207.61 1229.37   3
  23 -16   3 1795.15 992.037   4
  16 -23   3 575.914 438.032   4
  23 -16   3 1254.00 564.829   1
  16 -23   3-835.825 946.286   2
  23 -16   6 850.913 609.475   3
 -16  -7   6 1831.94 1095.04   2
   7  16   6-825.079 1587.52   3
  23 -16   6 3817.71 1579.10   4
  23 -16   6 1133.76 1112.66   2
  16 -23   6 1759.70 915.680   4
 -16  -7   6 759.950 631.003   4
  16 -23   6 643.684 1408.74   2
 -23   7   6 1676.39 855.074   4
  23 -15  -7 2243.95 1356.61   3
  23 -15  -7 2006.10 1228.87   1
 -15  -8  -7 2026.34 960.215   1
  15 -23  -7 3160.79 1535.92   1
  23 -15  -4 804.724 590.236   3
  23 -15  -4 1282.76 880.474   1
  15 -23  -4 1772.54 1073.63   1
   8  15  -4 267.142 523.488   3
 -15  -8  -4 2228.48 802.762   1
  15 -23  -1 1570.06 731.670   2
 -15  -8  -1 1609.41 552.301   1
  15 -23  -1 763.300 797.924   1
  23 -15  -1 2995.67 942.982   3
   8  15  -1 1521.71 831.470   3
  23 -15  -1 1926.38 723.969   1
  23 -15  -1 1565.41 425.760   4
 -15  -8  -1 719.583 537.506   1
 -15  -8   2-848.851 604.452   4
  15 -23   2 189.905 375.816   3
  23 -15   2 218.054 430.439   1
  23 -15   2 1299.43 771.165   3
   8  15   2 1069.28 981.377   3
 -15  -8   2-909.379 946.013   2
  23 -15   2 476.467 609.885   4
  15 -23   2-376.004 603.918   1
  -8  23   2-294.319 700.636   2
 -23   8   2-256.531 356.076   1
  15 -23   2 525.097 488.377   4
  15 -23   2 1904.78 974.511   2
 -23   8   5 1593.17 667.409   4
  23 -15   5 1101.73 957.450   3
 -15  -8   5 2214.01 1034.11   2
   8  15   5 3147.34 1435.21   3
  23 -15   5 1498.32 915.201   4
  23 -15   5 714.216 1150.92   2
  15 -23   5 2205.44 819.875   4
 -15  -8   5 898.871 756.296   4
  15 -23   5 1139.47 1042.96   2
  23 -14  -8 1401.57 921.424   3
 -14  -9  -8 532.577 1039.34   1
  23 -14  -8 1994.36 1303.61   1
  14 -23  -8 617.732 1440.14   1
  23 -14  -5 3938.38 1392.20   3
   9  14  -5 3586.44 998.821   3
  23 -14  -5 3914.00 1370.74   1
  14 -23  -5 2868.07 1281.67   1
 -14  -9  -5 2818.94 928.753   1
  14 -23  -2 384.112 670.578   1
  23 -14  -2 1845.33 995.827   3
  14 -23  -2 194.858 349.741   2
 -14  -9  -2 207.979 350.696   1
   9  14  -2 630.675 744.432   3
  23 -14  -2 135.207 368.929   4
  23 -14  -2 1099.31 739.118   1
  23 -14   1 2584.97 670.546   4
 -14  -9   1 2587.97 871.349   4
  14 -23   1 5089.81 1258.82   2
  23 -14   1 4682.11 1166.79   3
  23 -14   1 3415.99 746.404   1
   9  14   1 4618.40 1380.11   3
 -14  -9   1 3074.45 1124.85   2
  14 -23   1 4184.58 701.806   4
  -9  23   1 1732.37 735.595   4
  14 -23   1 3346.90 1021.15   1
  14 -23   4-839.307 1020.53   2
 -23   9   4-354.999 429.569   4
  14 -23   4 214.920 231.013   3
  23 -14   4 1295.61 842.497   3
 -14  -9   4 46.8163 983.875   2
   9  14   4 975.328 971.673   3
  23 -14   4 160.596 733.504   4
  23 -14   4 208.056 352.984   1
  14 -23   4 523.046 578.305   4
 -14  -9   4 1576.75 904.939   4
  14 -23   7 1976.64 1556.79   2
 -14  -9   7 3192.54 1407.53   2
  23 -14   7 352.647 761.617   3
   9  14   7 2715.63 1634.09   3
  23 -14   7 4325.91 1846.37   4
  23 -14   7 321.194 1182.12   2
  14 -23   7 1627.82 1040.68   4
 -14  -9   7 1904.55 1048.82   4
 -23   9   7 1082.41 700.895   4
 -13 -10  -6 2785.47 1052.79   1
  23 -13  -6 3846.23 1413.67   3
  10  13  -6 2172.93 855.773   3
  13 -23  -6 575.501 776.538   1
  23 -13  -6 3422.65 1305.99   1
  23 -13  -3 661.919 678.083   3
  13 -23  -3-407.811 686.035   1
  23 -13  -3 1003.46 782.795   1
  13 -23  -3 44.4572 192.559   2
  10  13  -3 61.5378 585.194   3
 -13 -10  -3-80.0158 427.355   1
 -13 -10   0 3728.66 1056.45   4
  13 -23   0 5113.00 1125.47   2
  23 -13   0 5051.32 1145.30   3
  10  13   0 5117.31 1482.38   3
 -13 -10   0 4350.19 1221.56   2
  13 -23   0 5892.63 1336.01   1
 -13 -10   0 1410.37 628.966   1
  23 -13   0 3651.41 800.311   1
 -10  23   0 2852.67 974.147   4
 -13 -10   0 2699.11 665.484   1
  13 -23   0 3720.39 668.967   4
  23 -13   0 3838.19 780.103   4
  13 -23   3 2514.51 1194.11   2
  23 -13   3-142.099 297.324   1
  13 -23   3 1046.76 421.043   3
  23 -13   3 538.808 594.591   3
 -13 -10   3-241.485 595.598   2
  10  13   3 335.587 914.189   3
 -10  23   3 778.950 576.929   4
  13 -23   3-386.315 503.236   4
 -13 -10   3 496.291 619.315   4
  13 -23   6 3021.61 1376.92   2
  23 -13   6 705.918 794.069   3
 -13 -10   6 1321.48 967.216   2
  10  13   6 2331.77 1533.61   3
  23 -13   6 1436.84 1279.99   4
  23 -13   6 2414.16 1548.21   2
  13 -23   6 2593.58 1169.47   4
 -13 -10   6-1045.60 855.750   4
 -23  10   6 755.498 562.657   4
  23 -12  -7 1728.27 1183.63   3
 -12 -11  -7 1103.70 1031.44   1
  11  12  -7 1759.43 817.326   3
  12 -23  -7 1810.64 1387.02   1
  23 -12  -7 2875.05 1344.03   1
  23 -12  -4 69.8971 807.712   3
  12 -23  -4 2551.21 1235.72   1
  11  12  -4-1191.37 799.990   3
  23 -12  -4 1231.40 845.120   1
 -12 -11  -4-209.981 531.317   1
  12 -23  -1 3934.88 1130.96   1
 -12 -11  -1 1869.72 803.432   4
  23 -12  -1 2287.14 758.619   1
  12 -23  -1 1880.59 685.179   2
  23 -12  -1 3802.20 1214.85   3
  11  12  -1 2307.42 1094.63   3
 -12 -11  -1 1945.85 998.600   2
  23 -12  -1 1614.73 628.389   4
 -12 -11  -1 1773.19 638.186   1
 -12 -11   2-805.410 661.705   4
  12 -23   2 905.349 1008.16   2
  23 -12   2 684.673 520.831   3
  11  12   2 92.9392 745.559   3
 -12 -11   2 602.121 734.053   2
  23 -12   2 188.279 231.346   1
  12 -23   2 233.065 548.281   3
 -23  11   2 160.011 393.923   1
 -11  23   2 895.777 574.080   4
  23 -12   2 325.540 306.134   1
  12 -23   2 531.410 395.402   4
 -23  11   5 2189.10 710.380   4
  12 -23   5 6272.35 1862.96   2
  23 -12   5 4678.06 1402.78   3
 -12 -11   5 1974.90 1030.74   2
  11  12   5 3617.30 1602.33   3
  23 -12   5 2025.73 1412.30   4
  12 -23   5 2516.28 993.249   4
 -12 -11   5 2129.72 968.380   4
  12 -23   8 1862.19 1641.56   2
 -12 -11   8 982.159 1202.20   2
  23 -12   8 2589.51 1421.59   3
  11  12   8 3446.16 2002.64   3
  23 -12   8-1156.89 1375.98   4
  23 -12   8 1567.76 1419.07   2
  12 -23   8 1019.29 959.134   4
 -12 -11   8 3226.56 1348.10   4
 -23  11   8 195.647 542.793   4
  23 -11  -8-589.905 968.994   3
  23 -11  -8 715.658 998.580   1
 -11 -12  -8 37.0851 1042.56   1
  11 -23  -8 128.888 995.133   1
  23 -11  -5 2347.37 1163.37   3
  12  11  -5 1816.50 853.444   3
  11 -23  -5 2893.53 1320.37   1
 -11 -12  -5 2613.14 1019.78   1
  23 -11  -5 3003.01 1085.63   1
  11 -23  -2 1050.87 955.667   1
 -11 -12  -2 170.332 372.367   1
  23 -11  -2 301.672 680.196   3
  11 -23  -2 1338.06 510.246   2
  12  11  -2-197.065 738.577   3
  23 -11  -2-621.560 551.635   1
  23 -11  -2-170.914 518.835   4
 -11 -12   1 3687.78 1038.60   4
  11 -23   1 3723.93 1181.99   2
  23 -11   1 1225.92 273.039   1
  23 -11   1 1501.42 784.984   3
  12  11   1 2217.84 957.149   3
 -11 -12   1 4832.49 1254.19   2
 -12  23   1 1972.84 698.885   4
  11 -23   1 4218.21 1244.61   1
  11 -23   1 2189.01 648.556   4
  23 -11   4 328.813 227.571   1
 -23  12   4 169.762 387.108   4
  11 -23   4-492.223 758.871   2
  23 -11   4 514.128 635.162   3
 -11 -12   4 45.9533 779.211   2
  12  11   4 2071.11 1318.22   3
  11 -23   4-674.278 561.498   4
 -11 -12   4-415.757 704.642   4
  11 -23   7 2419.12 1719.21   2
 -11 -12   7 3300.46 1554.50   2
  23 -11   7 661.382 990.188   3
  12  11   7 1192.74 1174.03   3
  23 -11   7 3549.70 1782.96   4
  23 -11   7 2870.98 1569.80   2
  11 -23   7 527.902 815.007   4
 -11 -12   7 1733.69 1086.82   4
 -23  12   7 1698.92 744.629   4
  23 -10  -6 629.678 725.983   1
  23 -10  -6 1009.58 1026.08   3
  13  10  -6 149.174 617.995   3
  10 -23  -6 242.926 1017.72   1
 -10 -13  -6 1712.16 1024.63   1
  23 -10  -3-227.075 657.996   3
  10 -23  -3-76.4078 714.049   1
 -10 -13  -3 730.897 629.560   1
  13  10  -3-879.874 683.243   3
  10 -23  -3 452.319 315.708   2
  23 -10  -3-121.304 530.655   1
  10 -23   0 3337.85 807.605   4
 -10 -13   0 5010.46 1144.79   4
  10 -23   0 4725.99 1045.71   2
  23 -10   0 2305.48 1015.39   3
  13  10   0 3382.28 1277.87   3
 -10 -13   0 2558.38 972.460   2
 -13  23   0 3092.00 876.606   4
 -10 -13   0 3447.48 820.438   1
  23 -10   0 1633.45 363.007   1
  10 -23   0 3591.50 1075.95   1
  10 -23   3-1208.18 868.769   2
  10 -23   3 457.917 257.598   3
  23 -10   3 1678.02 951.036   3
 -10 -13   3 65.0007 599.678   2
  13  10   3 1342.80 1137.11   3
 -13  23   3 50.6301 289.549   4
  10 -23   3 725.189 493.859   4
 -10 -13   3 74.0178 508.748   4
 -23  13   6 2948.12 709.394   4
  10 -23   6 4795.76 1787.14   2
 -10 -13   6 3181.35 1183.11   2
  23 -10   6 3356.42 1268.08   3
  13  10   6 2938.43 1578.10   3
  10 -23   6 2381.40 1078.78   4
 -10 -13   6 3382.54 1204.88   4
  23  -9  -7 2393.81 1103.28   3
  14   9  -7 834.529 727.189   3
  23  -9  -7 1057.99 1082.42   1
  -9 -14  -7 290.123 871.305   1
  23  -9  -4 1024.09 804.237   1
  23  -9  -4 885.518 913.940   3
   9 -23  -4 528.396 1019.44   1
  14   9  -4-661.649 779.813   3
  -9 -14  -4-101.683 507.612   1
   9 -23  -1 2319.59 936.522   1
   9 -23  -1 3080.35 747.311   4
  -9 -14  -1 3606.94 1070.50   4
  23  -9  -1 4014.70 1178.93   3
  23  -9  -1 3132.91 585.796   1
   9 -23  -1 3793.73 915.875   2
  14   9  -1 3063.30 1154.56   3
  -9 -14  -1 3454.60 1074.93   2
 -14  23  -1 3240.54 922.273   4
  -9 -14  -1 3370.55 850.533   1
  -9 -14   2 308.840 456.132   4
   9 -23   2 1874.67 932.810   2
  23  -9   2 1489.37 791.896   3
  -9 -14   2-385.423 688.465   2
  14   9   2 1090.49 1050.40   3
   9 -23   2 425.947 642.530   3
 -14  23   2 543.325 266.544   4
   9 -23   2 401.314 438.383   4
 -23  14   5 2655.44 549.928   4
   9 -23   5 4570.93 1597.65   2
  -9 -14   5 5762.45 1532.19   2
  23  -9   5 1829.36 1025.75   3
  14   9   5 2249.05 1495.83   3
   9 -23   5 5030.89 1425.35   4
  -9 -14   5 4078.20 1243.51   4
   9 -23   8 3286.05 1766.95   2
  -9 -14   8 1111.98 1338.13   2
  23  -9   8 2079.80 1270.75   3
  14   9   8 2930.43 1836.54   3
  23  -9   8 712.075 1497.48   4
  23  -9   8 1314.99 1331.09   2
   9 -23   8 2192.90 1202.03   4
  -9 -14   8 2948.74 1413.02   4
  23  -8  -5 3058.53 1179.34   3
  15   8  -5 932.752 682.554   3
  23  -8  -5 2915.84 1198.26   1
   8 -23  -5 1790.40 1223.41   1
  -8 -15  -5 782.297 626.716   1
   8 -23  -2-300.089 821.593   1
  -8 -15  -2 755.261 601.692   1
  23  -8  -2-461.005 567.162   3
  15   8  -2-464.588 669.716   3
   8 -23  -2 517.959 409.460   2
  23  -8  -2 1018.83 442.547   1
  -8 -15  -2 1824.31 813.154   2
 -15  23  -2-357.097 762.058   4
  -8 -15   1 648.091 560.823   4
   8 -23   1 1328.20 815.431   2
  23  -8   1 3348.65 1091.29   3
  15   8   1 272.799 840.703   3
  -8 -15   1 1081.63 788.110   2
   8 -23   1 1095.18 799.794   3
 -15  23   1 833.151 338.052   4
   8 -23   1 2079.32 999.466   1
   8 -23   1 2144.71 737.385   4
   8 -23   4-520.042 992.916   2
  23  -8   4 751.582 772.159   3
  -8 -15   4-103.261 876.247   2
  15   8   4 1101.44 973.723   3
   8 -23   4-275.786 641.161   4
  -8 -15   4 1002.37 797.041   4
   8 -23   7 1105.86 921.946   2
  -8 -15   7 233.095 980.147   2
  23  -8   7 1728.62 1181.72   3
  15   8   7 1844.93 1155.25   3
   8 -23   7 1903.28 1134.64   4
  -8 -15   7 1933.44 1093.71   4
  23  -7  -6 2174.79 1064.82   3
  16   7  -6 2965.37 1128.07   3
   7 -23  -6 582.488 1095.67   1
  -7 -16  -6 420.148 704.203   1
  23  -7  -6 1604.70 971.646   1
   7 -23  -3 96.0478 788.290   1
  23  -7  -3 1379.55 801.876   3
  -7 -16  -3 565.459 667.794   1
  16   7  -3 828.553 886.129   3
   7 -23  -3 1192.28 553.001   2
  23  -7  -3 787.177 579.279   1
   7 -23   0 1939.54 696.126   4
  -7 -16   0 2840.97 946.697   4
  23  -7   0 821.331 610.384   3
   7 -23   0 1109.78 791.009   2
  16   7   0 1956.64 1148.75   3
  -7 -16   0 1443.07 854.695   2
  -7 -16   0 144.944 562.391   1
   7 -23   0 3348.29 1138.24   1
   7 -23   3 3563.96 1175.17   2
  23  -7   3 3520.34 1277.85   3
  -7 -16   3 1548.97 888.423   2
  16   7   3 3020.50 1348.19   3
   7 -23   3 2557.10 888.327   4
  -7 -16   3 3916.01 1097.95   4
   7 -23   6 3628.84 1639.66   2
  -7 -16   6-800.779 1096.27   2
  23  -7   6 2379.59 1300.59   3
  16   7   6 37.4614 1155.39   3
   7 -23   6-549.165 713.338   4
  -7 -16   6 1095.69 796.426   4
  23  -6  -7 2927.06 1318.47   1
  23  -6  -7 925.443 1059.23   3
  17   6  -7 1174.62 897.178   3
   6 -23  -7-625.200 1093.52   1
  -6 -17  -7 1030.00 1030.58   1
  23  -6  -4 886.275 675.296   1
  23  -6  -4 933.396 983.396   3
   6 -23  -4 5.51588 788.589   1
  17   6  -4 514.116 713.014   3
  -6 -17  -4 892.178 745.532   1
   6 -23  -1 1084.06 637.322   4
  -6 -17  -1 575.924 522.866   4
  23  -6  -1 1796.80 887.070   3
   6 -23  -1 1212.69 680.470   2
  17   6  -1 264.131 794.056   3
  -6 -17  -1 1762.13 810.240   2
  -6 -17  -1 492.744 513.634   1
   6 -23  -1 1479.88 885.629   1
  -6 -17   2 1162.08 752.785   4
   6 -23   2 2958.45 1085.31   2
  23  -6   2 1799.40 1018.00   3
  -6 -17   2 2946.98 1239.27   2
  17   6   2 1634.31 1025.62   3
   6 -23   2 3329.69 885.072   4
   6 -23   5 1981.54 1215.24   2
  -6 -17   5 2200.85 1274.93   2
  23  -6   5 1998.82 1244.22   3
  17   6   5 3317.16 1719.08   3
   6 -23   5 168.096 581.339   4
  -6 -17   5 959.871 912.519   4
  23  -5  -5 996.736 866.176   3
  18   5  -5 1934.56 1029.04   3
   5 -23  -5 605.001 1123.67   1
  23  -5  -5 608.990 654.185   1
  -5 -18  -5 835.423 1020.99   1
  -5 -18  -2 915.113 629.471   1
   5 -23  -2 762.889 664.548   1
  23  -5  -2-177.122 584.400   3
  18   5  -2 573.229 644.180   3
   5 -23  -2 1098.13 609.468   2
  -5 -18  -2 280.390 578.710   2
   5 -23   1 1453.49 763.249   4
  -5 -18   1 1905.46 776.275   4
   5 -23   1 1396.44 806.834   2
  23  -5   1 1063.43 887.594   3
  18   5   1 2926.18 1318.65   3
  -5 -18   1 2379.57 969.902   2
   5 -23   1 934.442 750.838   1
   5 -23   4 2275.44 1137.64   2
  -5 -18   4 483.065 817.954   2
  23  -5   4 542.761 737.868   3
  18   5   4 2628.06 1351.51   3
   5 -23   4-12.1703 736.308   4
  -5 -18   4 1088.32 604.624   4
   5 -23   7 423.752 1100.97   2
  -5 -18   7 1195.57 1173.97   2
  23  -5   7 3857.84 1630.10   3
  18   5   7-881.582 1492.61   3
   5 -23   7 2443.37 1223.78   4
  -5 -18   7 3269.60 1352.87   4
  23  -4  -6 66.7551 800.520   3
  19   4  -6 387.936 704.792   3
   4 -23  -6 627.109 932.641   1
  -4 -19  -6-1034.38 983.025   1
  23  -4  -6-187.129 731.483   1
   4 -23  -3 1621.23 998.102   1
  -4 -19  -3 843.683 736.010   1
  23  -4  -3 4363.59 1327.45   3
  19   4  -3 1913.24 1062.89   3
   4 -23  -3 2329.23 772.778   2
  -4 -19  -3 3287.86 976.966   2
   4 -23   0-65.0547 475.677   4
  -4 -19   0 932.370 735.920   4
  23  -4   0 1832.93 1100.58   3
   4 -23   0 1596.32 752.780   2
  19   4   0 2045.03 964.041   3
  -4 -19   0 2334.09 924.773   2
  -4 -19   0 2409.64 875.049   1
   4 -23   0 982.097 759.784   1
   4 -23   3 3837.24 1379.71   2
  -4 -19   3 596.086 987.447   2
  23  -4   3 4367.64 1401.47   3
  19   4   3 2166.95 1130.97   3
   4 -23   3 3685.93 1092.80   4
  -4 -19   3 2642.89 1090.76   4
   4 -23   6 2184.57 1323.46   2
  -4 -19   6 3917.37 1563.35   2
  23  -4   6 972.100 1181.31   3
  19   4   6 1667.24 1193.03   3
   4 -23   6 2196.06 1047.20   4
  -4 -19   6 3318.66 1277.01   4
  23  -3  -7-382.628 829.792   3
  20   3  -7 540.283 846.482   3
  23  -3  -7 1387.48 1200.50   1
   3 -23  -7 287.649 999.645   1
  -3 -20  -7 1524.13 1225.61   1
  23  -3  -4 35.8280 711.218   3
   3 -23  -4 127.002 880.261   1
  20   3  -4 2686.41 1025.36   3
  -3 -20  -4 1902.40 1006.63   1
   3 -23  -1 605.156 608.709   4
  -3 -20  -1 1204.79 820.626   4
  23  -3  -1 657.458 723.077   3
  20   3  -1 1431.33 772.446   3
   3 -23  -1 1547.55 799.457   2
  -3 -20  -1 635.789 760.743   2
  -3 -20  -1 1408.08 795.052   1
   3 -23  -1 1331.87 940.881   1
  -3 -20   2-145.961 522.145   4
   3 -23   2 1003.08 816.931   2
  23  -3   2 1261.04 1029.61   3
  -3 -20   2 2123.65 932.997   2
  20   3   2 2724.43 1380.96   3
   3 -23   2 2160.88 850.354   4
   3 -23   5 1102.44 955.126   2
  -3 -20   5-100.806 733.098   2
  23  -3   5 1003.79 977.203   3
  20   3   5 320.952 1072.71   3
   3 -23   5 836.403 960.035   4
  -3 -20   5 720.201 589.316   4
  23  -2  -5 1377.54 927.462   3
  21   2  -5 851.547 824.269   3
   2 -23  -5 158.152 1021.53   1
  -2 -21  -5 451.613 1038.62   1
  -2 -21  -2 341.247 646.359   1
   2 -23  -2 402.137 791.420   1
  23  -2  -2 1496.00 952.030   3
  21   2  -2 893.902 896.844   3
   2 -23  -2 747.914 569.394   2
  -2 -21  -2 1894.91 832.385   2
   2 -23   1-651.215 720.963   4
  -2 -21   1 877.846 657.091   4
  23  -2   1 577.064 990.454   3
   2 -23   1 833.271 772.422   2
  21   2   1 67.3489 749.349   3
  -2 -21   1-788.353 593.083   2
   2 -23   1 143.869 541.089   1
   2 -23   4 100.649 817.280   2
  -2 -21   4-688.103 949.129   2
  23  -2   4-234.969 858.343   3
  21   2   4 1597.73 1080.96   3
   2 -23   4 186.849 563.469   4
  -2 -21   4-544.926 563.015   4
  23  -1  -6-557.533 848.620   3
  22   1  -6 1360.08 914.512   3
   1 -23  -6-1095.54 1142.87   1
  -1 -22  -6 445.850 1043.01   1
   1 -23  -3 3157.55 1227.69   1
  -1 -22  -3 2453.24 962.544   1
  23  -1  -3 1677.13 1047.04   3
  22   1  -3 3649.83 1177.17   3
   1 -23  -3 1863.34 755.466   2
  -1 -22  -3 1878.42 924.521   2
   1 -23   0 699.276 617.512   4
  -1 -22   0-1364.91 734.721   4
  23  -1   0 980.055 1147.98   3
  22   1   0 181.380 862.733   3
   1 -23   0 1293.12 745.250   2
  -1 -22   0 987.431 852.395   2
  -1 -22   0 821.297 755.779   1
   1 -23   0 735.299 635.440   1
   1 -23   3 3245.46 1275.05   2
  -1 -22   3 2374.70 977.951   2
  23  -1   3 1115.17 913.979   3
  22   1   3 3220.12 1361.90   3
   1 -23   3 2216.56 920.398   4
  -1 -22   3 2191.50 1039.84   4
   1 -23   6 1688.67 1321.76   2
  -1 -22   6-766.421 1082.49   2
  23  -1   6 1177.62 1267.91   3
  22   1   6 2327.49 1515.26   3
   1 -23   6 2449.26 1047.11   4
  -1 -22   6 454.010 853.924   4
  23   0  -4 1304.50 1095.37   3
   0 -23  -4-624.454 700.935   1
   0 -23  -1 106.617 662.884   4
  23   0  -1-597.284 853.285   3
   0 -23  -1 125.166 602.322   2
   0 -23  -1 4.87496 711.561   1
   0 -23   2 1269.94 818.885   4
   0 -23   2 1773.43 1002.10   2
  23   0   2 1414.52 942.155   3
   0 -23   5 45.6361 960.559   2
  23   0   5 946.323 1248.55   3
   0 -23   5 679.962 875.364   4
  24 -24  -3 13.4060 746.759   3
  24 -24  -3 184.117 843.588   1
  24 -24   0 1891.26 866.939   3
  24 -24   0 1893.62 916.837   1
   0  24   0 4340.59 1575.92   3
  24 -24   0 1311.69 999.149   2
 -24   0   3-331.541 698.101   4
  24 -24   3-345.543 644.204   3
   0  24   3 699.803 1371.81   3
  24 -24   3-174.402 934.999   2
  24 -24   3-491.732 575.059   1
  23 -24  -4 295.973 974.662   1
  24 -23  -4-158.974 870.864   1
  23 -24  -1-503.686 662.628   3
  24 -23  -1 1058.63 955.240   3
  23 -24  -1 2251.61 1092.40   1
  24 -23  -1 1849.38 1046.81   1
   1  23  -1 1139.36 1037.21   3
  24 -23  -1-420.746 744.384   2
  23 -24  -1 1539.12 875.220   2
  24 -23   2 969.858 617.897   1
 -23  -1   2-907.596 850.338   4
 -24   1   2 404.794 608.980   4
  23 -24   2 19.8087 460.047   3
  24 -23   2 213.333 489.592   3
   1  23   2 622.823 1064.74   3
  -1  24   2 1233.54 1494.80   3
  24 -23   2 492.716 775.895   2
  23 -24   2 527.639 902.132   2
  23 -24   2 135.573 530.239   1
 -23  -1   5 1256.82 976.736   4
 -24   1   5-247.763 656.335   4
  24 -23   5 472.527 606.768   3
 -23  -1   5 1738.38 1377.21   2
   1  23   5-811.677 1186.63   3
 -24   1   5 564.460 1085.66   2
  -1  24   5-33.5795 1402.75   3
  24 -23   5 83.4368 787.039   4
  23 -24   5 1301.91 932.669   4
  24 -23   5 424.796 1174.27   2
  23 -24   5-504.982 1046.43   2
  22 -24  -5 1007.25 1254.92   1
  24 -22  -5 325.918 921.250   1
  24 -22  -2 34.1863 659.782   3
  22 -24  -2 454.617 929.974   1
  24 -22  -2-716.991 773.883   1
   2  22  -2 1790.35 1054.57   3
  24 -22  -2-95.1882 640.164   2
  22 -24  -2-243.419 539.005   2
  22 -24   1 138.832 586.095   1
 -22  -2   1 1166.36 814.874   4
  24 -22   1 1432.44 849.202   1
  22 -24   1 1382.85 736.450   3
  24 -22   1-89.0288 562.788   3
   2  22   1 155.697 1022.21   3
  24 -22   1 1831.89 985.835   2
  22 -24   1 512.215 880.388   2
 -22  -2   4 497.379 823.678   4
 -24   2   4 1773.72 867.906   4
  22 -24   4-781.750 665.653   3
  24 -22   4 1199.34 778.852   3
 -22  -2   4 839.995 873.454   2
   2  22   4 484.266 1017.00   3
  24 -22   4-168.776 581.291   4
  22 -24   4 1388.46 826.777   1
  24 -22   4 1539.48 1328.15   2
  22 -24   4 270.480 612.996   4
  24 -22   4 888.884 870.772   1
  22 -24   4 1170.71 1129.02   2
  24 -21  -6 2105.24 1325.60   1
  21 -24  -6 3691.11 1630.96   1
  24 -21  -3 749.281 692.355   3
  21 -24  -3 754.009 787.888   1
   3  21  -3 1352.01 899.557   3
  24 -21  -3-508.911 666.474   1
  24 -21  -3 186.292 602.210   2
  21 -24   0 1672.09 789.019   1
  21 -24   0 2909.36 921.601   3
  24 -21   0 3792.84 1031.09   3
  24 -21   0 3063.31 1027.18   1
   3  21   0 3029.77 1280.41   3
  24 -21   0 3156.74 1119.44   2
  21 -24   0 3913.18 1128.99   2
 -21  -3   3-406.004 652.003   4
 -24   3   3 524.665 687.173   4
  21 -24   3 498.141 588.067   3
  24 -21   3 552.900 668.615   3
   3  21   3-100.316 1082.85   3
 -21  -3   3 1541.48 1052.50   2
  24 -21   3 1292.61 738.052   4
  24 -21   3 457.342 982.670   2
  21 -24   3 418.218 543.820   1
  21 -24   3-290.301 466.047   4
  21 -24   3 1673.32 1215.71   2
  24 -21   3 441.018 660.749   1
 -24   3   6 474.103 653.503   4
  24 -21   6 1850.18 937.672   3
 -21  -3   6 568.079 818.482   2
   3  21   6 2893.32 1973.60   3
 -24   3   6 1710.05 1307.02   2
  24 -21   6 2171.08 1287.08   4
  21 -24   6 2798.71 1182.17   4
  24 -21   6 1928.98 1459.34   2
  21 -24   6 5294.38 2079.09   2
 -21  -3   6 1528.68 962.559   4
  24 -20  -4-589.052 768.804   3
  20 -24  -4-373.004 766.378   1
   4  20  -4-290.718 602.381   3
  24 -20  -1 745.481 519.637   3
  20 -24  -1-490.047 670.672   1
  24 -20  -1-977.380 940.541   1
   4  20  -1 2120.75 1039.35   3
  24 -20  -1 28.5804 599.389   2
  20 -24  -1 2447.45 961.201   2
 -20  -4   2 760.602 531.617   4
  24 -20   2 422.281 483.053   1
  20 -24   2 797.148 600.745   3
  24 -20   2 858.779 607.085   3
   4  20   2-32.7151 969.493   3
 -20  -4   2 936.704 1038.94   2
  24 -20   2 2215.72 1367.87   2
  24 -20   2 875.975 608.556   4
  20 -24   2-437.583 682.132   1
  20 -24   2 763.702 445.205   4
  20 -24   2 740.062 766.163   2
 -20  -4   5 751.482 722.021   4
 -24   4   5 229.537 575.728   4
  24 -20   5 668.703 551.817   3
 -20  -4   5 135.579 889.479   2
   4  20   5 3302.09 1935.13   3
  24 -20   5 696.208 964.522   4
  24 -20   5-665.542 1193.54   2
  20 -24   5 2126.50 943.134   4
  20 -24   5 197.002 1061.46   2
  24 -19  -5 1175.66 997.600   1
  24 -19  -5 1201.53 863.559   3
  19 -24  -5 779.734 1173.97   1
  19 -24  -2 1070.80 650.030   2
  24 -19  -2 947.167 752.988   3
  19 -24  -2 205.342 647.220   1
   5  19  -2 669.651 820.182   3
  24 -19  -2-197.183 643.438   1
 -19  -5   1 710.611 729.657   4
  19 -24   1 1572.20 689.350   3
  24 -19   1 1342.61 648.506   1
  24 -19   1 2344.18 819.839   3
   5  19   1 1885.31 1210.75   3
 -19  -5   1 1954.99 1099.20   2
  24 -19   1 3118.87 1475.44   2
  24 -19   1 788.126 401.512   4
  19 -24   1 1038.66 852.200   2
  19 -24   1 1104.16 365.373   4
  19 -24   1 932.398 524.980   1
 -19  -5   4 272.423 643.768   4
 -24   5   4 162.301 681.769   4
  19 -24   4-153.908 423.995   3
  24 -19   4 1615.23 726.633   3
 -19  -5   4 1240.32 1004.12   2
   5  19   4 1159.91 1475.19   3
  24 -19   4 1465.07 857.728   4
  24 -19   4-72.0536 989.898   2
  24 -19   4-34.7742 508.294   1
  19 -24   4 731.295 637.046   4
  19 -24   4 561.348 1075.02   2
  24 -18  -6 716.481 718.964   3
  24 -18  -6 2227.91 1197.64   1
  18 -24  -6 3127.08 1612.51   1
  24 -18  -3 859.217 659.634   3
  18 -24  -3 318.759 312.751   2
 -18  -6  -3 18.7227 249.240   1
  18 -24  -3-165.429 686.010   1
   6  18  -3 734.824 687.660   3
  24 -18  -3 476.822 868.453   1
  18 -24   0 2793.51 1072.24   1
 -18  -6   0 2432.18 986.668   4
  24 -18   0 2595.92 898.300   3
  24 -18   0 3583.14 886.754   1
   6  18   0 1722.71 1160.42   3
  24 -18   0 2012.34 462.900   4
 -18  -6   0 2603.01 541.065   1
  18 -24   0 4600.12 1273.80   2
 -18  -6   3 1303.33 865.822   4
 -24   6   3 964.627 596.187   4
  18 -24   3 32.6451 386.374   3
  24 -18   3-118.410 475.814   3
   6  18   3 703.151 1219.18   3
 -18  -6   3 216.717 873.520   2
  24 -18   3 791.020 719.422   4
  24 -18   3 83.7779 847.579   2
  18 -24   3 1072.21 590.235   4
  18 -24   3-611.880 938.312   2
  24 -18   3 552.160 579.600   1
 -24   6   6 203.731 546.697   4
  24 -18   6 1103.57 824.585   3
 -18  -6   6 2819.96 1348.34   2
   6  18   6 3262.90 1920.66   3
  24 -18   6 3206.54 1512.95   4
  24 -18   6 3032.31 1824.33   2
  18 -24   6 2578.90 993.631   4
  18 -24   6 2644.13 1470.85   2
 -18  -6   6 1493.33 1013.39   4
  24 -17  -7-599.076 813.129   3
  24 -17  -7-353.937 887.692   1
  17 -24  -7 1295.46 1380.21   1
  24 -17  -4 1465.01 906.571   1
 -17  -7  -4 1533.37 568.699   1
  17 -24  -4 1.87776 866.412   1
   7  17  -4 1608.68 804.849   3
  17 -24  -1 676.748 620.025   2
  17 -24  -1-423.411 625.960   1
 -17  -7  -1 561.906 349.339   1
  24 -17  -1 43.1569 495.526   3
   7  17  -1 759.995 831.143   3
  24 -17  -1-499.895 523.129   1
 -17  -7   2-515.910 669.795   4
  24 -17   2 630.509 474.169   1
  17 -24   2 372.467 355.663   3
  24 -17   2 1318.22 775.317   3
   7  17   2 702.686 1119.76   3
 -17  -7   2 602.323 669.313   2
  24 -17   2 164.910 585.230   4
  17 -24   2-109.775 575.829   1
  17 -24   2 638.579 466.949   4
  17 -24   2 1592.78 802.873   2
 -24   7   5 1325.18 746.304   4
  24 -17   5-147.699 791.383   3
 -17  -7   5 1749.88 1078.33   2
   7  17   5 1910.13 1691.68   3
  24 -17   5 167.857 842.175   4
  24 -17   5-676.419 1127.50   2
  17 -24   5 1677.35 933.307   4
  17 -24   5 2102.19 1201.46   2
 -17  -7   5-1379.33 858.800   4
  24 -16  -5-1645.61 998.817   3
 -16  -8  -5 1013.18 654.216   1
  24 -16  -5 1639.70 1030.24   1
   8  16  -5-529.471 634.588   3
  16 -24  -5-1959.11 1165.44   1
  16 -24  -2 1673.02 585.044   2
  24 -16  -2 2345.07 990.703   3
  16 -24  -2 2023.91 909.683   1
 -16  -8  -2 1526.69 541.146   1
   8  16  -2 145.140 637.155   3
  24 -16  -2 3685.13 1028.80   1
  16 -24   1 2457.78 804.736   2
 -16  -8   1 1161.43 680.584   4
  24 -16   1 1381.90 804.341   3
  24 -16   1 1755.97 655.909   1
   8  16   1 175.759 885.168   3
 -16  -8   1 2470.11 996.968   2
  24 -16   1 1829.56 742.257   4
  16 -24   1 3092.26 1005.87   1
  16 -24   1 2486.11 587.013   4
 -24   8   4 1405.75 663.268   4
  16 -24   4 1328.49 479.399   3
  24 -16   4 1200.43 859.449   3
 -16  -8   4 987.614 695.598   2
   8  16   4 1790.69 1370.38   3
  24 -16   4 3387.21 1319.09   4
  24 -16   4 2216.75 1419.47   2
  24 -16   4 899.255 461.158   1
  16 -24   4 910.062 654.514   4
  16 -24   4 3499.91 1384.01   2
 -16  -8   4 2725.92 1195.53   4
  16 -24   7 3771.01 1796.27   2
  24 -16   7-798.570 995.828   3
 -16  -8   7 559.427 1046.22   2
   8  16   7 1023.30 1622.56   3
  24 -16   7 1215.34 1507.64   4
  24 -16   7 162.879 1338.11   2
  16 -24   7 725.605 882.730   4
 -16  -8   7 319.673 956.970   4
 -24   8   7 2377.23 928.038   4
  24 -15  -6 3893.87 1382.10   3
 -15  -9  -6 2461.76 884.106   1
   9  15  -6 2390.24 892.403   3
  24 -15  -6 1861.13 1246.74   1
  15 -24  -6 3119.05 1563.98   1
  24 -15  -3 463.788 764.515   1
  24 -15  -3 481.196 1035.74   3
  15 -24  -3-6.88730 639.619   1
  15 -24  -3 417.971 241.207   2
   9  15  -3 1415.11 905.856   3
 -15  -9  -3 1037.51 566.605   1
  15 -24   0 866.061 353.675   4
 -15  -9   0 1818.83 888.134   4
  15 -24   0 2156.40 904.213   2
  24 -15   0 3041.56 1046.93   3
   9  15   0 1045.95 1079.77   3
 -15  -9   0 54.9913 586.625   2
  24 -15   0 1580.08 660.488   1
 -15  -9   0 594.054 495.046   1
  15 -24   0 2648.58 1061.82   1
 -15  -9   3-591.118 823.775   4
  15 -24   3-699.567 786.711   2
  24 -15   3-331.267 385.708   1
  15 -24   3 132.689 318.806   3
  24 -15   3 973.391 675.007   3
 -15  -9   3 153.222 685.942   2
   9  15   3 1794.11 1254.39   3
  24 -15   3 802.637 841.915   4
  15 -24   3 933.142 611.049   4
 -24   9   6 1335.49 687.812   4
  15 -24   6 233.557 1094.53   2
  24 -15   6 547.133 830.189   3
 -15  -9   6-2633.25 1230.94   2
   9  15   6 1705.79 1297.15   3
  24 -15   6-171.847 1109.54   4
  24 -15   6 708.218 1137.74   2
  15 -24   6 617.592 734.358   4
 -15  -9   6 3328.44 1235.40   4
  24 -14  -7 789.512 1087.24   3
 -14 -10  -7-128.382 791.363   1
  14 -24  -7 206.847 940.647   1
  24 -14  -7 357.195 866.005   1
  24 -14  -4 147.259 864.603   3
  14 -24  -4 1113.73 981.589   1
  24 -14  -4 503.086 663.061   1
  10  14  -4 1565.85 947.981   3
 -14 -10  -4 339.477 588.079   1
 -14 -10  -1 410.661 430.440   1
  14 -24  -1-195.844 776.285   1
  14 -24  -1 976.525 631.839   2
  24 -14  -1 1426.30 764.611   3
  10  14  -1-424.822 699.458   3
 -14 -10  -1 211.209 586.415   2
  24 -14  -1-108.786 422.843   1
 -14 -10   2 1229.27 729.529   4
  14 -24   2 3117.65 1098.34   2
  14 -24   2 697.847 390.041   3
  24 -14   2 930.126 723.870   3
  24 -14   2 1099.63 444.374   1
  10  14   2-575.039 886.288   3
 -14 -10   2 1505.91 898.240   2
  14 -24   2 876.818 769.761   1
  14 -24   2 1470.31 597.543   4
  14 -24   5 1110.63 1128.52   2
 -24  10   5-803.720 545.978   4
  24 -14   5 235.805 622.503   3
 -14 -10   5 1801.92 987.434   2
  10  14   5 1811.14 1480.65   3
  24 -14   5 293.774 1005.07   4
  14 -24   5-390.691 597.921   4
 -14 -10   5 1072.27 814.068   4
  24 -13  -5 827.347 845.004   3
  11  13  -5 1484.11 956.393   3
  13 -24  -5 493.656 1032.04   1
  24 -13  -5 1255.68 1122.51   1
 -13 -11  -5 239.441 708.071   1
  13 -24  -2 1529.75 949.700   1
  24 -13  -2 3087.22 1083.17   3
 -13 -11  -2 1049.93 610.433   1
  13 -24  -2 3011.36 733.225   2
  24 -13  -2 1664.58 775.606   1
  11  13  -2 2704.95 979.922   3
 -13 -11   1 289.465 637.975   4
  13 -24   1 1049.01 688.060   2
  24 -13   1-160.053 591.079   3
  11  13   1-1049.86 841.718   3
 -13 -11   1-125.798 582.747   2
  24 -13   1 1286.37 499.114   1
 -11  24   1 388.396 580.008   4
  13 -24   1 465.106 577.115   1
  13 -24   1-138.979 337.806   4
  24 -13   4 661.116 369.702   1
 -24  11   4 444.399 520.463   4
  24 -13   4 352.479 644.906   3
 -13 -11   4 1915.45 1041.50   2
  11  13   4 607.510 845.000   3
  13 -24   4 1741.55 748.316   4
 -13 -11   4 850.070 637.660   4
  13 -24   7-1561.95 1417.21   2
 -13 -11   7 646.560 1145.21   2
  24 -13   7-311.333 811.463   3
  11  13   7-2070.64 1336.33   3
  24 -13   7 2366.64 1751.44   4
  24 -13   7 474.771 1619.77   2
  13 -24   7 1296.52 869.242   4
 -13 -11   7-580.961 826.477   4
 -24  11   7 277.887 632.436   4
  24 -12  -6 3231.81 1356.82   3
  12  12  -6 402.804 737.322   3
  12 -24  -6 1980.04 1523.48   1
  24 -12  -6 1960.45 1244.50   1
 -12 -12  -6 1757.36 1064.64   1
  24 -12  -3-102.179 619.673   3
  12 -24  -3 73.5624 604.256   1
 -12 -12  -3 310.057 602.925   1
  12  12  -3-531.215 628.281   3
  12 -24  -3 687.533 305.358   2
  24 -12  -3 1859.41 813.226   1
  12 -24   0 990.703 521.648   4
 -12 -12   0 1117.08 772.547   4
  12 -24   0 1384.71 702.039   2
  24 -12   0 575.803 392.999   1
  24 -12   0 491.184 538.974   3
  12  12   0 649.522 752.525   3
 -12 -12   0 1372.18 815.988   2
 -12  24   0-108.523 574.961   4
 -12 -12   0 1172.29 480.221   1
  12 -24   0 1816.04 1048.25   1
  12 -24   3-51.5380 736.613   2
  12 -24   3 330.545 286.595   3
  24 -12   3 884.584 740.608   3
 -12 -12   3 2453.49 1170.37   2
  24 -12   3 239.362 177.568   1
  12  12   3 2621.25 1178.10   3
  12 -24   3 137.374 507.873   4
 -12 -12   3 414.142 567.146   4
 -24  12   6 821.459 580.792   4
  12 -24   6 1157.95 971.787   2
 -12 -12   6 1332.92 1347.89   2
  24 -12   6 885.586 1104.06   3
  12  12   6 1709.03 1403.38   3
  24 -12   6 3186.52 1826.34   4
  12 -24   6 948.013 718.670   4
 -12 -12   6 346.155 735.659   4
 -11 -13  -7 1080.69 939.745   1
  24 -11  -7 482.077 939.738   1
  24 -11  -7-1146.15 1043.81   3
  13  11  -7-876.648 755.216   3
  11 -24  -7-903.553 985.929   1
  24 -11  -4 1594.40 926.508   3
  11 -24  -4 1279.97 925.932   1
  13  11  -4 1467.24 913.281   3
 -11 -13  -4 936.059 741.326   1
  24 -11  -4-58.4567 733.985   1
  11 -24  -1 1454.30 870.396   1
  11 -24  -1 37.1540 335.972   4
 -11 -13  -1 1804.86 1010.28   4
  24 -11  -1 1263.32 1036.75   3
  11 -24  -1-367.924 467.180   2
  13  11  -1-613.728 833.721   3
 -11 -13  -1-176.488 561.911   2
  24 -11  -1 206.206 436.511   1
 -11 -13  -1-161.745 375.147   1
 -11 -13   2 1648.78 936.745   4
  11 -24   2 1285.20 844.152   2
  24 -11   2 2559.91 976.427   3
  13  11   2 1098.27 939.314   3
 -11 -13   2 574.637 768.339   2
  11 -24   2 1656.01 690.110   4
 -24  13   5 587.516 422.985   4
  11 -24   5 2332.32 1258.42   2
  24 -11   5-291.758 753.206   3
 -11 -13   5 1361.20 1195.26   2
  13  11   5 1204.07 1044.58   3
 -13  24   5 596.197 563.925   4
  11 -24   5 920.558 631.900   4
 -11 -13   5 233.404 710.781   4
  24 -10  -5-675.336 716.610   1
  24 -10  -5 685.891 835.538   3
  14  10  -5-578.447 669.396   3
  10 -24  -5 1308.05 1043.96   1
 -10 -14  -5-293.138 644.018   1
  10 -24  -2 1923.61 1019.91   1
 -10 -14  -2 831.568 623.152   1
  24 -10  -2 2536.65 1051.31   3
  10 -24  -2 990.627 500.788   2
  14  10  -2 1999.65 999.002   3
 -10 -14  -2-1051.18 841.326   2
  24 -10  -2 533.823 472.122   1
 -10 -14   1 1362.18 715.888   4
  10 -24   1 763.753 770.833   2
  24 -10   1-871.817 617.871   3
  14  10   1 1195.38 921.587   3
 -10 -14   1 1192.58 996.829   2
 -14  24   1-111.508 403.644   4
  10 -24   1 385.979 507.193   1
  10 -24   1 344.576 566.316   4
  10 -24   4 2507.70 1265.98   2
  24 -10   4 1441.64 898.086   3
 -10 -14   4 775.560 909.888   2
  14  10   4 714.142 983.640   3
 -14  24   4 360.015 310.131   4
  10 -24   4-563.128 545.864   4
 -10 -14   4 205.235 606.654   4
  10 -24   7-813.743 1107.26   2
 -10 -14   7-948.141 1058.13   2
  24 -10   7 222.157 912.273   3
  14  10   7-1467.08 1365.16   3
  24 -10   7 1066.86 1515.20   4
  10 -24   7 545.660 831.591   4
 -10 -14   7 286.576 846.467   4
  24  -9  -6 965.682 868.810   3
  15   9  -6 822.273 829.649   3
  24  -9  -6 2422.54 1162.85   1
   9 -24  -6 3042.69 1459.93   1
  -9 -15  -6 574.044 885.508   1
  24  -9  -3 661.148 652.652   3
   9 -24  -3-1044.60 846.573   1
  -9 -15  -3-966.528 632.510   1
  24  -9  -3 727.531 623.461   1
  15   9  -3-1083.89 819.615   3
   9 -24  -3 442.401 417.422   2
   9 -24   0 1654.81 607.183   4
  -9 -15   0 1248.98 808.430   4
   9 -24   0 2748.34 888.702   2
  24  -9   0 2750.62 1027.58   3
  15   9   0 103.627 806.257   3
  -9 -15   0 3251.42 1103.59   2
 -15  24   0 1178.79 690.418   4
  -9 -15   0 1356.94 737.183   1
   9 -24   0-544.125 559.826   1
   9 -24   3 2196.45 1146.62   2
  24  -9   3 1358.07 632.627   3
  -9 -15   3-843.020 813.273   2
  15   9   3 997.522 1143.44   3
   9 -24   3 1801.01 860.722   4
  -9 -15   3 1827.06 916.970   4
   9 -24   6 3689.65 1543.71   2
  -9 -15   6 2190.48 1373.35   2
  24  -9   6 1942.95 1414.87   3
  15   9   6 3321.03 1914.37   3
   9 -24   6 2853.53 1314.39   4
  -9 -15   6 956.217 1002.99   4
  24  -8  -7 1305.25 1256.61   3
  16   8  -7-161.559 686.099   3
   8 -24  -7 1252.76 1215.07   1
  24  -8  -7 2184.80 1261.62   1
  -8 -16  -7 1249.87 1128.54   1
  24  -8  -4 4197.41 1427.43   3
   8 -24  -4 637.329 868.200   1
  16   8  -4 2084.27 1056.53   3
  -8 -16  -4 1062.75 829.510   1
  24  -8  -4 3481.40 1080.40   1
   8 -24  -1 3049.56 1209.22   1
   8 -24  -1 707.096 554.452   4
  -8 -16  -1 2962.60 938.634   4
  24  -8  -1 970.079 832.600   3
   8 -24  -1 1368.05 725.670   2
  16   8  -1 950.296 741.280   3
  -8 -16  -1 1437.25 663.161   2
  -8 -16  -1 1869.36 594.784   1
  -8 -16   2 1060.59 716.135   4
   8 -24   2 2746.94 1020.82   2
  24  -8   2 675.351 602.064   3
  16   8   2 1117.47 1145.08   3
  -8 -16   2 1753.58 880.512   2
   8 -24   2 2239.78 770.092   4
   8 -24   5 1555.20 934.094   2
  -8 -16   5 687.437 922.898   2
  24  -8   5 855.043 925.701   3
  16   8   5 682.191 1013.18   3
   8 -24   5 1124.76 822.080   4
  -8 -16   5 248.590 824.288   4
  24  -7  -5 1058.18 880.924   3
  17   7  -5-190.988 745.175   3
   7 -24  -5 565.184 806.688   1
  -7 -17  -5 501.271 693.683   1
  24  -7  -5-42.5629 686.133   1
  24  -7  -2 1055.85 414.274   1
   7 -24  -2 17.3192 850.048   1
  -7 -17  -2-432.783 630.134   1
  24  -7  -2 942.033 875.900   3
  17   7  -2-422.436 655.967   3
   7 -24  -2 337.144 426.070   2
  -7 -17  -2 847.383 700.595   2
  -7 -17   1 582.300 610.168   4
   7 -24   1-193.290 710.889   2
  24  -7   1 2234.00 1173.31   3
  17   7   1 695.457 971.192   3
  -7 -17   1 823.303 741.376   2
   7 -24   1-332.555 693.311   1
   7 -24   1-101.579 528.211   4
   7 -24   4 1033.83 808.020   2
  24  -7   4 4230.80 1478.26   3
  -7 -17   4 2589.05 1109.89   2
  17   7   4 1909.81 1045.68   3
   7 -24   4 1710.79 893.971   4
  -7 -17   4 1919.34 964.007   4
   7 -24   7 470.814 977.702   2
  -7 -17   7 1078.53 1302.43   2
  24  -7   7 766.889 1101.12   3
  17   7   7 802.219 1154.49   3
   7 -24   7 151.662 868.849   4
  -7 -17   7 1134.42 997.092   4
  24  -6  -6 160.212 780.285   3
  24  -6  -6 1241.50 994.647   1
  18   6  -6 1534.73 903.960   3
   6 -24  -6 198.420 1054.30   1
  -6 -18  -6 659.497 981.454   1
  24  -6  -3 585.685 534.966   1
   6 -24  -3 752.835 1080.82   1
  -6 -18  -3 265.460 568.381   1
  24  -6  -3 174.927 899.029   3
  18   6  -3 2215.23 1183.05   3
   6 -24  -3 1027.33 546.809   2
   6 -24   0 1971.82 715.045   4
  -6 -18   0 1958.31 874.966   4
  24  -6   0 4138.01 1178.67   3
   6 -24   0 3102.52 973.049   2
  18   6   0 3256.60 1230.81   3
  -6 -18   0 3882.20 1258.32   2
  -6 -18   0 4356.63 1122.95   1
   6 -24   0 4020.70 1269.89   1
   6 -24   3 2013.83 1040.99   2
  24  -6   3 2571.88 1169.84   3
  -6 -18   3 2384.34 1166.90   2
  18   6   3 218.070 958.829   3
   6 -24   3 147.996 564.172   4
  -6 -18   3-4.17978 562.383   4
   6 -24   6 3342.95 1392.75   2
  -6 -18   6-808.311 788.152   2
  24  -6   6 119.623 867.134   3
  18   6   6 72.6968 1022.46   3
   6 -24   6 2254.73 1062.57   4
  -6 -18   6 2715.76 1094.98   4
  24  -5  -4 393.079 658.316   3
   5 -24  -4-365.574 904.259   1
  24  -5  -4 2083.69 831.598   1
  19   5  -4 1770.71 1035.09   3
  -5 -19  -4 638.787 801.433   1
   5 -24  -1 180.318 503.229   4
  -5 -19  -1 2531.33 980.345   4
  24  -5  -1 1407.52 1047.78   3
  19   5  -1 1012.68 798.412   3
   5 -24  -1 673.159 638.720   2
  -5 -19  -1 630.026 627.205   2
  -5 -19  -1 1690.19 782.450   1
   5 -24  -1 1517.39 867.240   1
  -5 -19   2 1253.54 726.825   4
   5 -24   2-193.508 817.297   2
  24  -5   2 192.029 871.205   3
  -5 -19   2 102.220 807.599   2
  19   5   2 203.919 909.697   3
   5 -24   2 1189.95 737.495   4
   5 -24   5-749.640 846.792   2
  -5 -19   5 650.138 809.355   2
  24  -5   5-737.664 811.707   3
  19   5   5-335.021 885.395   3
   5 -24   5 1205.64 961.083   4
  -5 -19   5 386.227 681.249   4
  24  -4  -5 1483.45 847.161   3
  20   4  -5 175.903 893.935   3
   4 -24  -5 457.872 926.056   1
  -4 -20  -5 21.0231 934.943   1
  24  -4  -5 476.684 731.452   1
   4 -24  -2 2356.72 1090.83   1
  -4 -20  -2 1592.87 889.330   1
  24  -4  -2 1790.37 1086.12   3
  20   4  -2 1732.77 1014.57   3
   4 -24  -2 13.3528 553.048   2
  -4 -20  -2 1015.24 727.880   2
   4 -24   1 26.9824 501.916   4
  -4 -20   1 762.885 528.172   4
   4 -24   1 474.928 632.084   2
  24  -4   1 1266.38 1052.27   3
  20   4   1-59.8791 837.189   3
  -4 -20   1 1135.97 899.625   2
   4 -24   1 913.270 881.449   1
   4 -24   4 2097.32 1186.05   2
  -4 -20   4 925.656 956.732   2
  24  -4   4 2268.58 1172.21   3
  20   4   4-122.219 758.018   3
   4 -24   4 312.655 726.120   4
  -4 -20   4 795.194 726.431   4
  24  -3  -6 2671.52 1221.10   3
  21   3  -6 708.652 888.932   3
  24  -3  -6 1638.08 1119.52   1
   3 -24  -6 668.472 1019.39   1
  -3 -21  -6 1955.72 1038.67   1
   3 -24  -3-314.193 794.823   1
  -3 -21  -3-264.836 700.443   1
  24  -3  -3 219.230 685.271   3
  21   3  -3 709.949 714.702   3
   3 -24  -3 1637.89 792.555   2
  -3 -21  -3 807.041 806.929   2
   3 -24   0 3653.45 1020.60   4
  -3 -21   0 2400.22 960.486   4
  24  -3   0 2393.21 1125.87   3
  21   3   0 3216.50 1350.75   3
   3 -24   0 3854.86 1141.61   2
  -3 -21   0 3190.88 1032.09   2
  -3 -21   0 1687.30 974.469   1
   3 -24   0 5445.92 1427.32   1
   3 -24   3 285.207 680.021   2
  -3 -21   3-508.505 874.634   2
  24  -3   3 1899.21 1028.25   3
  21   3   3 2537.88 1441.33   3
   3 -24   3 746.846 786.769   4
  -3 -21   3-1137.37 944.962   4
   3 -24   6 1190.33 886.567   2
  -3 -21   6 3229.08 1479.89   2
  24  -3   6 2429.68 1408.23   3
  21   3   6 2824.13 1708.74   3
   3 -24   6 2743.34 1104.33   4
  -3 -21   6 2584.74 1194.14   4
  24  -2  -4 658.081 911.549   3
   2 -24  -4-317.742 939.062   1
  22   2  -4 890.808 849.247   3
  -2 -22  -4 2451.55 1185.51   1
   2 -24  -1 1059.96 800.051   4
  -2 -22  -1 1055.29 712.289   4
  24  -2  -1 1011.58 1106.12   3
  22   2  -1 1918.82 1085.33   3
   2 -24  -1 182.372 554.723   2
  -2 -22  -1 854.302 749.721   2
  -2 -22  -1 913.928 596.301   1
   2 -24  -1 1560.08 1003.48   1
  -2 -22   2-99.5167 609.776   4
   2 -24   2 2106.43 1154.88   2
  24  -2   2 571.437 837.753   3
  -2 -22   2 1362.39 1160.45   2
  22   2   2 1125.44 1037.55   3
   2 -24   2-41.9859 536.899   4
   2 -24   5 829.760 1093.94   2
  -2 -22   5-760.540 1036.86   2
  24  -2   5 901.005 1050.39   3
  22   2   5-2.49556 1031.23   3
   2 -24   5 1542.08 980.800   4
  -2 -22   5 894.114 695.831   4
  24  -1  -5 1394.16 1176.67   3
  23   1  -5 1263.74 1029.76   3
   1 -24  -5-8.46227 931.516   1
  -1 -23  -5-100.683 838.927   1
   1 -24  -2-105.989 932.051   1
  -1 -23  -2-575.969 869.094   1
  24  -1  -2-1679.17 935.086   3
  23   1  -2-785.234 892.005   3
   1 -24  -2 949.615 621.357   2
  -1 -23  -2 250.880 619.739   2
   1 -24   1 264.382 641.275   4
  -1 -23   1-486.677 522.600   4
  24  -1   1 2174.93 1149.45   3
  23   1   1 415.807 864.691   3
   1 -24   1 389.938 762.841   2
  -1 -23   1 790.509 918.658   2
  -1 -23   1 1257.76 734.771   1
   1 -24   1-387.592 805.257   1
   1 -24   4 2521.26 1288.86   2
  -1 -23   4-108.953 771.576   2
  24  -1   4-459.503 812.978   3
  23   1   4 602.819 945.296   3
   1 -24   4 96.7144 596.972   4
  -1 -23   4 877.190 782.515   4
   0 -24  -3 420.762 738.306   1
   0 -24  -3 345.855 585.762   2
   0 -24   0 1931.57 900.487   4
  24   0   0 410.640 764.009   3
   0 -24   0 2268.43 931.647   2
   0 -24   0 1347.46 876.510   1
   0 -24   3 1357.81 1241.81   2
  24   0   3-915.211 1179.05   3
   0 -24   3-512.175 564.390   4
  25 -25  -4-98.0752 886.370   1
  25 -25  -1 1075.67 792.932   3
  25 -25  -1 123.319 679.698   1
   0  25  -1 1533.74 1252.92   3
  25 -25  -1 2019.52 1040.75   2
  25 -25   2 1028.65 834.182   1
 -25   0   2 744.812 817.827   4
  25 -25   2 77.3182 567.821   3
   0  25   2 2537.20 1461.74   3
  25 -25   2 2075.43 1286.62   2
  24 -25  -2 908.779 736.247   3
  25 -24  -2 2464.17 1073.82   3
  24 -25  -2 571.188 718.307   1
  25 -24  -2-110.528 714.956   1
   1  24  -2 1824.19 1187.52   3
  25 -24  -2 1501.56 906.597   2
  24 -25  -2 1222.60 870.779   2
  24 -25   1 1996.18 965.119   1
  25 -24   1 1008.89 835.301   1
  24 -25   1-315.460 565.123   3
  25 -24   1 731.007 695.478   3
   1  24   1 2091.75 1599.10   3
  -1  25   1 2179.03 1361.55   3
  25 -24   1 764.924 912.214   2
  24 -25   1 138.566 847.271   2
 -24  -1   4 470.586 813.588   4
 -25   1   4 1574.54 968.275   4
  24 -25   4 473.697 655.464   3
  25 -24   4-271.757 545.159   3
   1  24   4-623.876 1181.80   3
 -24  -1   4 426.672 1006.18   2
  -1  25   4-1635.59 1440.93   3
  25 -24   4 1320.22 1191.30   2
  24 -25   4 747.415 746.073   1
  25 -24   4 114.589 842.177   1
  24 -25   4-231.216 952.245   2
  25 -23  -3 3968.31 1270.70   3
  23 -25  -3 2133.62 1168.82   1
  25 -23  -3 3384.02 1317.84   1
   2  23  -3 3364.80 1201.23   3
  23 -25   0-202.682 541.709   3
  23 -25   0 796.140 792.481   1
  25 -23   0 1286.79 822.581   3
  25 -23   0 1888.29 954.248   1
   2  23   0 2896.18 1450.50   3
  25 -23   0 1425.50 997.339   2
  23 -25   0 1221.73 930.899   2
 -23  -2   3 2710.53 1122.41   4
 -25   2   3 2306.76 890.805   4
  23 -25   3 1397.20 765.814   3
  25 -23   3 1033.89 735.919   3
   2  23   3 3251.30 1716.80   3
 -23  -2   3 4052.13 1571.50   2
  25 -23   3 623.976 1021.79   2
  23 -25   3 1502.10 1362.18   2
  23 -25   3 1590.47 956.156   1
  25 -23   3 3128.73 1104.02   1
  25 -22  -4 1447.32 1068.73   3
  22 -25  -4 451.400 969.062   1
  25 -22  -4 1146.99 1054.80   1
  22 -25  -1 1952.24 858.857   3
  25 -22  -1-650.734 671.765   3
  22 -25  -1-220.606 630.465   1
  25 -22  -1 547.076 746.897   1
   3  22  -1 1552.20 1262.60   3
  25 -22  -1 879.894 913.896   2
  22 -25  -1 1906.86 921.643   2
 -22  -3   2-1293.57 787.936   4
  25 -22   2 134.461 573.841   1
  22 -25   2 1161.39 642.375   3
  25 -22   2 1050.59 649.775   3
   3  22   2 730.780 1153.49   3
  25 -22   2 113.982 830.556   2
  22 -25   2 612.554 856.189   2
  22 -25   2 151.745 568.515   1
 -22  -3   5 274.393 806.764   4
 -25   3   5-77.9601 630.199   4
  25 -22   5 645.104 718.462   3
 -22  -3   5 1604.70 1281.87   2
   3  22   5 505.071 1532.96   3
  25 -22   5 1125.32 928.249   4
  25 -22   5 28.9538 679.259   1
  25 -22   5-141.187 1008.78   2
  22 -25   5 272.988 689.968   4
  22 -25   5 3145.27 1688.24   2
  25 -21  -5 76.4956 884.565   3
  21 -25  -5 660.615 941.765   1
  25 -21  -5 787.020 1008.28   1
  25 -21  -2-361.532 669.657   3
  21 -25  -2 1526.29 1006.49   1
   4  21  -2 2148.40 1167.36   3
  25 -21  -2 1428.08 966.527   1
  21 -25  -2 1047.66 747.785   2
  21 -25   1-324.003 839.734   1
 -21  -4   1 1719.75 837.233   4
  21 -25   1 2224.53 841.557   3
  25 -21   1 1093.51 842.102   1
  25 -21   1 1114.74 560.416   3
   4  21   1 2639.82 1277.63   3
  25 -21   1 1396.43 963.105   2
  21 -25   1 199.889 888.961   2
 -21  -4   4 337.720 678.276   4
 -25   4   4 135.868 601.907   4
  21 -25   4 1018.16 535.614   3
  25 -21   4 924.286 736.284   3
 -21  -4   4 3277.36 1420.59   2
   4  21   4 1797.86 1428.39   3
  25 -21   4 3591.64 1204.58   4
  25 -21   4 2594.81 1641.48   2
  21 -25   4 2682.73 900.619   4
  25 -21   4 734.893 509.975   1
  21 -25   4 1273.61 1290.13   2
  25 -20  -6-152.188 859.605   3
  20 -25  -6-152.798 889.273   1
  25 -20  -3 3646.78 1243.45   3
  20 -25  -3 2943.92 1240.60   1
   5  20  -3 1837.18 1031.48   3
  25 -20  -3 1532.34 836.140   1
  20 -25   0 2584.15 1079.32   1
  20 -25   0 1264.03 651.905   3
  25 -20   0-49.3143 694.922   3
  25 -20   0 1028.64 757.748   1
   5  20   0 689.665 1088.12   3
  25 -20   0 497.046 1012.07   2
  20 -25   0 1803.61 676.352   2
 -20  -5   3 1403.44 722.966   4
 -25   5   3 409.720 608.482   4
  20 -25   3 3100.79 845.466   3
  25 -20   3 1547.00 812.873   3
   5  20   3 2823.65 1629.76   3
 -20  -5   3 2145.73 1141.22   2
  25 -20   3 3931.57 1142.37   4
  25 -20   3 2604.65 1337.53   2
  20 -25   3 661.621 669.380   1
  20 -25   3 2511.25 783.158   4
  20 -25   3 4363.38 1598.36   2
  25 -20   3 2235.62 833.337   1
 -25   5   6 727.084 685.216   4
  25 -20   6 276.544 818.647   3
 -20  -5   6 1620.22 1245.36   2
   5  20   6 2429.18 1662.33   3
  25 -20   6 615.964 1079.72   4
  25 -20   6 1886.78 1548.52   2
  20 -25   6 504.557 918.884   4
  20 -25   6 1819.50 1377.19   2
 -20  -5   6 749.387 779.492   4
  25 -19  -4 2463.63 1337.13   3
  19 -25  -4 1620.12 1188.07   1
   6  19  -4 777.063 775.088   3
  25 -19  -4 183.014 729.581   1
  19 -25  -1 1184.56 729.340   2
  19 -25  -1 2342.24 1059.93   1
  25 -19  -1 897.567 906.649   3
 -19  -6  -1 210.120 238.416   1
   6  19  -1 1081.52 765.765   3
 -19  -6   2-7.36288 610.572   4
  25 -19   2 71.1660 628.744   1
  19 -25   2 507.555 509.889   3
  25 -19   2 89.2304 693.016   3
   6  19   2-690.870 985.291   3
 -19  -6   2 709.418 797.322   2
  25 -19   2-877.786 1090.58   2
  25 -19   2-479.761 605.203   4
  19 -25   2 245.926 652.226   1
  19 -25   2-10.9281 402.794   4
  19 -25   2-2091.07 1103.24   2
 -25   6   5 1647.72 877.772   4
  25 -19   5 755.502 946.184   3
 -19  -6   5 1917.96 1116.97   2
   6  19   5 1910.56 1581.65   3
  25 -19   5 1007.50 1038.03   4
  25 -19   5 315.268 947.241   2
  25 -19   5 1296.23 732.881   1
  19 -25   5 1516.64 852.441   4
  19 -25   5-289.181 890.189   2
 -19  -6   5 16.1655 625.114   4
  25 -18  -5 842.482 990.588   3
  25 -18  -5-401.660 925.542   1
  18 -25  -5 1127.24 1003.28   1
  18 -25  -2 2526.91 719.246   2
  25 -18  -2 1012.94 828.097   3
  18 -25  -2 1110.99 768.325   1
   7  18  -2 1640.38 973.172   3
 -18  -7  -2 967.245 377.344   1
  25 -18  -2-707.605 638.037   1
 -18  -7   1 1604.47 898.426   4
  18 -25   1 2786.21 825.628   3
  25 -18   1 1950.84 828.011   3
  25 -18   1 1838.62 864.306   1
   7  18   1 2729.51 1243.86   3
 -18  -7   1 2035.32 1105.72   2
  25 -18   1 1407.38 674.942   4
  18 -25   1 2874.93 1100.31   1
  18 -25   1 684.717 356.988   4
  18 -25   1 1036.76 967.117   2
 -18  -7   4 2491.26 958.926   4
 -25   7   4 796.543 646.079   4
  18 -25   4 1021.30 461.242   3
  25 -18   4 1320.85 981.478   3
 -18  -7   4 1147.66 952.596   2
   7  18   4 1831.55 1073.32   3
  25 -18   4 1664.18 1074.01   4
  25 -18   4 1531.62 1400.23   2
  18 -25   4 2481.69 974.343   4
  25 -18   4 1058.35 614.660   1
  18 -25   4 1610.95 1099.09   2
  25 -17  -6 331.772 815.231   3
  25 -17  -6 1431.26 893.019   1
  17 -25  -6 322.529 880.197   1
  25 -17  -3 5199.71 1365.59   3
  17 -25  -3 2767.63 1325.76   1
   8  17  -3 2078.63 818.327   3
 -17  -8  -3 1098.76 490.287   1
  25 -17  -3 2744.23 1115.40   1
  17 -25   0 2879.96 1006.78   1
  17 -25   0 882.161 727.764   2
  17 -25   0 232.655 224.646   4
 -17  -8   0 114.332 626.343   4
  25 -17   0 647.097 661.190   3
   8  17   0 218.123 891.103   3
  25 -17   0 2660.47 890.526   1
 -17  -8   0 1386.26 1012.45   2
  25 -17   0 304.467 433.131   4
 -17  -8   0 453.664 419.707   1
 -17  -8   3 2177.83 922.452   4
  25 -17   3 2746.90 834.185   1
  17 -25   3 117.332 363.759   3
  25 -17   3 1237.90 697.732   3
   8  17   3 3038.60 1543.22   3
 -17  -8   3 1421.55 964.572   2
  25 -17   3 1172.65 846.971   4
  17 -25   3 2084.00 694.837   4
  17 -25   3 755.407 962.815   2
 -25   8   6 1597.17 815.400   4
  25 -17   6 1581.92 972.994   3
 -17  -8   6 2042.17 1110.31   2
   8  17   6 2627.98 1965.94   3
  25 -17   6 1042.37 1107.05   4
  25 -17   6 1439.08 1487.48   2
  17 -25   6 1720.78 1029.82   4
 -17  -8   6 1484.95 1055.92   4
  17 -25   6 3513.56 1788.68   2
  25 -16  -4-263.043 664.639   1
  16 -25  -4-237.256 668.837   1
   9  16  -4-364.599 629.373   3
 -16  -9  -4-547.550 662.950   1
  16 -25  -1 838.789 620.117   1
  16 -25  -1 785.691 560.362   2
 -16  -9  -1 704.825 435.536   1
  25 -16  -1 450.845 640.281   3
   9  16  -1 713.431 1062.51   3
  25 -16  -1 789.869 670.176   1
  16 -25   2 1806.89 1079.97   2
 -16  -9   2 233.669 576.931   4
  16 -25   2 455.726 449.531   3
  25 -16   2 35.7994 724.708   3
  25 -16   2 841.650 468.129   1
   9  16   2 1705.56 1123.77   3
 -16  -9   2 632.680 781.215   2
  25 -16   2-100.572 626.110   4
  16 -25   2 336.492 567.411   1
  16 -25   2-98.0347 384.178   4
  16 -25   5 2519.77 1439.67   2
 -25   9   5 227.367 478.050   4
  25 -16   5 1910.47 1067.30   3
 -16  -9   5 2440.60 1300.09   2
   9  16   5 1800.13 1351.44   3
  25 -16   5 1146.53 1191.57   4
  25 -16   5 300.575 946.059   2
  25 -16   5 664.376 485.297   1
  16 -25   5 116.836 622.087   4
 -16  -9   5 1478.77 1111.04   4
  25 -15  -5 1058.71 867.255   3
  10  15  -5 2047.16 950.642   3
  15 -25  -5 1986.97 1204.40   1
  25 -15  -5 741.567 892.242   1
 -15 -10  -5 356.537 649.180   1
  25 -15  -2 2244.06 788.202   1
  15 -25  -2 551.355 660.890   1
  25 -15  -2 2163.23 1066.85   3
  15 -25  -2 1375.71 636.365   2
 -15 -10  -2 1198.30 653.488   1
  10  15  -2 2792.80 1084.33   3
 -15 -10   1 2016.56 909.072   4
  15 -25   1 832.473 726.995   2
  25 -15   1 1443.70 880.365   3
  10  15   1 1717.29 993.690   3
  25 -15   1 2056.31 691.008   1
 -15 -10   1 2153.46 1133.76   2
  15 -25   1-176.475 537.474   1
  15 -25   1 1224.03 511.128   4
  15 -25   4 583.455 762.010   2
 -25  10   4-175.583 441.191   4
  25 -15   4 458.529 842.101   3
 -15 -10   4 1190.36 1159.76   2
  10  15   4 332.386 1068.69   3
  25 -15   4 3278.76 1387.77   4
  15 -25   4 2130.03 909.354   4
  25 -15   4 824.565 493.222   1
 -15 -10   4 454.823 741.941   4
 -25  10   7 336.561 610.420   4
  15 -25   7-186.563 1314.45   2
  25 -15   7 597.590 958.916   3
 -15 -10   7 1907.33 1214.81   2
  10  15   7 3651.94 1874.36   3
  25 -15   7 2732.06 1586.09   4
  25 -15   7 1459.82 1258.74   2
  15 -25   7 2071.37 1098.09   4
 -15 -10   7 797.636 914.244   4
 -14 -11  -6 158.073 734.691   1
  25 -14  -6 676.483 1022.80   3
  11  14  -6 118.269 690.476   3
  25 -14  -6 645.982 955.682   1
  25 -14  -3 1792.92 988.876   3
  14 -25  -3 2838.21 1329.83   1
  25 -14  -3 3444.21 1109.65   1
  11  14  -3 205.772 656.976   3
 -14 -11  -3 1360.04 693.042   1
  14 -25   0 157.331 381.495   4
 -14 -11   0-253.663 579.951   4
  14 -25   0 333.852 600.081   2
  25 -14   0 505.252 539.061   3
  11  14   0-958.565 941.309   3
 -14 -11   0 933.765 666.711   2
 -14 -11   0-261.947 391.135   1
  25 -14   0 890.905 541.089   1
  14 -25   0 254.124 655.164   1
 -14 -11   3-49.2129 535.636   4
  14 -25   3 1468.44 1033.80   2
  14 -25   3 106.134 290.624   3
  25 -14   3 340.874 314.867   1
  25 -14   3-67.8723 583.739   3
 -14 -11   3 1318.32 953.449   2
  11  14   3 260.956 1100.78   3
  14 -25   3 10.5614 510.830   4
 -25  11   6 378.349 617.862   4
  14 -25   6 633.487 1164.80   2
  25 -14   6 1339.27 1046.97   3
 -14 -11   6 2296.39 1387.69   2
  11  14   6 2264.11 1317.67   3
  25 -14   6 1762.64 1489.73   4
  25 -14   6-150.162 1247.34   2
  14 -25   6 1328.69 975.326   4
 -14 -11   6 1088.54 865.426   4
  25 -13  -7 1133.91 1138.97   3
 -13 -12  -7 1314.28 970.039   1
  13 -25  -7 398.670 978.200   1
  25 -13  -7 2015.27 1317.94   1
  25 -13  -4 754.778 730.593   3
  13 -25  -4 3039.64 1317.33   1
  12  13  -4 934.740 874.090   3
 -13 -12  -4 245.180 556.089   1
  25 -13  -4 2274.26 995.907   1
 -13 -12  -1 769.434 531.538   1
  13 -25  -1 547.056 644.927   1
  13 -25  -1 1280.12 532.714   2
  25 -13  -1 1795.31 893.432   3
  25 -13  -1-48.0159 485.691   1
  12  13  -1-252.855 696.473   3
 -13 -12  -1 381.544 741.778   2
 -13 -12   2 871.539 752.277   4
  13 -25   2 2754.44 1058.01   2
  25 -13   2 2690.56 1013.75   3
  12  13   2 2795.70 1395.65   3
 -13 -12   2 2129.61 1073.87   2
  13 -25   2 973.529 625.082   1
  25 -13   2 852.446 296.245   1
  13 -25   2 1732.13 574.395   4
 -25  12   5 938.533 557.492   4
  13 -25   5 1742.01 1352.11   2
  25 -13   5-1138.68 930.562   3
 -13 -12   5 2383.90 1096.79   2
  12  13   5 1968.96 1490.14   3
  25 -13   5 2171.75 1348.81   4
  13 -25   5 937.442 634.888   4
 -13 -12   5 580.926 746.524   4
  25 -12  -5 885.947 965.026   3
  13  12  -5 2122.38 932.824   3
  12 -25  -5 468.409 1177.68   1
 -12 -13  -5 168.652 707.396   1
  25 -12  -5 2825.24 1156.92   1
  12 -25  -2 3198.11 1350.91   1
 -12 -13  -2 1749.35 580.621   1
  25 -12  -2 4279.12 1458.48   3
  12 -25  -2 3157.71 719.500   2
  13  12  -2 817.073 888.918   3
  25 -12  -2 945.819 632.735   1
 -12 -13   1 642.304 586.915   4
  12 -25   1 3065.35 1209.31   2
  25 -12   1 100.198 543.915   3
 -12 -13   1 1315.98 956.674   2
  12 -25   1 1137.30 737.686   1
  12 -25   1 1258.40 591.477   4
  12 -25   4 4343.28 1519.69   2
  25 -12   4 435.650 742.012   3
 -12 -13   4 2196.39 1367.04   2
  13  12   4 1631.54 1307.53   3
  12 -25   4 661.138 543.230   4
 -12 -13   4 909.108 712.358   4
  12 -25   7-193.518 1063.44   2
 -12 -13   7 1957.33 1372.41   2
  25 -12   7 1864.37 1146.08   3
  13  12   7 1471.01 1754.61   3
  25 -12   7-1223.50 1516.87   4
  25 -12   7-609.450 1216.94   2
  12 -25   7 1608.83 928.502   4
 -12 -13   7 186.932 855.638   4
  25 -11  -6 1335.61 977.561   1
  25 -11  -6 2285.56 1363.90   3
  14  11  -6 1595.66 803.879   3
  11 -25  -6 18.4936 1013.58   1
 -11 -14  -6 203.641 746.400   1
  25 -11  -3-194.240 742.383   3
  11 -25  -3 2450.87 1009.60   1
 -11 -14  -3 384.554 571.669   1
  14  11  -3-63.0829 877.725   3
  11 -25  -3 882.125 403.215   2
  25 -11  -3 1165.27 780.363   1
  11 -25   0 801.888 562.350   4
 -11 -14   0-295.397 624.723   4
  11 -25   0-318.627 610.170   2
  25 -11   0-277.185 726.321   3
  25 -11   0 291.450 195.056   1
  14  11   0-156.783 782.703   3
 -11 -14   0 396.512 562.556   2
 -11 -14   0-341.018 445.844   1
  11 -25   0-312.140 837.348   1
 -11 -14   3 799.240 548.245   4
  11 -25   3 3840.56 1299.73   2
  11 -25   3 1376.58 381.804   3
  25 -11   3 3379.13 1131.78   3
 -11 -14   3 1472.54 1017.31   2
  14  11   3 3761.94 1460.73   3
  11 -25   3 1458.87 744.470   4
  11 -25   6 619.224 1263.75   2
 -11 -14   6 1529.94 1158.82   2
  25 -11   6 8.27611 1018.02   3
  14  11   6 601.426 1324.25   3
  11 -25   6-616.752 865.189   4
 -11 -14   6 129.423 740.303   4
  25 -10  -7 3643.21 1596.37   3
  15  10  -7 421.153 842.501   3
  25 -10  -7 3323.12 1430.27   1
  10 -25  -7-138.948 992.268   1
 -10 -15  -7 775.265 1003.01   1
  25 -10  -4 2427.99 1244.00   3
  25 -10  -4 2677.57 1027.83   1
  10 -25  -4 2307.94 1330.19   1
  15  10  -4 477.190 669.732   3
 -10 -15  -4 2447.63 923.960   1
  10 -25  -1 770.574 647.694   1
  10 -25  -1 1965.77 650.329   4
 -10 -15  -1 1580.43 998.241   4
  25 -10  -1 2214.37 1015.32   3
  10 -25  -1 1875.83 625.695   2
  15  10  -1 3836.70 1443.52   3
  25 -10  -1 939.960 343.693   1
 -10 -15  -1 310.240 749.458   2
 -10 -15  -1 983.291 657.306   1
 -10 -15   2 2817.19 990.725   4
  10 -25   2 2946.79 1141.21   2
  25 -10   2 2171.39 923.924   3
  15  10   2 747.156 976.375   3
 -10 -15   2 2313.55 1096.44   2
  10 -25   2 1442.86 713.762   4
  10 -25   5-1805.33 1204.28   2
  25 -10   5 2438.68 1405.77   3
 -10 -15   5 1895.32 1073.46   2
  15  10   5 1323.49 969.759   3
  10 -25   5 1329.99 908.739   4
 -10 -15   5 862.373 749.449   4
  25  -9  -5 432.393 744.507   3
  16   9  -5-551.168 751.105   3
   9 -25  -5 102.096 768.813   1
  25  -9  -5 1376.95 920.639   1
  -9 -16  -5 1706.64 1064.52   1
   9 -25  -2 1452.06 794.308   1
  -9 -16  -2-328.341 487.164   1
  25  -9  -2 607.890 707.714   3
  16   9  -2-1286.85 901.951   3
   9 -25  -2 742.318 566.110   2
  -9 -16  -2-329.585 652.424   2
  25  -9  -2 14.7587 401.881   1
  -9 -16   1 875.013 771.803   4
   9 -25   1 1190.84 816.629   2
  25  -9   1 658.270 717.854   3
  16   9   1 243.405 912.193   3
  -9 -16   1 1772.46 1018.58   2
   9 -25   1 703.345 645.529   1
   9 -25   1 1116.30 602.698   4
   9 -25   4-131.422 892.872   2
  25  -9   4 1143.80 995.377   3
  -9 -16   4-327.433 772.850   2
  16   9   4 635.409 1048.57   3
   9 -25   4 1219.29 655.629   4
  -9 -16   4 2034.52 935.463   4
  25  -8  -6 489.171 842.518   3
  17   8  -6 1830.41 1089.29   3
   8 -25  -6 1486.02 1323.12   1
  -8 -17  -6 747.813 1071.42   1
  25  -8  -6 1334.88 1017.40   1
  25  -8  -3 2739.69 768.952   1
   8 -25  -3 1099.85 1112.32   1
  25  -8  -3 1254.43 1115.03   3
  -8 -17  -3 2429.53 947.440   1
  17   8  -3 4013.74 1362.78   3
   8 -25  -3 1270.96 556.851   2
   8 -25   0 289.986 520.427   4
  -8 -17   0 248.254 538.596   4
  25  -8   0 1633.95 1026.03   3
   8 -25   0 1192.19 760.500   2
  17   8   0-84.7226 765.421   3
  -8 -17   0 76.5931 596.495   2
  -8 -17   0-576.089 532.835   1
   8 -25   0 2719.61 1085.19   1
   8 -25   3 4665.53 1427.95   2
  25  -8   3 3748.55 1347.33   3
  -8 -17   3 2555.91 1200.58   2
  17   8   3 4855.81 1699.90   3
   8 -25   3 2991.82 942.871   4
  -8 -17   3 418.131 584.956   4
   8 -25   6-313.864 1062.73   2
  -8 -17   6-1179.09 1022.96   2
  25  -8   6 514.335 1156.45   3
  17   8   6-320.595 993.053   3
   8 -25   6-39.1619 725.163   4
  -8 -17   6-1245.99 1013.60   4
  25  -7  -4 1926.49 1092.27   3
   7 -25  -4 1074.20 813.635   1
  18   7  -4 2564.46 1087.34   3
  25  -7  -4 2179.92 934.221   1
  -7 -18  -4 1029.96 859.166   1
   7 -25  -1 2194.49 1051.54   1
   7 -25  -1 1641.41 738.180   4
  -7 -18  -1 2710.03 1126.36   4
  25  -7  -1 3293.73 1222.18   3
   7 -25  -1 2954.11 993.215   2
  18   7  -1 2597.44 1130.76   3
  -7 -18  -1 1476.78 798.727   2
  -7 -18  -1 2561.81 870.982   1
  -7 -18   2 521.014 812.977   4
   7 -25   2 1859.11 920.429   2
  25  -7   2 722.552 876.989   3
  18   7   2 1379.93 1150.14   3
  -7 -18   2 2167.03 972.000   2
   7 -25   2-285.592 607.179   4
   7 -25   5 735.707 882.131   2
  -7 -18   5 1988.44 1092.84   2
  25  -7   5 3725.80 1342.26   3
  18   7   5 2792.07 1571.96   3
   7 -25   5 1842.17 1115.23   4
  -7 -18   5 1861.98 1063.22   4
  25  -6  -5 62.2190 895.871   3
  19   6  -5-313.761 803.224   3
   6 -25  -5 1121.37 1103.45   1
  -6 -19  -5 828.768 695.195   1
  25  -6  -5-81.7450 804.500   1
   6 -25  -2 606.176 899.616   1
  -6 -19  -2 754.470 793.672   1
  25  -6  -2 2022.28 1055.95   3
  19   6  -2 524.080 997.608   3
   6 -25  -2 25.3076 482.126   2
  -6 -19  -2 165.730 584.773   2
   6 -25   1 666.649 708.405   4
  -6 -19   1 866.817 842.765   4
   6 -25   1-144.454 709.516   2
  25  -6   1 1809.79 1220.50   3
  19   6   1 909.829 1052.16   3
  -6 -19   1 809.112 767.793   2
   6 -25   1-457.858 681.482   1
   6 -25   4 786.983 976.704   2
  -6 -19   4-540.019 920.147   2
  25  -6   4 718.434 816.232   3
  19   6   4-602.274 904.941   3
   6 -25   4 1849.84 803.152   4
  -6 -19   4 856.819 754.832   4
  25  -5  -6 1432.30 1045.57   1
  25  -5  -6-84.2948 812.839   3
  20   5  -6 617.667 747.326   3
   5 -25  -6 1301.40 1301.47   1
  -5 -20  -6 1304.33 867.801   1
   5 -25  -3 573.033 935.526   1
  -5 -20  -3 601.835 685.698   1
  25  -5  -3 1202.28 751.942   3
  20   5  -3 2152.78 1202.53   3
   5 -25  -3 2079.39 789.244   2
  -5 -20  -3 2870.30 1020.35   2
   5 -25   0 935.072 639.144   4
  -5 -20   0 260.867 636.289   4
  25  -5   0 3564.91 1295.89   3
   5 -25   0 820.073 600.823   2
  20   5   0 492.211 897.823   3
  -5 -20   0 284.450 640.195   2
  -5 -20   0 2015.78 907.285   1
   5 -25   0 2532.43 1101.20   1
   5 -25   3 2939.37 1285.27   2
  25  -5   3 2204.16 1129.99   3
  -5 -20   3 2845.83 1365.54   2
  20   5   3 1577.03 1225.85   3
   5 -25   3 1931.95 878.011   4
  -5 -20   3 1683.29 1020.86   4
   5 -25   6 1982.39 1515.32   2
  -5 -20   6 822.400 1047.03   2
  25  -5   6-1447.46 1062.68   3
  20   5   6 2490.43 1488.74   3
   5 -25   6-625.131 703.575   4
  -5 -20   6 1373.25 1224.82   4
  25  -4  -4 1549.12 1012.93   3
   4 -25  -4 60.7277 1234.87   1
  21   4  -4 1890.47 1007.37   3
  -4 -21  -4-283.898 668.986   1
   4 -25  -1 1812.35 1060.15   1
   4 -25  -1 1367.15 809.584   4
  -4 -21  -1 954.622 889.432   4
  25  -4  -1 1168.55 879.072   3
  21   4  -1 7.62041 872.253   3
   4 -25  -1 1.15783 512.366   2
  -4 -21  -1 280.633 769.969   2
  -4 -21  -1-897.802 833.425   1
  -4 -21   2 582.348 683.158   4
   4 -25   2-1371.04 1033.58   2
  -4 -21   2-309.150 760.292   2
  21   4   2 1709.15 911.858   3
   4 -25   2 351.035 603.220   4
   4 -25   5 1144.17 1000.94   2
  -4 -21   5 2212.91 1465.87   2
  25  -4   5-466.850 965.868   3
  21   4   5 426.586 1077.54   3
   4 -25   5 582.080 880.050   4
  -4 -21   5 132.323 649.133   4
  25  -3  -5 182.568 868.670   3
  22   3  -5 168.919 827.861   3
   3 -25  -5 219.080 781.383   1
  -3 -22  -5-71.1772 819.517   1
   3 -25  -2 965.198 1078.14   1
  -3 -22  -2 1322.91 894.130   1
  25  -3  -2-270.461 814.265   3
  22   3  -2 1455.79 1140.06   3
   3 -25  -2-341.652 596.373   2
  -3 -22  -2 742.718 660.022   2
   3 -25   1 1596.96 876.020   4
  -3 -22   1 788.477 785.828   4
  25  -3   1 961.454 933.740   3
   3 -25   1-13.8635 790.884   2
  22   3   1 610.880 1035.90   3
  -3 -22   1 490.965 729.318   2
  -3 -22   1 25.0269 627.458   1
   3 -25   1-490.405 824.806   1
   3 -25   4 1747.93 1173.25   2
  -3 -22   4-16.5954 906.442   2
  25  -3   4 67.3228 815.064   3
  22   3   4-887.804 1223.15   3
   3 -25   4-54.4612 607.290   4
  -3 -22   4-449.208 675.490   4
   2 -25  -3 556.791 1077.08   1
  -2 -23  -3 201.337 812.332   1
  25  -2  -3 3353.45 1231.88   3
  23   2  -3 2657.89 1198.62   3
   2 -25  -3 1677.60 875.570   2
  -2 -23  -3 3714.23 1154.97   2
   2 -25   0 580.203 581.331   4
  -2 -23   0 1272.82 706.544   4
  25  -2   0 2557.90 1085.09   3
  23   2   0 316.488 782.722   3
   2 -25   0 1568.43 928.036   2
  -2 -23   0 1572.20 877.491   2
  -2 -23   0 193.943 675.592   1
   2 -25   0 2639.41 1131.82   1
   2 -25   3 2892.67 1195.40   2
  -2 -23   3 1079.02 1012.31   2
  25  -2   3 1723.56 1258.49   3
  23   2   3 3973.83 1612.42   3
   2 -25   3 1839.84 841.900   4
  -2 -23   3 1294.39 1003.48   4
  25  -1  -4 147.086 827.271   3
  24   1  -4 967.168 1088.73   3
   1 -25  -4 494.113 878.550   1
  -1 -24  -4-141.288 761.802   1
  -1 -24  -1 166.612 838.680   1
   1 -25  -1-1145.59 910.879   1
   1 -25  -1 136.785 597.383   4
  -1 -24  -1 1115.46 784.540   4
  25  -1  -1-369.857 803.393   3
   1 -25  -1 905.963 770.365   2
  -1 -24  -1 741.462 600.833   2
   1 -25   2 168.439 722.694   4
  -1 -24   2 716.265 962.491   4
   1 -25   2 1604.61 1199.58   2
  25  -1   2 983.971 1307.00   3
  -1 -24   2 2801.04 1195.81   2
  24   1   2 1522.26 1104.03   3
   0 -25  -2 2848.84 1296.66   1
  25   0  -2 3059.25 1380.93   3
   0 -25  -2 857.261 863.552   2
   0 -25   1 323.833 569.472   4
  25   0   1 291.046 853.937   3
   0 -25   1-674.652 862.886   2
   0 -25   1 1071.01 921.867   1
   0 -25   4 2351.58 1358.13   2
  25   0   4 2357.04 1466.75   3
   0 -25   4-36.0562 736.495   4
  26 -26  -2 1403.51 1139.70   3
  26 -26  -2-387.815 998.604   1
  26 -26   1 842.308 869.858   1
  26 -26   1-1049.69 827.386   3
   0  26   1 1182.64 1446.65   3
  26 -26   1 1563.43 1298.73   2
  25 -26  -3 1015.08 1029.75   3
  26 -25  -3 3228.19 1339.58   3
  25 -26  -3 2090.73 1243.34   1
  26 -25  -3 89.6375 891.923   1
  25 -26   0 598.803 805.233   3
  26 -25   0-23.6196 631.252   3
  25 -26   0-119.539 800.360   1
  26 -25   0 1140.64 866.581   1
   1  25   0 921.648 1064.02   3
  26 -25   0 560.162 760.315   2
  25 -26   0-570.458 719.034   2
 -25  -1   3 2404.48 1040.47   4
 -26   1   3 2365.03 1015.61   4
  25 -26   3 1374.06 940.107   3
  26 -25   3 1856.46 935.519   3
   1  25   3 2318.01 1752.80   3
  26 -25   3 2382.83 1393.93   2
  25 -26   3 2669.39 1486.48   2
  25 -26   3 1642.57 1000.82   1
  26 -25   3 2257.25 955.950   1
  26 -24  -4-1.93907 760.714   3
  24 -26  -4 995.541 1049.50   1
  26 -24  -4-24.2541 917.709   1
  24 -26  -1 613.981 691.276   3
  26 -24  -1 1242.97 1017.46   3
  24 -26  -1 1715.14 1161.83   1
  26 -24  -1 214.671 814.493   1
   2  24  -1-601.115 993.594   3
  26 -24  -1 929.866 934.751   2
  24 -26  -1-173.523 715.880   2
  24 -26   2 605.480 857.247   1
 -24  -2   2 60.0938 721.381   4
  26 -24   2 248.028 767.203   1
  24 -26   2-62.8880 588.737   3
  26 -24   2-195.379 511.068   3
   2  24   2 727.311 1094.20   3
  26 -24   2 400.648 938.395   2
  24 -26   2-183.794 805.262   2
  26 -23  -2 1628.22 956.528   3
  23 -26  -2-294.273 867.981   1
  26 -23  -2 714.124 820.195   1
   3  23  -2 1543.97 1059.56   3
  26 -23  -2 481.452 822.831   2
  23 -26   1 799.529 985.130   1
  23 -26   1 964.620 649.068   3
  26 -23   1 1329.54 862.550   1
  26 -23   1 1045.19 785.219   3
   3  23   1 139.204 930.414   3
  26 -23   1 1193.76 1123.22   2
  23 -26   1 506.003 728.644   2
 -23  -3   4-463.958 651.283   4
 -26   3   4 1018.51 851.022   4
  23 -26   4 575.551 616.018   3
  26 -23   4 19.0746 693.045   3
   3  23   4 737.875 1115.61   3
 -23  -3   4 1301.95 1079.50   2
  26 -23   4-1277.57 1307.64   2
  23 -26   4-444.489 646.708   1
  23 -26   4 3617.61 1537.23   2
  26 -23   4 765.397 785.870   1
  26 -22  -3 603.711 845.890   3
  22 -26  -3 1152.65 1098.08   1
   4  22  -3 2189.22 1075.34   3
  26 -22  -3 1677.55 968.598   1
  26 -22  -3 2032.22 957.083   2
  22 -26   0 1769.76 973.457   1
  22 -26   0-94.9061 493.010   3
  26 -22   0 117.764 614.002   3
  26 -22   0 75.5361 701.134   1
   4  22   0-1590.27 1243.29   3
  26 -22   0 106.789 915.267   2
  22 -26   0 667.192 738.277   2
  26 -22   3 431.252 548.456   1
 -22  -4   3 2403.85 1110.56   4
 -26   4   3-251.992 673.413   4
  22 -26   3 1365.73 737.324   3
  26 -22   3 940.303 749.657   3
   4  22   3 2505.30 1467.88   3
 -22  -4   3 2529.01 1235.16   2
  26 -22   3 2765.71 1485.90   2
  22 -26   3 1764.70 940.650   1
  22 -26   3 2142.57 1300.14   2
  26 -21  -4 13.4549 668.573   3
  21 -26  -4 2108.97 1322.77   1
  26 -21  -4 1120.92 1108.70   1
  26 -21  -1 798.757 819.672   3
  21 -26  -1-453.216 651.379   1
  26 -21  -1-133.601 616.702   1
   5  21  -1-1467.61 1025.48   3
  26 -21  -1-547.206 781.176   2
  21 -26  -1-286.379 675.995   2
 -21  -5   2 1155.62 754.346   4
  26 -21   2 276.291 626.873   1
  21 -26   2 118.543 486.391   3
  26 -21   2 1688.70 895.990   3
   5  21   2 803.521 1208.15   3
 -21  -5   2 1202.87 1261.27   2
  26 -21   2 1301.41 1142.63   2
  21 -26   2 1.53372 554.328   1
  21 -26   2 2412.46 1103.70   2
 -21  -5   5 988.792 1067.92   4
 -26   5   5-547.332 644.589   4
  26 -21   5 2347.68 1084.30   3
 -21  -5   5-120.105 854.467   2
   5  21   5 731.922 1290.41   3
  26 -21   5 36.9183 968.050   4
  26 -21   5-104.926 1083.51   2
  26 -21   5 460.230 732.851   1
  21 -26   5 1364.39 869.229   4
  21 -26   5-256.514 995.462   2
  26 -20  -5 25.2906 892.381   1
  26 -20  -5 1185.64 1104.86   3
  20 -26  -5 625.701 1343.49   1
  20 -26  -2 1760.00 720.780   2
  26 -20  -2 3333.16 1229.26   3
  20 -26  -2 629.869 752.607   1
   6  20  -2 195.263 761.324   3
  26 -20  -2 921.794 916.134   1
 -20  -6   1 901.463 709.570   4
  20 -26   1 1585.59 758.374   3
  26 -20   1 357.973 594.056   3
  26 -20   1 1353.79 939.328   1
   6  20   1 1759.71 1253.28   3
 -20  -6   1 2886.45 1351.57   2
  26 -20   1 1039.05 1080.51   2
 -20  -6   1 782.688 402.336   1
  20 -26   1 1953.82 1035.41   2
  20 -26   1 1160.71 893.525   1
 -20  -6   4 1206.51 964.381   4
 -26   6   4 291.229 737.244   4
  26 -20   4 801.789 804.305   3
 -20  -6   4-208.962 1064.38   2
   6  20   4 1879.06 1239.32   3
  26 -20   4 338.822 887.833   4
  26 -20   4 1616.00 1176.61   2
  20 -26   4 1463.87 702.198   4
  26 -20   4-150.578 577.092   1
  20 -26   4 1232.52 1324.92   2
  26 -19  -6-643.887 1069.31   3
  26 -19  -6 2248.75 1434.68   1
  19 -26  -6 3698.01 1768.71   1
  26 -19  -3 1530.55 1060.35   3
  19 -26  -3 1143.17 1028.02   1
   7  19  -3 1349.50 904.139   3
  26 -19  -3 292.182 815.818   1
  19 -26   0 2493.73 1056.00   2
 -19  -7   0 829.404 394.410   1
  19 -26   0 1643.90 970.332   1
  26 -19   0 1647.53 898.289   3
  26 -19   0 2433.57 878.301   1
   7  19   0 1700.43 1105.42   3
 -19  -7   3-878.082 850.430   4
  26 -19   3 2642.32 889.678   1
  19 -26   3 837.507 530.537   3
  26 -19   3 3281.84 1106.90   3
   7  19   3 1298.35 1278.55   3
 -19  -7   3 1930.41 1152.41   2
  26 -19   3 874.464 840.258   4
  26 -19   3 2977.34 1529.03   2
  19 -26   3-42.5156 826.441   1
  19 -26   3 1901.64 671.154   4
  19 -26   3 903.942 933.991   2
 -26   7   6 729.463 753.097   4
  26 -19   6 316.510 891.350   3
 -19  -7   6-981.419 895.627   2
   7  19   6 569.444 1577.40   3
  26 -19   6 131.343 983.118   4
  26 -19   6-1814.20 1602.65   2
  19 -26   6 1281.69 937.014   4
  19 -26   6 618.558 1395.93   2
 -19  -7   6-39.5044 766.772   4
  26 -18  -4 1068.73 832.637   1
  26 -18  -4 1680.53 1097.72   3
  18 -26  -4 1356.94 904.829   1
   8  18  -4 582.407 723.609   3
  18 -26  -1 921.077 685.729   2
  18 -26  -1 853.608 765.674   1
  26 -18  -1 1815.04 980.245   3
 -18  -8  -1-219.195 404.777   1
   8  18  -1 2007.07 1217.88   3
  26 -18  -1 607.622 695.586   1
  18 -26   2 2520.00 1194.03   2
 -18  -8   2 538.074 672.559   4
  18 -26   2 540.724 484.474   3
  26 -18   2 514.880 532.906   1
  26 -18   2 1873.56 756.520   3
   8  18   2 773.119 987.281   3
 -18  -8   2 829.784 847.689   2
  26 -18   2 447.125 709.821   4
  18 -26   2 137.658 555.307   1
  18 -26   2-32.0053 393.649   4
 -26   8   5 436.501 677.128   4
  26 -18   5 1086.44 778.093   3
 -18  -8   5 810.563 1068.51   2
   8  18   5 767.729 1300.03   3
  26 -18   5 693.634 1036.26   4
  26 -18   5 2204.58 1699.92   2
  18 -26   5 1019.87 886.023   4
  18 -26   5-968.475 1057.81   2
 -18  -8   5 1555.20 1226.86   4
  26 -17  -5 1262.22 998.430   3
  26 -17  -5 3213.06 1197.16   1
   9  17  -5 2233.56 979.618   3
  17 -26  -5 1867.26 1443.17   1
  17 -26  -2 158.522 400.701   2
  26 -17  -2 629.614 735.307   3
  17 -26  -2 1516.87 1020.97   1
 -17  -9  -2-12.8835 490.446   1
   9  17  -2 719.680 968.823   3
  26 -17  -2 1059.16 705.977   1
  17 -26   1 2384.79 963.841   2
 -17  -9   1 1332.71 845.106   4
  26 -17   1 1692.49 799.900   3
  26 -17   1 1360.78 714.042   1
   9  17   1 2413.89 1316.09   3
 -17  -9   1-408.801 826.753   2
  26 -17   1 2416.00 889.054   4
  17 -26   1 1290.63 917.431   1
  17 -26   1 1245.86 471.841   4
 -17  -9   4 1611.31 1117.24   4
  17 -26   4-342.443 978.921   2
 -26   9   4 495.067 693.202   4
  26 -17   4 682.034 790.483   3
 -17  -9   4 1247.00 1023.75   2
   9  17   4 996.252 1165.81   3
  26 -17   4 1223.96 1080.56   4
  26 -17   4 907.270 1116.77   2
  17 -26   4 795.811 742.062   4
  26 -16  -6 707.558 1060.92   3
  16 -26  -6-467.657 966.228   1
  26 -16  -6 1184.07 1037.28   1
  26 -16  -3-132.696 668.050   3
  26 -16  -3-369.389 698.623   1
  16 -26  -3 1893.30 1175.70   1
  10  16  -3 824.043 761.878   3
 -16 -10  -3 1695.04 715.054   1
  16 -26   0 1259.39 682.367   1
  16 -26   0 327.623 283.583   4
 -16 -10   0 961.037 976.056   4
  16 -26   0 1561.50 833.656   2
  26 -16   0 1547.18 889.635   3
  10  16   0 943.224 822.311   3
 -16 -10   0 330.546 952.152   2
  26 -16   0 660.280 595.180   1
 -16 -10   0 398.996 405.963   1
 -16 -10   3 834.893 755.126   4
  16 -26   3 1870.14 1137.86   2
  16 -26   3 47.2929 318.739   3
  26 -16   3 491.420 798.419   3
 -16 -10   3 105.404 815.219   2
  10  16   3 1607.50 1437.38   3
  26 -16   3 1177.83 1053.22   4
  16 -26   3 463.495 562.010   4
 -26  10   6-758.141 702.838   4
  16 -26   6 613.778 997.567   2
  26 -16   6 2396.14 1292.43   3
 -16 -10   6 2221.03 1193.54   2
  10  16   6 2255.30 1743.89   3
  26 -16   6 5793.83 1917.39   4
  26 -16   6 2060.25 1536.26   2
  16 -26   6 4514.10 1385.25   4
 -16 -10   6 1755.49 1091.77   4
  26 -15  -4 443.451 889.965   3
  15 -26  -4 384.427 1050.92   1
  11  15  -4 877.961 834.686   3
  26 -15  -4 901.130 764.108   1
 -15 -11  -4-223.888 610.213   1
  26 -15  -1 2671.43 885.104   1
 -15 -11  -1 1277.48 610.545   1
  15 -26  -1 1911.91 997.288   1
  15 -26  -1 1158.85 643.210   2
  26 -15  -1 1404.78 961.171   3
  11  15  -1 2335.43 1165.07   3
 -15 -11  -1 1164.32 780.776   2
 -15 -11   2 664.063 753.082   4
  15 -26   2 1323.98 1050.60   2
  15 -26   2 287.898 341.278   3
  26 -15   2 268.257 588.937   3
  11  15   2 1778.34 1085.84   3
  26 -15   2 949.784 498.919   1
 -15 -11   2 758.996 940.951   2
  15 -26   2 1343.79 889.711   1
  15 -26   2 445.559 522.301   4
  15 -26   5 527.096 1269.74   2
 -26  11   5 645.565 567.838   4
  26 -15   5 2320.69 1230.41   3
 -15 -11   5 687.194 869.873   2
  11  15   5 371.631 1147.74   3
  26 -15   5 1930.42 1343.12   4
  15 -26   5 3092.74 1163.06   4
 -15 -11   5 1803.98 1188.43   4
  26 -14  -5 2026.72 1101.82   3
  12  14  -5 2248.15 991.106   3
  14 -26  -5 1877.81 1228.39   1
  26 -14  -5 2740.91 1166.42   1
 -14 -12  -5 526.805 686.900   1
  14 -26  -2-1127.43 720.326   1
  26 -14  -2-493.222 692.606   3
 -14 -12  -2 1137.85 687.316   1
  14 -26  -2 1048.13 546.059   2
  26 -14  -2-925.001 640.153   1
  12  14  -2 252.215 839.944   3
 -14 -12   1 2935.15 1172.45   4
  14 -26   1 3698.66 1213.21   2
  26 -14   1 1551.36 927.121   3
  12  14   1 3401.04 1476.31   3
 -14 -12   1 4063.47 1281.99   2
  14 -26   1 1519.84 865.322   1
  26 -14   1 1573.17 481.815   1
  14 -26   1 2570.40 698.860   4
  14 -26   4 1697.88 1244.03   2
  26 -14   4-103.502 730.850   3
 -14 -12   4 578.526 913.821   2
  12  14   4 308.451 969.658   3
  26 -14   4-44.6915 995.767   4
  14 -26   4 753.404 774.648   4
 -14 -12   4-2260.39 1021.67   4
  26 -13  -6 2550.67 1256.00   3
  13  13  -6 1547.52 1061.33   3
  13 -26  -6 797.059 971.318   1
  26 -13  -6 4990.94 1562.23   1
 -13 -13  -6 1149.76 990.659   1
  26 -13  -3-63.6186 752.360   3
 -13 -13  -3 75.4094 507.982   1
  13  13  -3-208.421 754.558   3
  26 -13  -3 322.787 704.402   1
  13 -26   0 812.674 516.471   4
 -13 -13   0 2345.38 1003.81   4
  13 -26   0-653.250 648.398   2
  26 -13   0 1514.33 918.854   3
  13  13   0 2096.86 1069.23   3
  26 -13   0 1487.40 515.985   1
 -13 -13   0-311.290 638.457   2
 -13 -13   0 1036.06 545.694   1
  13 -26   0-454.363 626.933   1
 -13 -13   3 896.544 689.059   4
  13 -26   3 698.362 845.837   2
  13 -26   3-29.9308 248.010   3
  26 -13   3-838.052 941.681   3
 -13 -13   3 1081.57 772.602   2
  13  13   3-350.079 919.514   3
  13 -26   3 1598.76 782.558   4
  13 -26   6 1672.20 1276.92   2
  26 -13   6 1643.77 1209.95   3
 -13 -13   6 469.648 954.248   2
  13  13   6 256.594 1189.11   3
  26 -13   6-842.041 1431.40   4
  13 -26   6 4462.44 1386.80   4
 -13 -13   6 1906.99 1105.43   4
  26 -12  -4 13.2047 757.534   3
  12 -26  -4-264.070 983.472   1
  14  12  -4-185.725 853.588   3
 -12 -14  -4 1276.88 744.800   1
  26 -12  -4 289.476 713.675   1
 -12 -14  -1 1744.33 729.995   1
  12 -26  -1 2649.71 1245.17   1
 -12 -14  -1 3540.16 1110.29   4
  26 -12  -1 1514.70 958.432   3
  12 -26  -1 1183.46 607.964   2
  14  12  -1 845.303 979.901   3
 -12 -14  -1 1916.73 920.270   2
  26 -12  -1 1270.41 534.559   1
 -12 -14   2-657.454 543.117   4
  12 -26   2 1677.10 965.588   2
  26 -12   2-113.818 621.980   3
  14  12   2 373.840 1048.39   3
 -12 -14   2 1727.23 929.152   2
  12 -26   2 810.548 701.348   1
  12 -26   2 786.142 705.866   4
  12 -26   5 1459.06 1200.60   2
  26 -12   5 1943.80 1115.90   3
 -12 -14   5 2864.15 1397.73   2
  14  12   5 523.685 1194.49   3
  12 -26   5 2172.49 1004.12   4
 -12 -14   5 1125.67 901.243   4
  26 -11  -5-78.1097 866.303   3
  15  11  -5 614.790 774.701   3
  11 -26  -5 441.856 1042.55   1
 -11 -15  -5 55.6350 788.372   1
  11 -26  -2 902.707 1052.86   1
 -11 -15  -2 858.249 699.047   1
  26 -11  -2 1469.80 648.489   1
  26 -11  -2 555.502 773.415   3
  11 -26  -2 693.297 515.188   2
  15  11  -2 1783.27 1070.96   3
 -11 -15  -2-1158.46 850.915   2
  11 -26   1 1766.08 696.269   4
 -11 -15   1 2711.32 1015.01   4
  11 -26   1 1737.76 831.121   2
  26 -11   1 1110.81 905.962   3
  15  11   1 1932.66 1199.58   3
 -11 -15   1 2695.88 1033.84   2
  11 -26   1 2180.43 1090.35   1
  11 -26   4 788.872 964.482   2
  26 -11   4-408.702 811.923   3
 -11 -15   4 160.392 876.428   2
  15  11   4 1750.35 1366.56   3
  11 -26   4 604.847 662.490   4
 -11 -15   4 975.466 825.885   4
  26 -10  -6 1365.80 1164.27   3
  16  10  -6 1546.66 1041.95   3
  26 -10  -6-1270.53 1171.08   1
  10 -26  -6-43.8955 957.233   1
 -10 -16  -6 1952.99 1075.73   1
  10 -26  -3 655.208 845.433   1
  26 -10  -3 1679.82 1188.80   3
 -10 -16  -3 990.339 808.166   1
  16  10  -3-691.393 903.902   3
  26 -10  -3 1811.07 835.204   1
  10 -26  -3 863.410 447.993   2
  10 -26   0 732.879 586.996   4
 -10 -16   0 1605.46 806.509   4
  10 -26   0 1669.97 897.275   2
  26 -10   0 641.240 960.425   3
  16  10   0 1827.28 839.682   3
 -10 -16   0 13.1319 632.801   2
 -10 -16   0 598.356 616.936   1
  10 -26   0 1316.85 811.525   1
 -10 -16   3 2335.00 1023.38   4
  10 -26   3 1737.08 904.860   2
  26 -10   3-639.039 709.363   3
 -10 -16   3 2381.32 1112.46   2
  16  10   3 137.017 1094.74   3
  10 -26   3 1014.82 688.223   4
  10 -26   6-536.905 1137.22   2
 -10 -16   6 1855.98 1163.59   2
  26 -10   6-554.391 978.861   3
  16  10   6 1760.54 1403.33   3
  10 -26   6 1554.39 962.826   4
 -10 -16   6 724.514 1076.75   4
  26  -9  -4 1155.53 1152.50   3
   9 -26  -4-318.932 815.228   1
  17   9  -4 517.447 798.512   3
  -9 -17  -4 775.663 824.500   1
  26  -9  -4 1872.44 902.580   1
   9 -26  -1 1087.54 821.021   1
   9 -26  -1 1623.99 617.449   4
  -9 -17  -1 582.645 694.697   4
  26  -9  -1 2384.83 1228.45   3
   9 -26  -1 846.326 639.509   2
  17   9  -1 1589.85 1051.80   3
  -9 -17  -1 2599.22 1026.09   2
  -9 -17  -1 1653.21 712.557   1
  -9 -17   2 1740.79 904.911   4
   9 -26   2 1000.08 756.904   2
  26  -9   2 295.352 645.221   3
  17   9   2 1529.94 1172.55   3
  -9 -17   2 580.232 720.760   2
   9 -26   2 1764.27 673.902   4
   9 -26   5 218.043 1004.27   2
  -9 -17   5-550.986 798.032   2
  26  -9   5 1887.36 1169.19   3
  17   9   5 1192.43 1377.83   3
   9 -26   5 3179.36 1100.57   4
  -9 -17   5 546.963 815.946   4
  26  -8  -5 1386.50 882.332   1
  26  -8  -5 178.489 914.940   3
  18   8  -5 97.1260 784.327   3
   8 -26  -5 684.341 991.282   1
  -8 -18  -5 1064.75 910.799   1
   8 -26  -2 655.181 697.100   1
  -8 -18  -2 1284.19 580.508   1
  26  -8  -2 1932.76 1072.75   3
  18   8  -2 1478.53 1053.78   3
   8 -26  -2 1709.05 730.819   2
  -8 -18  -2 517.688 757.938   2
   8 -26   1 1561.73 750.641   4
  -8 -18   1 1233.50 720.924   4
   8 -26   1 3040.69 1104.70   2
  26  -8   1 1155.19 792.589   3
  18   8   1 1016.35 1105.41   3
  -8 -18   1 2349.97 1123.83   2
   8 -26   1 620.064 792.498   1
   8 -26   4 1119.51 974.465   2
  26  -8   4 1160.01 1031.17   3
  -8 -18   4 1007.90 796.746   2
  18   8   4 994.464 1023.42   3
   8 -26   4 577.774 670.524   4
  -8 -18   4-163.819 583.311   4
  19   7  -6 412.505 826.746   3
  26  -7  -6 1033.97 906.972   1
   7 -26  -6 777.078 1492.88   1
  -7 -19  -6-37.8268 1007.61   1
   7 -26  -3 883.884 871.658   1
  -7 -19  -3 1867.06 957.546   1
  26  -7  -3 76.9025 1059.26   3
  19   7  -3 3590.48 1382.11   3
   7 -26  -3 1330.17 618.991   2
   7 -26   0 2589.09 945.704   4
  -7 -19   0-146.215 652.215   4
  26  -7   0 514.711 867.308   3
   7 -26   0 1232.28 823.750   2
  19   7   0 1457.27 1120.48   3
  -7 -19   0 2546.37 1103.39   2
  -7 -19   0 871.532 791.991   1
   7 -26   0 1080.66 959.062   1
   7 -26   3 177.771 806.282   2
  26  -7   3 1720.68 1072.66   3
  -7 -19   3 2380.21 1236.37   2
  19   7   3-672.431 1104.17   3
   7 -26   3 959.236 752.615   4
  -7 -19   3 3395.60 1167.33   4
   7 -26   6 1067.52 1523.05   2
  -7 -19   6 1180.52 1138.26   2
  26  -7   6 1236.25 1237.33   3
  19   7   6 1725.44 1499.75   3
   7 -26   6 833.313 841.625   4
  -7 -19   6 3001.71 1265.50   4
  26  -6  -4 125.890 798.866   3
   6 -26  -4 609.834 797.367   1
  20   6  -4 59.7049 761.603   3
  -6 -20  -4 709.106 682.645   1
   6 -26  -1 608.962 829.668   1
   6 -26  -1 27.4857 636.693   4
  -6 -20  -1 641.251 758.074   4
  26  -6  -1 55.6993 734.664   3
  20   6  -1 547.113 967.642   3
   6 -26  -1 1169.20 728.815   2
  -6 -20  -1 847.100 854.411   2
  -6 -20  -1 410.199 552.297   1
  -6 -20   2 637.438 564.677   4
   6 -26   2 1558.74 906.642   2
  26  -6   2-322.081 793.597   3
  20   6   2 1231.98 1192.22   3
  -6 -20   2 3691.29 1352.47   2
   6 -26   2 2137.24 911.628   4
   6 -26   5 1511.37 1114.90   2
  -6 -20   5 721.851 858.534   2
  26  -6   5 1822.29 1256.81   3
  20   6   5 1850.81 1524.08   3
   6 -26   5 1369.86 1063.67   4
  -6 -20   5 276.989 770.778   4
  26  -5  -5 754.788 883.983   3
  21   5  -5 1930.18 1168.30   3
   5 -26  -5 72.1596 843.005   1
  -5 -21  -5-51.8840 828.372   1
   5 -26  -2 313.617 873.153   1
  -5 -21  -2 1529.88 908.694   1
  26  -5  -2-1016.09 1041.39   3
  21   5  -2 265.583 734.813   3
   5 -26  -2-261.215 575.282   2
  -5 -21  -2 1033.24 743.790   2
   5 -26   1 1038.77 631.012   4
  -5 -21   1 875.109 629.380   4
   5 -26   1 502.895 806.072   2
  26  -5   1 826.469 852.983   3
  21   5   1 1698.56 1139.15   3
  -5 -21   1-431.652 738.277   2
  -5 -21   1-603.989 551.392   1
   5 -26   1 461.691 800.928   1
   5 -26   4 2203.49 1239.84   2
  -5 -21   4 27.3082 1138.60   2
  26  -5   4 1063.29 1111.46   3
  21   5   4-184.672 1040.23   3
   5 -26   4 342.584 652.882   4
  -5 -21   4 432.953 756.340   4
   4 -26  -3 986.876 974.984   1
  -4 -22  -3 2039.65 1065.23   1
  26  -4  -3 735.512 1101.85   3
  22   4  -3 2095.04 1176.69   3
   4 -26  -3 800.205 524.892   2
  -4 -22  -3 2448.58 1008.42   2
   4 -26   0 1449.41 898.393   4
  -4 -22   0-65.2913 593.844   4
  26  -4   0 508.260 884.639   3
  22   4   0 1109.96 1049.35   3
   4 -26   0 963.100 769.632   2
  -4 -22   0 1815.97 1045.02   2
  -4 -22   0 695.793 894.969   1
   4 -26   0 571.707 1016.63   1
   4 -26   3 2027.89 1194.29   2
  26  -4   3 2531.69 1414.08   3
  -4 -22   3 2021.91 1341.58   2
  22   4   3 741.891 1073.16   3
   4 -26   3 2381.57 902.577   4
  -4 -22   3 520.505 625.173   4
  26  -3  -4 1518.07 1239.85   3
   3 -26  -4 1297.00 1229.66   1
  23   3  -4-48.3176 797.558   3
  -3 -23  -4 262.314 892.421   1
  -3 -23  -1 1377.69 933.150   1
   3 -26  -1 49.6619 735.251   1
   3 -26  -1 1864.95 873.487   4
  -3 -23  -1-977.100 843.041   4
  26  -3  -1-547.057 949.575   3
  23   3  -1 24.9958 885.482   3
   3 -26  -1 260.383 591.258   2
  -3 -23  -1 1172.38 852.887   2
   3 -26   2 1042.57 750.743   4
  -3 -23   2 2793.38 1002.63   4
   3 -26   2 1936.36 1259.45   2
  26  -3   2 1730.16 1137.42   3
  -3 -23   2 380.746 862.490   2
  23   3   2 270.558 877.799   3
   2 -26  -2-104.294 854.886   1
  -2 -24  -2-68.3325 753.662   1
  26  -2  -2 712.149 1098.39   3
  24   2  -2-336.134 826.808   3
   2 -26  -2 693.146 716.505   2
  -2 -24  -2-1025.35 839.505   2
   2 -26   1-257.369 806.850   4
  -2 -24   1 168.906 608.366   4
  26  -2   1 312.469 858.023   3
   2 -26   1 536.326 757.958   2
  24   2   1 192.909 1010.52   3
  -2 -24   1 627.273 748.413   2
  -2 -24   1 174.536 645.926   1
   2 -26   1-512.724 652.299   1
   2 -26   4 478.637 1125.71   2
  -2 -24   4-494.059 919.264   2
  26  -2   4 1407.47 917.956   3
  24   2   4 1120.17 1290.81   3
   2 -26   4 465.524 639.717   4
  -2 -24   4 1701.23 1116.78   4
   1 -26  -3 1843.55 1191.58   1
  -1 -25  -3 755.346 932.225   1
  26  -1  -3 17.1104 918.431   3
  25   1  -3 2722.01 1183.87   3
   1 -26  -3 867.936 776.240   2
  -1 -25  -3 1587.37 969.251   2
   1 -26   0 239.705 767.898   4
  -1 -25   0 724.285 768.043   4
  26  -1   0 1379.47 1150.82   3
  25   1   0 1247.26 1305.49   3
   1 -26   0 283.043 748.313   2
  -1 -25   0 768.511 1024.12   2
  -1 -25   0 172.655 663.993   1
   1 -26   0-990.505 1011.37   1
  -1 -25   3 167.319 651.419   4
   1 -26   3-1670.28 1104.89   2
  -1 -25   3 540.445 896.878   2
  26  -1   3 648.213 1124.34   3
  25   1   3 2896.76 1752.38   3
   1 -26   3 628.545 737.651   4
   0 -26  -1 1980.38 1061.19   1
   0 -26  -1 335.271 752.646   4
  26   0  -1 725.950 997.460   3
   0 -26  -1 96.9855 651.755   2
   0 -26   2 75.3482 754.580   4
   0 -26   2 871.519 934.437   2
  26   0   2 1508.01 1146.80   3
   0 -26   2-483.884 935.410   1
  26 -27  -1 1501.81 972.816   3
  27 -26  -1 2183.85 1014.96   3
  26 -27  -1-370.731 1077.21   1
  27 -26  -1 2408.09 1322.35   1
   1  26  -1 1920.98 1362.64   3
  27 -26  -1 1007.07 880.481   2
  26 -27  -1 383.765 843.362   2
  26 -27   2 1018.82 918.235   1
  27 -26   2 832.706 870.469   1
  26 -27   2 664.882 753.061   3
  27 -26   2-394.469 569.429   3
   1  26   2 102.608 1198.16   3
  27 -26   2 2.20007 841.685   2
  26 -27   2-425.831 847.432   2
  25 -27  -2 674.915 916.044   3
  27 -25  -2 794.874 855.450   3
  25 -27  -2 1288.65 1300.89   1
  27 -25  -2 341.867 980.948   1
   2  25  -2 106.101 1055.37   3
  25 -27   1 811.618 935.624   1
  25 -27   1-183.606 564.790   3
  27 -25   1-271.301 744.867   3
  27 -25   1-675.208 803.884   1
   2  25   1 1157.54 1015.59   3
  27 -25   1-475.082 804.044   2
  25 -27   1-961.206 894.819   2
  27 -24  -3-13.3296 686.624   3
  24 -27  -3 720.700 1067.89   1
  27 -24  -3 2414.79 1410.55   1
  24 -27   0-467.854 666.002   3
  24 -27   0 1327.26 961.261   1
  27 -24   0 784.062 785.024   3
  27 -24   0 470.365 790.283   1
   3  24   0 145.405 1154.09   3
  27 -24   0 1621.23 1078.76   2
  24 -27   0 1626.13 1149.06   2
  27 -24   3 1321.50 842.384   1
 -24  -3   3 191.876 778.441   4
 -27   3   3-516.309 845.812   4
  24 -27   3 262.546 553.241   3
  27 -24   3-133.986 641.659   3
   3  24   3-179.247 1168.65   3
  27 -24   3 224.393 928.693   2
  24 -27   3 137.418 884.886   2
  24 -27   3-500.290 719.339   1
  27 -23  -4 52.4442 735.600   3
  23 -27  -4 38.5306 877.052   1
  27 -23  -4-929.515 1137.19   1
  23 -27  -1 1951.52 977.199   3
  27 -23  -1 1926.24 1094.11   3
  23 -27  -1 594.910 754.167   1
  27 -23  -1 1206.12 1060.91   1
   4  23  -1 833.639 1104.68   3
  27 -23  -1 1561.79 926.250   2
  23 -27  -1 107.245 626.378   2
 -23  -4   2-1454.19 871.628   4
  27 -23   2 426.766 919.073   1
  23 -27   2-278.203 537.985   3
  27 -23   2 284.439 566.666   3
   4  23   2 1122.43 1351.56   3
  27 -23   2-607.960 1184.79   2
  23 -27   2 366.404 987.206   2
  23 -27   2-965.109 887.176   1
  27 -22  -2 364.414 698.811   3
  22 -27  -2 1973.04 1144.79   1
   5  22  -2 800.320 893.567   3
  27 -22  -2 489.439 897.375   1
  27 -22  -2 1030.73 901.332   2
  22 -27   1 1111.73 795.118   1
 -22  -5   1 233.101 816.137   4
  22 -27   1 2468.59 933.340   3
  27 -22   1 1100.27 785.013   3
  27 -22   1-217.232 652.568   1
   5  22   1 1520.40 1145.37   3
  27 -22   1 1191.43 1180.74   2
  22 -27   1 1013.04 1004.63   2
 -22  -5   4-390.347 747.626   4
 -27   5   4 327.559 723.327   4
  27 -22   4 910.955 676.803   3
   5  22   4 639.876 1455.04   3
 -22  -5   4-1353.21 1073.59   2
  27 -22   4 200.988 1020.80   2
  22 -27   4 753.206 736.840   1
  22 -27   4 200.720 1016.20   2
  27 -22   4 1448.06 988.385   1
  27 -21  -3 1367.31 993.244   3
  21 -27  -3 722.051 932.777   1
   6  21  -3 2725.57 1311.65   3
  27 -21  -3 3268.61 1403.58   1
  21 -27   0 2567.24 1241.67   1
  21 -27   0 3303.72 996.740   3
  27 -21   0 2404.68 1017.76   3
  27 -21   0 1575.78 882.669   1
   6  21   0 5828.10 1707.29   3
  27 -21   0 3375.56 1362.03   2
  21 -27   0 4229.64 1272.97   2
 -21  -6   3 456.905 646.363   4
  27 -21   3-181.970 556.818   1
  21 -27   3 151.394 534.494   3
  27 -21   3 856.703 783.647   3
   6  21   3 2011.02 1537.73   3
 -21  -6   3 468.934 992.282   2
  27 -21   3-596.125 1085.03   2
  21 -27   3 199.607 605.562   1
  21 -27   3 1449.52 1323.48   2
  27 -20  -4 379.669 971.918   1
  27 -20  -4 1545.70 1211.19   3
  20 -27  -4-96.3639 850.229   1
  20 -27  -1 889.714 770.203   2
  20 -27  -1-525.012 672.437   1
  27 -20  -1 672.804 767.738   3
   7  20  -1-1241.66 931.057   3
  27 -20  -1-80.8651 733.016   1
 -20  -7   2 881.932 783.349   4
  20 -27   2-55.4570 414.502   3
  27 -20   2 910.427 705.396   1
  27 -20   2 542.697 579.006   3
   7  20   2 1595.00 1441.08   3
 -20  -7   2 404.176 846.856   2
  27 -20   2 2502.30 1416.05   2
  20 -27   2 386.287 695.730   1
  20 -27   2-1315.92 1145.22   2
 -20  -7   5-85.9630 741.384   4
 -27   7   5 779.366 839.688   4
  27 -20   5 186.909 701.696   3
 -20  -7   5-357.633 885.090   2
   7  20   5 829.653 1302.49   3
  27 -20   5 1894.77 1205.23   4
  27 -20   5 885.873 1165.72   2
  20 -27   5 246.127 600.486   4
  20 -27   5 1300.89 1410.46   2
  27 -19  -5-397.514 1007.60   3
  27 -19  -5 1166.19 1057.61   1
  19 -27  -5 3026.03 1474.07   1
  27 -19  -2 1713.25 1095.02   3
  19 -27  -2-920.227 887.001   1
   8  19  -2 344.288 829.528   3
  27 -19  -2 415.079 770.917   1
  19 -27   1 1469.95 1046.22   2
 -19  -8   1 50.2822 877.353   4
  19 -27   1 211.838 568.724   3
  27 -19   1 1321.46 831.589   3
  27 -19   1 851.603 699.150   1
   8  19   1 418.212 1121.07   3
 -19  -8   1-45.6204 900.655   2
 -19  -8   1 372.360 467.331   1
  19 -27   1 1363.57 882.934   1
 -19  -8   4 1144.67 832.636   4
 -27   8   4 1070.74 817.286   4
  27 -19   4 931.935 724.709   3
 -19  -8   4 766.749 810.582   2
   8  19   4 948.896 1277.73   3
  27 -19   4 1574.25 1053.32   4
  27 -19   4 2330.88 1394.18   2
  19 -27   4 2117.69 842.191   4
  19 -27   4 1402.95 1296.72   2
  27 -18  -3 1349.28 1053.40   1
  27 -18  -3 1861.99 1087.84   3
  18 -27  -3 1349.33 1222.78   1
   9  18  -3 1609.73 1099.42   3
  18 -27   0 619.117 713.065   1
  18 -27   0 1275.97 818.624   2
 -18  -9   0 718.907 830.061   4
  27 -18   0 325.037 675.712   3
   9  18   0 1978.86 1296.37   3
  27 -18   0 2281.24 823.144   1
 -18  -9   0 839.763 1004.90   2
 -18  -9   0 852.651 390.165   1
  18 -27   3-194.207 796.536   2
 -18  -9   3 352.345 901.456   4
  18 -27   3 573.649 509.792   3
  27 -18   3-77.0793 668.703   3
   9  18   3 2263.64 1441.74   3
 -18  -9   3 789.285 947.029   2
  27 -18   3-58.4754 755.554   4
  18 -27   3 905.213 784.132   1
  18 -27   3 781.444 521.782   4
  27 -17  -4 912.456 1127.59   3
  27 -17  -4 1338.33 924.368   1
  17 -27  -4 1795.02 1275.79   1
  10  17  -4 1227.52 874.309   3
  17 -27  -1 475.804 981.463   1
  17 -27  -1 1337.72 796.379   2
 -17 -10  -1 515.604 535.982   1
  27 -17  -1-65.2230 733.708   3
  10  17  -1-450.351 802.538   3
  27 -17  -1 759.140 634.104   1
 -17 -10   2 1427.56 759.615   4
  17 -27   2 970.189 934.260   2
  17 -27   2-34.4901 491.067   3
  27 -17   2 789.073 728.125   3
  10  17   2 129.683 941.340   3
 -17 -10   2 2399.23 1066.78   2
  27 -17   2 591.277 865.532   4
  17 -27   2 865.657 964.084   1
  17 -27   2 768.206 577.018   4
  17 -27   5 464.597 1213.62   2
 -27  10   5 321.594 646.845   4
  27 -17   5 1455.17 1095.81   3
 -17 -10   5 224.095 918.476   2
  10  17   5-927.733 1144.74   3
  27 -17   5 1904.64 1200.60   4
  27 -17   5-988.824 1144.83   2
  17 -27   5 1214.19 937.460   4
 -17 -10   5-105.765 975.624   4
  27 -16  -5 1318.54 960.132   3
  11  16  -5 1562.56 966.769   3
  16 -27  -5 894.325 1232.73   1
  27 -16  -5 1966.42 1153.35   1
  27 -16  -2 757.220 790.064   1
  16 -27  -2 1411.65 1021.08   1
  27 -16  -2-880.592 858.965   3
  16 -27  -2 1003.26 524.656   2
 -16 -11  -2 982.938 554.277   1
  11  16  -2 935.341 960.634   3
 -16 -11   1 1857.29 983.516   4
  16 -27   1 1985.13 1027.75   2
  27 -16   1 1248.89 899.345   3
  11  16   1 2879.30 1351.46   3
 -16 -11   1 2046.63 1179.66   2
  16 -27   1 739.648 758.546   1
  16 -27   1 1137.76 505.308   4
 -16 -11   4 1154.89 632.473   4
  16 -27   4 709.200 995.247   2
  27 -16   4 1288.93 992.008   3
 -16 -11   4 207.988 824.691   2
  11  16   4 2102.45 1629.94   3
  27 -16   4 220.617 1035.21   4
  16 -27   4 4.55753 562.892   4
  27 -15  -3 120.640 668.872   3
  15 -27  -3 16.4515 885.357   1
  12  15  -3 1881.05 1099.33   3
 -15 -12  -3 534.316 597.315   1
  27 -15  -3 2681.19 1086.54   1
  15 -27   0 873.089 501.092   4
 -15 -12   0 753.883 745.059   4
  27 -15   0 759.671 564.299   1
  15 -27   0 750.578 593.732   2
  27 -15   0 542.010 855.107   3
  12  15   0 1822.44 1319.13   3
 -15 -12   0 971.001 736.476   2
 -15 -12   0 766.578 544.439   1
  15 -27   0-161.011 691.275   1
 -15 -12   3 940.958 870.479   4
  15 -27   3 350.807 832.986   2
  27 -15   3 2020.21 973.595   3
  12  15   3-480.093 949.186   3
 -15 -12   3 1840.35 1063.21   2
  15 -27   3 153.876 462.516   4
  27 -14  -4 7.87999 787.394   3
  14 -27  -4 1305.30 1223.28   1
  13  14  -4 1548.15 1013.33   3
 -14 -13  -4 282.791 749.165   1
  27 -14  -4 1546.43 968.599   1
 -14 -13  -1 761.746 658.129   1
  14 -27  -1 1346.41 923.121   1
  27 -14  -1 1017.18 790.249   3
  14 -27  -1 2863.61 927.725   2
  13  14  -1 2029.99 1210.47   3
  27 -14  -1 1268.83 702.786   1
 -14 -13  -1 2035.96 1129.77   2
 -14 -13   2 281.153 687.634   4
  14 -27   2 1281.72 965.647   2
  27 -14   2 395.123 662.931   3
  13  14   2 1813.78 1188.47   3
 -14 -13   2 307.405 693.636   2
  14 -27   2 1357.24 894.548   1
  14 -27   2-580.980 584.284   4
  14 -27   5-604.404 1152.31   2
  27 -14   5 817.787 949.059   3
 -14 -13   5 978.874 1216.46   2
  13  14   5 43.1406 1407.04   3
  27 -14   5 850.862 1054.93   4
  14 -27   5 2551.47 1063.88   4
 -14 -13   5 93.9583 678.011   4
  27 -13  -5 1791.85 979.114   3
  14  13  -5 337.783 828.966   3
  13 -27  -5 1171.55 1129.50   1
 -13 -14  -5 987.224 841.664   1
  27 -13  -5 2515.84 1215.14   1
  13 -27  -2 1396.01 1036.51   1
 -13 -14  -2 613.015 706.888   1
  27 -13  -2 754.772 838.137   3
  13 -27  -2 1391.30 602.100   2
  14  13  -2 357.152 911.648   3
  27 -13  -2 1487.34 751.713   1
  13 -27   1 883.608 550.634   4
 -13 -14   1 1446.50 1093.95   4
  13 -27   1 2078.39 919.805   2
  27 -13   1-129.904 642.305   3
  14  13   1 1096.22 1226.49   3
 -13 -14   1 1667.95 1113.13   2
  13 -27   1-153.076 807.294   1
  13 -27   4 1489.35 1107.11   2
  27 -13   4 566.143 914.216   3
 -13 -14   4 1667.03 1128.37   2
  14  13   4 2236.13 1271.95   3
  13 -27   4 1604.41 780.806   4
 -13 -14   4 2046.30 1064.98   4
  27 -12  -3 40.6042 693.909   1
  27 -12  -3 1440.88 894.694   3
  12 -27  -3 1168.98 994.860   1
 -12 -15  -3 1318.13 786.590   1
  15  12  -3-552.965 882.480   3
  12 -27   0 574.180 578.168   4
 -12 -15   0 1764.19 967.173   4
  12 -27   0 400.775 611.487   2
  27 -12   0 1272.31 964.357   3
  15  12   0 321.985 1013.94   3
 -12 -15   0 600.977 858.022   2
 -12 -15   0 509.981 470.207   1
  12 -27   0 1497.13 969.971   1
 -12 -15   3 741.847 851.706   4
  12 -27   3 461.745 860.516   2
  27 -12   3-740.227 812.201   3
 -12 -15   3 1901.66 948.380   2
  15  12   3 2171.70 1248.82   3
  12 -27   3 1305.82 670.623   4
  27 -11  -4-109.065 828.046   3
  11 -27  -4 1993.10 1292.12   1
  16  11  -4 1829.34 1147.32   3
  27 -11  -4 1545.60 944.054   1
 -11 -16  -4 404.800 722.584   1
 -11 -16  -1 541.811 579.890   1
  11 -27  -1 2750.62 1317.95   1
 -11 -16  -1 1576.74 929.656   4
  27 -11  -1 3023.07 1172.92   3
  11 -27  -1 1229.48 801.080   2
  16  11  -1-1374.69 871.493   3
 -11 -16  -1 1733.90 1022.12   2
 -11 -16   2-13.7561 647.160   4
  11 -27   2 1796.42 1202.86   2
  27 -11   2 604.659 734.650   3
  16  11   2 4.62654 1112.15   3
 -11 -16   2 1323.68 985.474   2
  11 -27   2 865.572 864.205   1
  11 -27   2 1312.28 699.436   4
  11 -27   5 673.648 940.250   2
  27 -11   5 3844.60 1657.76   3
 -11 -16   5 2551.50 1380.93   2
  16  11   5-680.232 1040.97   3
  11 -27   5 1153.37 909.102   4
 -11 -16   5 2307.53 1182.93   4
  27 -10  -5 432.479 881.270   3
  17  10  -5-796.754 992.687   3
  10 -27  -5 475.571 1017.41   1
 -10 -17  -5-587.893 856.567   1
  27 -10  -5-286.923 756.240   1
  10 -27  -2 667.771 1109.61   1
 -10 -17  -2 55.1032 528.630   1
  27 -10  -2-304.270 831.010   3
  10 -27  -2 1539.79 637.895   2
  17  10  -2-75.2240 758.297   3
 -10 -17  -2 118.971 677.447   2
  10 -27   1 1750.09 748.958   4
 -10 -17   1 231.994 739.120   4
  10 -27   1 151.055 725.039   2
  27 -10   1 810.285 691.640   3
  17  10   1 538.181 839.586   3
 -10 -17   1 950.024 1045.06   2
 -10 -17   1 988.148 750.151   1
  10 -27   1-864.375 810.893   1
  10 -27   4 2414.32 1272.63   2
  27 -10   4 535.815 836.214   3
 -10 -17   4 1883.29 1194.18   2
  17  10   4 283.560 1021.09   3
  10 -27   4 47.9106 572.245   4
 -10 -17   4 2195.84 1138.72   4
   9 -27  -3 233.119 1036.61   1
  27  -9  -3 216.605 1002.89   3
  -9 -18  -3 858.091 892.308   1
  18   9  -3 1238.62 1053.31   3
   9 -27   0 1004.80 753.227   4
  -9 -18   0 1472.16 927.859   4
  27  -9   0 1458.22 939.661   3
   9 -27   0 2499.38 1066.03   2
  18   9   0 978.588 1209.34   3
  -9 -18   0 541.652 785.726   2
  -9 -18   0 723.393 578.104   1
   9 -27   0 1380.46 971.219   1
  -9 -18   3 1213.52 828.376   4
   9 -27   3 1249.10 791.419   2
  27  -9   3 2699.57 1276.50   3
  -9 -18   3-383.110 900.992   2
  18   9   3-401.668 881.690   3
   9 -27   3 1607.40 732.139   4
  27  -8  -4-650.951 925.767   3
   8 -27  -4 2508.25 1531.90   1
  19   8  -4 819.815 832.060   3
  -8 -19  -4 772.343 892.095   1
  -8 -19  -1-89.0190 547.710   1
   8 -27  -1 529.498 881.163   1
   8 -27  -1-38.9468 559.934   4
  -8 -19  -1-60.0196 570.722   4
  27  -8  -1 287.135 707.509   3
   8 -27  -1 2483.35 927.877   2
  19   8  -1 2744.62 1234.19   3
  -8 -19  -1 261.928 733.057   2
  -8 -19   2 12.1946 555.273   4
   8 -27   2 1701.27 1048.64   2
  27  -8   2 103.158 753.860   3
  19   8   2 1588.21 1248.93   3
  -8 -19   2 436.081 808.939   2
   8 -27   2-770.227 883.753   1
   8 -27   2 1746.68 825.494   4
   8 -27   5 1632.64 1046.15   2
  -8 -19   5 636.213 1147.30   2
  27  -8   5 1916.55 1361.29   3
  19   8   5 572.214 1251.99   3
   8 -27   5 1408.54 946.205   4
  -8 -19   5 1626.44 1130.44   4
  27  -7  -5 566.601 948.703   3
  20   7  -5 673.589 876.234   3
   7 -27  -5 1338.86 1174.44   1
  -7 -20  -5 219.059 947.658   1
   7 -27  -2 103.606 768.592   1
  -7 -20  -2 132.729 688.338   1
  27  -7  -2 576.434 973.844   3
  20   7  -2 1607.35 1151.02   3
   7 -27  -2 1431.37 704.198   2
  -7 -20  -2 1549.84 844.938   2
   7 -27   1 919.961 821.254   4
  -7 -20   1-991.475 734.579   4
   7 -27   1 294.751 811.238   2
  27  -7   1 428.053 829.212   3
  20   7   1 1324.83 1246.85   3
  -7 -20   1-1041.89 1094.74   2
  -7 -20   1 1439.22 801.863   1
   7 -27   1 247.908 730.226   1
   7 -27   4 1793.14 1258.15   2
  27  -7   4 1775.54 1130.78   3
  -7 -20   4-494.168 848.000   2
  20   7   4 2540.25 1748.33   3
   7 -27   4-125.422 670.618   4
  -7 -20   4 339.477 717.950   4
   6 -27  -3 214.270 934.130   1
  -6 -21  -3 487.704 711.107   1
  27  -6  -3 1468.41 1082.92   3
  21   6  -3 1774.47 1149.55   3
   6 -27   0 4170.80 1084.10   4
  -6 -21   0 1919.09 900.155   4
  27  -6   0 2152.85 1134.29   3
   6 -27   0 3190.27 1122.42   2
  21   6   0-344.759 1011.94   3
  -6 -21   0 2207.45 979.011   2
  -6 -21   0 3248.66 1039.98   1
   6 -27   0 3409.60 1290.20   1
  -6 -21   3 369.593 648.115   4
   6 -27   3 849.985 1070.34   2
  27  -6   3 88.0055 868.290   3
  -6 -21   3 1166.91 1060.34   2
  21   6   3 491.681 1258.02   3
   6 -27   3 1109.45 666.181   4
  27  -5  -4 4.24398 962.637   3
   5 -27  -4-205.938 890.991   1
  22   5  -4 1118.31 996.410   3
  -5 -22  -4 2026.96 1212.14   1
  -5 -22  -1 2319.90 1036.19   1
   5 -27  -1-669.396 957.440   1
   5 -27  -1 1012.84 718.698   4
  -5 -22  -1 1699.73 977.325   4
  27  -5  -1 3289.93 1348.98   3
  22   5  -1 1033.31 1096.79   3
   5 -27  -1-301.205 624.123   2
  -5 -22  -1 216.444 722.105   2
   5 -27   2 2020.73 839.839   4
  -5 -22   2 360.040 752.002   4
   5 -27   2 367.157 757.226   2
  27  -5   2 1393.26 1183.06   3
  22   5   2 168.789 872.497   3
  -5 -22   2 1885.24 1343.46   2
   5 -27   2-293.729 971.202   1
   4 -27  -2-783.703 1056.82   1
  -4 -23  -2 1489.72 1085.46   1
  27  -4  -2-185.384 911.924   3
  23   4  -2-976.289 939.496   3
   4 -27  -2 1464.11 874.026   2
  -4 -23  -2 943.274 846.300   2
   4 -27   1 1898.76 901.214   4
  -4 -23   1 89.7340 700.893   4
  27  -4   1 489.254 1059.56   3
   4 -27   1 1668.86 989.731   2
  23   4   1-359.398 1003.03   3
  -4 -23   1-255.134 677.383   2
  -4 -23   1 466.583 796.446   1
   4 -27   1 1557.63 1219.79   1
   4 -27   4-250.205 866.320   2
  -4 -23   4 194.456 866.612   2
  27  -4   4-414.599 1012.46   3
  23   4   4-713.274 1323.90   3
   4 -27   4-215.113 684.834   4
  -4 -23   4 612.248 768.652   4
   3 -27  -3 639.293 987.097   1
  -3 -24  -3-1050.71 1032.72   1
  27  -3  -3-809.431 1216.44   3
  24   3  -3 292.567 1015.07   3
   3 -27  -3 1484.50 830.989   2
  -3 -24  -3-498.974 817.477   2
   3 -27   0 1631.89 810.504   4
  -3 -24   0 791.271 817.568   4
  27  -3   0 1390.53 1155.62   3
  24   3   0 1946.56 1462.98   3
   3 -27   0 1700.93 1008.55   2
  -3 -24   0 1369.76 1066.89   2
  -3 -24   0 505.478 724.328   1
   3 -27   0 693.209 964.253   1
  -3 -24   3 419.804 721.417   4
   3 -27   3 793.870 964.030   2
  -3 -24   3 6.24441 782.103   2
  27  -3   3-421.877 965.960   3
  24   3   3 2094.41 1332.43   3
   3 -27   3 764.251 763.597   4
  -2 -25  -1-311.170 918.529   1
   2 -27  -1 438.147 913.914   1
   2 -27  -1 1453.50 1010.43   4
  -2 -25  -1 503.990 667.714   4
  27  -2  -1-627.750 1024.76   3
  25   2  -1 651.507 1095.28   3
   2 -27  -1 146.053 767.331   2
  -2 -25  -1-659.423 662.065   2
   2 -27   2 880.571 688.915   4
  -2 -25   2 541.781 748.562   4
   2 -27   2 954.890 972.777   2
  27  -2   2-739.308 1005.19   3
  25   2   2-577.475 979.225   3
  -2 -25   2 1698.83 1330.72   2
  -2 -25   2 679.326 798.728   1
   2 -27   2-132.215 752.124   1
   1 -27  -2 306.641 981.126   1
  -1 -26  -2-907.225 1174.62   1
  27  -1  -2 70.8847 874.127   3
  26   1  -2 79.3323 879.623   3
   1 -27  -2-346.806 677.246   2
  -1 -26  -2 231.603 703.172   2
   1 -27   1-741.784 828.687   4
  -1 -26   1 2064.36 947.134   4
  27  -1   1 959.615 1010.89   3
  26   1   1 1116.95 1356.90   3
   1 -27   1 1501.76 890.491   2
  -1 -26   1 565.662 846.867   2
  -1 -26   1 1012.14 866.824   1
   1 -27   1-339.632 734.359   1
  25 -28  -1 784.800 865.103   3
  28 -25  -1-52.4526 677.309   3
  25 -28  -1 460.635 821.540   1
  28 -25  -1 2444.65 1217.74   1
   3  25  -1-34.4584 1017.68   3
  28 -25  -1 686.278 809.675   2
  24 -28  -2 1559.12 978.205   3
  28 -24  -2 437.727 772.125   3
  24 -28  -2-142.232 822.039   1
   4  24  -2 1384.06 1132.71   3
  28 -24  -2 2235.12 1386.58   1
  28 -24  -2 1620.89 956.536   2
  24 -28   1 1332.34 1025.84   1
  24 -28   1 528.039 530.051   3
  28 -24   1-309.370 715.500   3
  28 -24   1 827.729 934.772   1
   4  24   1 950.388 1232.07   3
  28 -24   1 498.592 1008.18   2
  24 -28   1-1114.42 1090.59   2
  28 -23  -3 3442.41 1417.14   3
  23 -28  -3 1296.41 1025.87   1
  28 -23  -3 1512.37 1092.18   1
  23 -28   0 880.301 785.165   3
  23 -28   0 404.617 761.420   1
  28 -23   0 1744.91 777.029   3
  28 -23   0 1199.39 1075.25   1
   5  23   0 2195.36 1347.31   3
  28 -23   0 1591.93 1217.59   2
  23 -28   0 1251.27 950.808   2
 -23  -5   3 232.016 754.698   4
  28 -23   3 1127.95 924.074   1
  28 -23   3 2851.28 1085.45   3
   5  23   3-823.168 1358.86   3
 -23  -5   3 1400.67 1165.13   2
  28 -23   3 2211.36 1438.98   2
  23 -28   3 951.867 875.515   1
  23 -28   3-141.477 1074.55   2
  22 -28  -1 281.711 757.238   2
  28 -22  -1 128.021 705.497   3
  22 -28  -1 171.200 1007.93   1
   6  22  -1 1183.66 1104.55   3
  28 -22  -1 1615.52 1017.94   1
  28 -22  -1 1164.85 1126.59   2
 -22  -6   2 924.645 857.959   4
  22 -28   2-112.652 515.672   3
  28 -22   2 154.616 715.583   1
  28 -22   2 890.723 691.273   3
   6  22   2-1379.43 1264.91   3
 -22  -6   2-457.235 906.451   2
  28 -22   2 878.099 1131.35   2
  22 -28   2 973.355 863.393   1
  22 -28   2 596.424 833.541   2
  28 -21  -2 2596.74 990.904   3
  21 -28  -2 1218.01 764.867   1
   7  21  -2 2416.04 1248.64   3
  28 -21  -2 1896.50 985.486   1
  21 -28   1 784.789 920.253   1
 -21  -7   1 1507.09 943.426   4
  21 -28   1-19.5602 494.792   3
  28 -21   1-742.523 732.034   3
  28 -21   1 1724.76 984.585   1
   7  21   1 676.671 1044.36   3
  28 -21   1-453.002 884.094   2
  21 -28   1-275.389 819.488   2
 -21  -7   4-629.667 1008.02   4
 -28   7   4 1962.62 908.993   4
  28 -21   4 1766.24 1080.19   3
   7  21   4 700.473 1292.68   3
 -21  -7   4 303.893 869.933   2
  28 -21   4 2136.36 1439.78   2
  21 -28   4-356.695 754.115   1
  21 -28   4 2704.50 1459.66   2
  28 -20  -3-528.815 916.873   3
  20 -28  -3-51.4888 972.769   1
   8  20  -3 1726.82 1091.46   3
  28 -20  -3 1072.82 859.308   1
  20 -28   0 73.5528 686.031   2
  20 -28   0-237.405 704.893   1
  28 -20   0 915.482 886.463   3
   8  20   0 788.332 1029.75   3
  28 -20   0-154.353 662.549   1
  20 -28   3 2457.47 1190.54   2
 -20  -8   3 6.97311 651.124   4
  28 -20   3-194.878 640.942   3
   8  20   3 2964.03 1446.74   3
 -20  -8   3 987.653 902.714   2
  28 -20   3 661.122 1158.81   2
  20 -28   3 1481.80 1031.85   1
  28 -19  -4 1722.98 1134.41   3
  28 -19  -4 328.147 830.054   1
  19 -28  -4 1518.33 1389.84   1
   9  19  -4 590.000 953.974   3
  19 -28  -1-509.409 666.886   2
  19 -28  -1 1031.34 1026.72   1
  28 -19  -1 407.221 653.965   3
   9  19  -1 802.466 1066.19   3
  28 -19  -1-426.144 682.788   1
  19 -28   2-414.340 906.042   2
 -19  -9   2 1310.41 1021.44   4
  19 -28   2 58.0802 502.580   3
  28 -19   2 661.299 799.563   3
   9  19   2-470.222 1310.23   3
 -19  -9   2-170.533 867.208   2
  19 -28   2 951.376 830.951   1
  28 -18  -2 3289.90 1303.52   1
  28 -18  -2 3958.64 1350.13   3
  18 -28  -2 3317.89 1369.47   1
  10  18  -2 4076.52 1459.58   3
 -18 -10   1-294.391 671.077   4
  18 -28   1-397.324 809.809   2
  18 -28   1 270.761 589.326   3
  28 -18   1 43.4766 614.276   3
  10  18   1-521.242 1122.87   3
 -18 -10   1 752.191 859.452   2
 -18 -10   1-16.1926 437.210   1
  18 -28   1 1410.06 1155.21   1
 -18 -10   4 1426.63 865.976   4
  18 -28   4 1177.67 1067.95   2
  28 -18   4 629.966 692.087   3
 -18 -10   4 1548.40 1284.62   2
  10  18   4-639.108 1128.69   3
  28 -18   4 2256.73 1414.62   4
  28 -18   4 2623.48 1656.70   2
  18 -28   4 1912.20 1141.53   4
  28 -17  -3 1586.65 1161.90   3
  17 -28  -3 668.354 926.773   1
  28 -17  -3 3510.32 1324.42   1
  11  17  -3 1050.45 1096.61   3
  17 -28   0 846.282 725.309   1
 -17 -11   0-197.207 625.339   4
  17 -28   0 1259.69 889.060   2
  28 -17   0 1788.58 916.248   3
  11  17   0 166.725 887.408   3
 -17 -11   0 1538.24 1002.71   2
 -17 -11   0 181.398 483.478   1
 -17 -11   3-223.543 597.956   4
  17 -28   3 1773.62 1181.80   2
  28 -17   3 1758.22 1073.63   3
  11  17   3 2151.19 1668.88   3
 -17 -11   3 1098.53 940.397   2
  28 -17   3 347.999 1044.13   4
  17 -28   3 1053.29 931.642   1
  17 -28   3 528.012 561.699   4
  28 -16  -4 373.439 1015.07   3
  16 -28  -4 580.927 881.692   1
  12  16  -4 2395.35 1219.45   3
  28 -16  -4 2091.74 1124.24   1
  16 -28  -1 84.8054 807.498   1
 -16 -12  -1 440.955 516.796   1
  16 -28  -1 1233.30 761.189   2
  28 -16  -1 1004.22 863.932   3
  12  16  -1 113.345 884.415   3
 -16 -12   2 1677.97 872.027   4
  16 -28   2 1042.81 884.790   2
  16 -28   2 38.3637 425.483   3
  28 -16   2 654.261 851.755   3
  12  16   2 885.625 1278.03   3
 -16 -12   2 71.3761 782.673   2
  16 -28   2 1231.47 811.524   1
  16 -28   2 811.591 495.670   4
  16 -28   5 2188.40 1399.58   2
  28 -16   5 768.906 1092.41   3
 -16 -12   5 1969.61 1325.68   2
  12  16   5 2966.86 1782.34   3
  28 -16   5-523.351 1124.81   4
  28 -16   5-242.210 1235.98   2
  16 -28   5 1442.52 1056.52   4
 -16 -12   5 244.022 755.217   4
  28 -15  -5-489.696 987.618   3
  13  15  -5 1126.56 965.224   3
  15 -28  -5 22.1596 1073.43   1
  28 -15  -5-1283.22 1099.01   1
  15 -28  -2 2508.51 1323.77   1
  28 -15  -2 1.83236 702.372   3
 -15 -13  -2-259.648 503.531   1
  13  15  -2-326.188 882.601   3
  28 -15  -2 887.470 837.833   1
  15 -28   1 679.185 491.386   4
 -15 -13   1 231.903 630.453   4
  15 -28   1 63.1570 733.792   2
  28 -15   1-414.647 651.055   3
  13  15   1 1510.75 1318.67   3
 -15 -13   1 557.286 1082.55   2
 -15 -13   1-404.377 525.477   1
  15 -28   1 419.958 775.768   1
 -15 -13   4 501.062 899.379   4
  15 -28   4 2725.64 1496.02   2
  28 -15   4 1253.73 1029.68   3
 -15 -13   4-505.761 950.518   2
  13  15   4 3246.64 1644.22   3
  28 -15   4 1588.72 1578.39   4
  15 -28   4 2000.38 868.162   4
  28 -14  -3 1962.13 1073.91   3
  14 -28  -3 623.441 982.170   1
 -14 -14  -3 594.272 691.156   1
  14  14  -3-849.968 790.230   3
  28 -14  -3 327.518 818.552   1
  14 -28   0 474.051 526.650   4
 -14 -14   0-1004.47 825.609   4
  14 -28   0 702.564 646.497   2
  28 -14   0-288.807 829.157   3
  14  14   0 4049.07 1683.01   3
 -14 -14   0 1924.78 1172.50   2
 -14 -14   0 505.508 583.804   1
  14 -28   0 2149.56 1017.52   1
 -14 -14   3 293.565 743.252   4
  14 -28   3 1397.56 1291.61   2
  28 -14   3 899.797 960.139   3
  14  14   3-111.763 1060.01   3
 -14 -14   3 625.244 1017.46   2
  14 -28   3-36.2598 551.156   4
  28 -13  -4 1868.57 1001.57   1
  28 -13  -4 1023.49 934.770   3
  13 -28  -4 3154.11 1542.26   1
  15  13  -4 337.225 923.560   3
 -13 -15  -4 1663.87 866.217   1
 -13 -15  -1 132.296 491.831   1
  13 -28  -1-719.839 763.902   1
  28 -13  -1 564.110 798.564   3
  13 -28  -1 364.899 587.415   2
  15  13  -1-433.717 1016.08   3
 -13 -15  -1-371.602 977.485   2
 -13 -15   2 728.306 779.393   4
  28 -13   2 1733.42 951.456   3
  15  13   2 2127.40 1333.26   3
 -13 -15   2 1239.30 960.594   2
  13 -28   2 1514.95 874.598   1
  13 -28   2 284.181 476.338   4
  13 -28   5 358.056 1103.08   2
  28 -13   5 778.879 1105.64   3
 -13 -15   5 264.216 915.963   2
  15  13   5 3005.83 1677.90   3
  13 -28   5 433.791 788.794   4
 -13 -15   5 171.749 729.683   4
  28 -12  -5 880.478 1025.73   3
  28 -12  -5 953.030 1087.53   1
  16  12  -5-793.379 987.435   3
  12 -28  -5 118.131 1129.20   1
 -12 -16  -5 1357.00 1065.85   1
  12 -28  -2 405.788 893.550   1
 -12 -16  -2 1427.99 775.271   1
  12 -28  -2 1564.66 663.031   2
  16  12  -2 1735.11 1168.10   3
  12 -28   1 1204.21 642.249   4
 -12 -16   1 243.653 807.534   4
  12 -28   1 56.9509 702.661   2
  28 -12   1 26.8610 796.373   3
  16  12   1 330.487 967.668   3
 -12 -16   1 1337.93 1181.86   2
 -12 -16   1 291.344 626.142   1
  12 -28   1 490.996 779.972   1
 -12 -16   4-392.346 814.068   4
  12 -28   4 680.629 1095.43   2
  28 -12   4 1665.63 1200.23   3
 -12 -16   4 699.372 912.106   2
  16  12   4-368.176 1161.72   3
  12 -28   4 463.410 670.319   4
  28 -11  -3 412.753 931.217   3
  11 -28  -3 716.187 1105.92   1
 -11 -17  -3 749.267 685.285   1
  17  11  -3-1507.92 1103.87   3
  11 -28   0 55.5677 589.647   4
 -11 -17   0-88.3105 703.155   4
  28 -11   0 1.83044 744.258   3
  11 -28   0-100.288 595.337   2
  17  11   0 1291.65 1210.23   3
 -11 -17   0-67.4589 782.256   2
 -11 -17   0 976.005 724.021   1
  11 -28   0 1168.83 1070.82   1
 -11 -17   3 261.763 686.206   4
  11 -28   3 614.580 818.385   2
  28 -11   3-337.874 776.667   3
 -11 -17   3 1496.74 1003.03   2
  17  11   3 513.448 1281.10   3
  11 -28   3 947.697 671.098   4
  28 -10  -4 2236.41 1398.34   3
  10 -28  -4 2319.69 1351.81   1
  18  10  -4 155.400 838.127   3
 -10 -18  -4 877.755 822.834   1
 -10 -18  -1 1420.82 850.524   1
  10 -28  -1-380.707 855.673   1
  28 -10  -1 655.769 928.630   3
  10 -28  -1 1694.87 708.515   2
  18  10  -1 504.936 1053.75   3
 -10 -18  -1-80.7978 728.443   2
 -10 -18   2 2829.06 1093.29   4
  10 -28   2 3587.30 1328.59   2
  28 -10   2 3035.39 1159.43   3
  18  10   2 441.041 1045.67   3
 -10 -18   2 2922.50 1195.76   2
  10 -28   2 2652.09 1202.63   1
  10 -28   2 3908.88 1078.81   4
   9 -28  -2 1098.82 1291.09   1
  -9 -19  -2 902.594 798.444   1
  28  -9  -2-497.294 840.433   3
  19   9  -2-322.945 808.552   3
   9 -28  -2 1270.57 663.479   2
  -9 -19  -2 231.244 718.801   2
   9 -28   1 87.9390 490.772   4
  -9 -19   1 553.111 686.490   4
   9 -28   1 639.842 886.693   2
  28  -9   1 758.700 1025.84   3
  19   9   1-1231.75 1108.65   3
  -9 -19   1 707.229 863.592   2
  -9 -19   1 416.866 562.340   1
   9 -28   1 2561.27 1150.29   1
   9 -28   4 774.602 803.268   2
  28  -9   4 131.773 884.264   3
  -9 -19   4 96.0816 779.706   2
  19   9   4 665.449 1441.31   3
   9 -28   4 481.305 688.893   4
  -9 -19   4 736.536 961.081   4
   8 -28  -3 1966.07 1164.04   1
  -8 -20  -3 838.329 775.354   1
  28  -8  -3 701.480 756.101   3
  20   8  -3 1169.42 1181.16   3
   8 -28   0 131.353 620.648   4
  -8 -20   0 89.9224 727.180   4
  28  -8   0 2299.32 1281.84   3
   8 -28   0 187.306 741.467   2
  20   8   0 632.240 998.858   3
  -8 -20   0 932.818 945.597   2
  -8 -20   0-898.599 816.588   1
   8 -28   0 613.575 1000.72   1
  -8 -20   3 243.719 817.010   4
   8 -28   3 1514.18 1128.25   2
  28  -8   3 4912.66 1569.04   3
  -8 -20   3 2858.78 1386.59   2
  20   8   3 2396.48 1248.46   3
   8 -28   3 1224.84 780.756   4
  28  -7  -4 768.745 1232.37   3
   7 -28  -4 1653.10 1314.54   1
  21   7  -4 1092.44 960.926   3
  -7 -21  -4 2726.47 1161.45   1
  -7 -21  -1 605.328 683.037   1
   7 -28  -1 2924.59 1380.43   1
  -7 -21  -1 1080.68 854.359   4
  28  -7  -1-307.862 782.839   3
  21   7  -1 2691.49 1466.54   3
   7 -28  -1 1426.45 830.073   2
  -7 -21  -1 1006.85 951.020   2
   7 -28   2 1870.34 795.944   4
  -7 -21   2 74.1009 636.309   4
   7 -28   2 2964.57 1281.23   2
  28  -7   2 2194.98 1280.87   3
  21   7   2 1047.62 1075.12   3
  -7 -21   2 1082.97 1212.50   2
   7 -28   2 3498.93 1259.63   1
   6 -28  -2-15.4190 941.695   1
  -6 -22  -2 118.231 688.556   1
  28  -6  -2-407.963 1007.62   3
  22   6  -2 1882.11 1234.13   3
   6 -28  -2 129.879 576.840   2
  -6 -22  -2-1130.11 847.380   2
   6 -28   1 2041.51 831.400   4
  -6 -22   1 517.514 844.189   4
  28  -6   1 38.8653 827.458   3
   6 -28   1 293.848 708.494   2
  22   6   1-777.633 1092.42   3
  -6 -22   1 2140.44 1078.11   2
  -6 -22   1 76.9044 616.226   1
   6 -28   1 1612.63 1252.06   1
   5 -28  -3 787.311 945.636   1
  -5 -23  -3 2150.65 1113.27   1
  28  -5  -3 470.805 1004.56   3
  23   5  -3 1792.95 1103.95   3
   5 -28   0 861.891 756.576   4
  -5 -23   0 1174.57 1012.88   4
  28  -5   0 1445.76 1118.45   3
  23   5   0 1421.28 1272.23   3
   5 -28   0 250.340 717.127   2
  -5 -23   0-81.6664 682.908   2
  -5 -23   0 601.518 676.765   1
   5 -28   0 883.763 846.920   1
  -5 -23   3 5.01397 704.983   4
   5 -28   3 1859.30 1030.24   2
  28  -5   3 2026.85 1409.56   3
  -5 -23   3 1152.20 975.913   2
  23   5   3 1454.03 1135.97   3
   5 -28   3 105.946 618.241   4
  -4 -24  -1 1348.73 818.284   1
   4 -28  -1-760.168 1040.28   1
  -4 -24  -1-200.810 674.113   4
  28  -4  -1 2139.32 1373.63   3
  24   4  -1-20.6796 998.498   3
   4 -28  -1 2088.82 1096.12   2
  -4 -24  -1-204.810 666.201   2
   4 -28   2-278.463 656.122   4
  -4 -24   2 679.055 751.023   4
   4 -28   2 1109.39 1051.85   2
  28  -4   2 1172.45 1216.24   3
  24   4   2 2098.59 1487.43   3
  -4 -24   2 2200.33 1234.75   2
   4 -28   2-823.727 862.867   1
   3 -28   1 468.855 731.018   4
  -3 -25   1 980.164 1018.25   4
  28  -3   1-372.445 931.202   3
   3 -28   1 880.281 838.350   2
  25   3   1 1456.53 1269.96   3
  -3 -25   1-640.574 758.474   2
  -3 -25   1-699.976 809.518   1
   3 -28   1 2469.78 1142.36   1
  29 -23  -2-269.694 833.474   3
  23 -29  -2 537.487 938.546   1
   6  23  -2-362.894 989.061   3
  29 -23  -2-908.524 969.155   1
  29 -23  -2 593.532 994.708   2
  23 -29   1-106.448 700.373   1
  23 -29   1 1379.52 863.341   3
  29 -23   1 535.798 898.567   3
  29 -23   1 1698.66 1045.95   1
   6  23   1 974.432 1277.26   3
  29 -23   1 1905.40 1396.37   2
  23 -29   1-91.8546 893.132   2
  22 -29   0 1263.31 905.838   2
  22 -29   0 1214.73 1045.04   1
  22 -29   0 1355.45 832.031   3
  29 -22   0 262.321 802.521   3
  29 -22   0 266.232 739.382   1
   7  22   0 1074.42 1230.20   3
  29 -22   0 1157.59 1085.58   2
  21 -29  -1 1575.91 1131.67   1
  29 -21  -1-205.650 745.334   3
   8  21  -1 1988.43 1237.88   3
  29 -21  -1 1828.26 1081.56   1
  21 -29   2 1140.54 1078.37   2
 -21  -8   2 1007.76 913.280   4
  21 -29   2 1479.80 670.221   3
  29 -21   2-259.918 650.875   3
   8  21   2-1350.89 1356.85   3
 -21  -8   2 2067.89 1259.47   2
  29 -21   2 969.614 1299.64   2
  21 -29   2 1037.75 1080.58   1
  29 -20  -2 1932.17 1330.47   3
  20 -29  -2 108.309 818.003   1
   9  20  -2 705.465 876.043   3
  29 -20  -2 143.897 956.391   1
  20 -29   1 337.981 806.688   1
  20 -29   1 172.929 719.771   2
 -20  -9   1 1430.19 1108.54   4
  20 -29   1 1423.48 736.882   3
  29 -20   1-710.497 702.749   3
   9  20   1 1873.87 1432.16   3
 -20  -9   1 470.416 1232.49   2
  29 -19  -3 1079.93 1037.17   1
  29 -19  -3 1452.95 1135.87   3
  19 -29  -3 24.7330 946.868   1
  10  19  -3 2384.72 1160.13   3
  19 -29   0-334.547 799.177   1
  19 -29   0-233.499 716.584   2
  29 -19   0 1225.94 1000.58   3
  10  19   0 1211.38 1223.35   3
 -19 -10   3 1920.37 1264.85   4
  19 -29   3-2069.10 1216.96   2
  29 -19   3 1796.45 1055.75   3
  10  19   3 1906.61 1656.21   3
 -19 -10   3 592.352 1119.86   2
  29 -19   3 1495.17 1264.05   2
  19 -29   3 411.858 740.677   1
  18 -29  -4 1370.88 1187.01   1
  29 -18  -4-1137.45 1070.12   1
  11  18  -4 158.205 951.011   3
  18 -29  -1 703.755 891.859   1
  18 -29  -1-262.137 615.351   2
  29 -18  -1 811.414 880.164   3
  11  18  -1-1226.33 967.486   3
 -18 -11   2 1500.24 970.602   4
  18 -29   2 540.629 793.621   2
  18 -29   2 1447.35 693.191   3
  29 -18   2 1243.26 952.392   3
  11  18   2 2275.28 1618.03   3
 -18 -11   2 562.233 774.547   2
  18 -29   2 515.194 626.506   1
  17 -29  -2 1368.97 997.767   1
  29 -17  -2-859.336 900.600   3
  12  17  -2 452.207 822.922   3
 -17 -12   1 2657.74 1174.36   4
  17 -29   1 2150.68 1045.82   2
  29 -17   1 2428.55 1142.44   3
  12  17   1 2054.55 1445.85   3
 -17 -12   1 618.314 854.115   2
 -17 -12   1 909.309 531.181   1
  17 -29   1 3820.98 1320.40   1
 -17 -12   4 714.871 881.878   4
  17 -29   4-222.253 978.828   2
  29 -17   4-842.657 1062.89   3
 -17 -12   4-2057.72 1215.23   2
  12  17   4 1812.07 1788.32   3
  17 -29   4 694.356 584.902   4
  29 -16  -3 1170.75 980.633   3
  16 -29  -3-1543.54 1541.72   1
  13  16  -3-971.187 930.226   3
  16 -29   0 393.995 917.537   1
 -16 -13   0 969.284 997.352   4
  16 -29   0 1973.39 1033.58   2
  29 -16   0 108.571 674.046   3
  13  16   0 210.246 1087.82   3
 -16 -13   0 100.027 862.191   2
 -16 -13   0-5.42910 504.551   1
 -16 -13   3-145.310 668.751   4
  16 -29   3 1956.48 1153.66   2
  29 -16   3 5.34697 714.645   3
  13  16   3 316.839 1085.78   3
 -16 -13   3 1804.11 1118.42   2
  29 -16   3-67.4487 999.190   4
  16 -29   3 62.6166 700.055   1
  16 -29   3-31.5113 598.773   4
  29 -15  -4-914.352 1269.80   3
  15 -29  -4 600.138 976.674   1
  14  15  -4 1270.47 1284.13   3
  15 -29  -1 613.544 812.968   1
 -15 -14  -1 571.968 560.675   1
  29 -15  -1 912.912 889.495   3
  15 -29  -1 2440.63 846.150   2
  14  15  -1 624.537 1081.51   3
 -15 -14  -1 1191.51 1099.90   2
 -15 -14   2-631.377 934.755   4
  15 -29   2 952.801 811.183   2
  29 -15   2-338.840 645.737   3
  14  15   2 1473.17 1435.18   3
 -15 -14   2 1526.13 1235.11   2
  15 -29   2 668.310 884.727   1
  15 -29   2 498.324 633.064   4
  14 -29  -2 21.9477 822.550   1
  29 -14  -2 1773.98 1105.30   3
 -14 -15  -2-320.317 562.942   1
  15  14  -2 39.6291 935.534   3
  14 -29   1 2081.36 793.633   4
 -14 -15   1 853.619 989.669   4
  14 -29   1 2242.28 1049.93   2
  29 -14   1 2498.29 1031.03   3
  15  14   1 2829.63 1237.59   3
 -14 -15   1 1597.22 957.943   2
 -14 -15   1-112.316 600.353   1
  14 -29   1 1493.62 1250.90   1
 -14 -15   4 303.030 675.578   4
  14 -29   4-1069.12 1028.97   2
  29 -14   4 887.750 749.644   3
 -14 -15   4 3181.09 1558.17   2
  15  14   4-2.89248 1213.72   3
  14 -29   4 1158.49 710.894   4
  29 -13  -3-540.321 955.426   3
  13 -29  -3 941.160 1214.77   1
 -13 -16  -3 916.155 766.430   1
  16  13  -3-40.7175 941.754   3
  13 -29   0 1172.21 692.084   4
 -13 -16   0 1746.91 1018.47   4
  13 -29   0 259.320 595.460   2
  29 -13   0 1640.95 1015.09   3
  16  13   0-582.539 1125.68   3
 -13 -16   0 276.337 723.368   2
 -13 -16   0 1316.27 668.392   1
  13 -29   0 687.710 812.193   1
 -13 -16   3 1162.61 837.188   4
  13 -29   3 2153.95 1207.32   2
  29 -13   3 1379.50 1079.27   3
  16  13   3-570.471 1053.27   3
 -13 -16   3 417.512 958.883   2
  13 -29   3 213.054 745.034   1
  13 -29   3 967.271 722.440   4
  29 -12  -4 208.190 868.079   3
  12 -29  -4 2040.39 1449.99   1
  17  12  -4-366.001 923.167   3
 -12 -17  -4 1078.78 996.813   1
 -12 -17  -1 1123.98 725.990   1
  12 -29  -1 2132.25 1164.86   1
  29 -12  -1 1254.06 1002.84   3
  12 -29  -1 3060.48 900.260   2
  17  12  -1 1406.28 1214.47   3
 -12 -17  -1 2429.44 1148.55   2
 -12 -17   2 1143.76 921.817   4
  12 -29   2-185.073 811.461   2
  29 -12   2 1169.80 1009.12   3
  17  12   2 949.421 1122.52   3
 -12 -17   2 271.154 766.201   2
  12 -29   2-327.573 650.125   1
  12 -29   2 887.664 688.761   4
  11 -29  -2 614.161 1031.76   1
 -11 -18  -2 614.158 784.426   1
  29 -11  -2-422.757 905.454   3
  18  11  -2-613.519 1030.27   3
  11 -29   1 997.741 759.128   4
 -11 -18   1 1396.20 862.763   4
  11 -29   1 1131.45 898.016   2
  29 -11   1 1728.28 988.513   3
  18  11   1 97.8298 1139.50   3
 -11 -18   1 1607.72 1114.32   2
 -11 -18   1-286.465 605.231   1
  11 -29   1 2272.05 1382.82   1
 -11 -18   4 887.670 828.086   4
  11 -29   4 67.0054 915.913   2
  29 -11   4 1689.79 1108.89   3
 -11 -18   4 3054.29 1415.41   2
  18  11   4 652.013 1170.22   3
  11 -29   4 670.414 842.956   4
  10 -29  -3 1397.16 1336.79   1
  29 -10  -3 334.323 866.592   3
 -10 -19  -3 103.394 811.875   1
  10 -29   0 956.033 861.092   4
 -10 -19   0-864.820 828.303   4
  29 -10   0 1612.20 900.754   3
  10 -29   0 1070.42 668.238   2
  19  10   0 773.388 1227.91   3
 -10 -19   0 427.718 1089.13   2
 -10 -19   0 2498.88 899.140   1
  10 -29   0 1647.35 1114.94   1
 -10 -19   3 15.5135 726.883   4
  10 -29   3 1874.59 1150.10   2
  29 -10   3 1861.76 1080.12   3
 -10 -19   3 25.7544 899.154   2
  19  10   3 1540.95 1365.99   3
  10 -29   3 1759.00 832.003   4
  -9 -20  -1 1245.81 762.374   1
   9 -29  -1 68.9441 940.894   1
  29  -9  -1 379.815 984.614   3
   9 -29  -1 99.0986 690.531   2
  20   9  -1 368.758 1022.21   3
  -9 -20  -1 2133.86 963.033   2
   9 -29   2 500.315 656.730   4
  -9 -20   2 1682.67 1007.57   4
   9 -29   2 1181.76 942.737   2
  29  -9   2 2451.38 1226.13   3
  20   9   2 631.093 982.674   3
  -9 -20   2 146.646 1078.09   2
   9 -29   2 310.663 748.829   1
   8 -29  -2 1225.01 1035.91   1
  -8 -21  -2 198.234 761.800   1
  29  -8  -2 855.114 1261.02   3
  21   8  -2-64.1845 850.278   3
  -8 -21  -2 2133.98 1090.15   2
   8 -29   1 515.534 730.966   4
  -8 -21   1 736.521 612.686   4
   8 -29   1 621.877 748.163   2
  29  -8   1 2481.11 1299.67   3
  21   8   1 722.248 1129.61   3
  -8 -21   1 823.307 955.940   2
  -8 -21   1-493.813 704.428   1
   8 -29   1 1793.77 1100.87   1
   7 -29   0 504.343 617.305   4
  -7 -22   0-373.351 690.966   4
  29  -7   0 334.317 1049.88   3
   7 -29   0-737.938 881.020   2
  22   7   0-567.692 1039.19   3
  -7 -22   0 1603.58 1011.68   2
  -7 -22   0 600.106 886.201   1
   7 -29   0 1355.38 963.808   1
  -6 -23  -1 2378.34 1127.53   1
   6 -29  -1-1209.05 1099.75   1
  29  -6  -1 149.106 1008.64   3
  23   6  -1 113.458 1198.54   3
   6 -29  -1 795.177 670.010   2
  -6 -23  -1 2310.78 1115.08   2
   6 -29   2-796.409 822.574   4
  -6 -23   2-698.443 776.523   4
   6 -29   2 839.282 1023.08   2
  29  -6   2 354.421 1023.10   3
  23   6   2 1835.37 1455.51   3
  -6 -23   2 22.6357 1009.96   2
   6 -29   2 2407.65 1242.91   1
  21 -30   0-247.454 692.320   2
  21 -30   0 872.697 1109.92   1
  21 -30   0 477.132 786.465   3
  30 -21   0 560.415 912.055   3
   9  21   0 449.323 1146.72   3
  20 -30  -1 189.495 930.008   1
  30 -20  -1 155.727 796.795   3
  10  20  -1 764.258 1045.93   3
 -20 -10   2 184.496 922.987   4
  20 -30   2 1605.14 1157.60   2
  30 -20   2-544.953 658.611   3
  10  20   2 107.944 1173.32   3
 -20 -10   2-228.242 880.559   2
  20 -30   2-692.143 796.036   1
  30 -19  -2 1173.96 971.987   3
  19 -30  -2 2282.34 1148.09   1
  11  19  -2 1715.79 1015.08   3
 -19 -11   1-1775.38 1054.43   4
  19 -30   1 1790.24 1134.04   2
  19 -30   1 507.146 741.513   3
  30 -19   1-401.485 738.406   3
  11  19   1-97.5365 1171.77   3
 -19 -11   1 2020.75 1274.36   2
  19 -30   1-21.5873 819.724   1
  18 -30   0 2927.82 1335.79   1
  18 -30   0 547.830 683.206   2
  30 -18   0 1343.85 1003.06   3
  12  18   0 816.837 1252.54   3
 -18 -12   0 1639.68 1402.64   2
  17 -30  -1 2629.39 1374.18   1
  30 -17  -1 1422.84 1004.80   3
  13  17  -1 2518.65 1285.25   3
 -17 -13   2-781.947 776.117   4
  17 -30   2 835.638 1052.83   2
  30 -17   2 432.209 722.427   3
  13  17   2-1518.79 1348.64   3
 -17 -13   2-293.458 1058.76   2
  17 -30   2 327.364 834.824   1
  16 -30  -2-144.452 874.215   1
  30 -16  -2 1493.40 1177.60   3
  14  16  -2 25.6249 1091.25   3
 -16 -14   1-465.526 789.476   4
  16 -30   1 2387.94 1274.21   2
  30 -16   1 721.896 974.782   3
  14  16   1 2613.43 1531.69   3
 -16 -14   1 3005.46 1689.81   2
 -16 -14   1 1540.49 757.346   1
  16 -30   1 460.653 982.161   1
  30 -15  -3 1147.38 937.578   3
  15 -30  -3 584.987 1177.01   1
  15  15  -3 919.191 1001.71   3
  15 -30   0 768.333 804.569   1
 -15 -15   0 760.166 829.185   4
  15 -30   0-139.722 683.084   2
  30 -15   0 1504.50 998.904   3
  15  15   0 555.204 1125.35   3
 -15 -15   0 277.428 895.943   2
 -15 -15   0 998.527 706.767   1
 -15 -15   3-75.3254 830.516   4
  15 -30   3 639.345 1123.79   2
  30 -15   3 1189.95 1116.58   3
  15  15   3-246.315 1301.25   3
 -15 -15   3 1475.02 1273.03   2
  15 -30   3 11.3001 866.708   1
  15 -30   3 1407.49 904.818   4
  14 -30  -1 2158.28 1208.71   1
 -14 -16  -1 544.012 572.548   1
  30 -14  -1 1907.82 1206.98   3
  16  14  -1-1270.46 1248.52   3
 -14 -16  -1 2445.40 1386.35   2
 -14 -16   2 443.598 691.573   4
  14 -30   2 1561.29 1130.23   2
  30 -14   2-149.889 885.423   3
  16  14   2 419.836 1094.60   3
 -14 -16   2 1533.54 1156.44   2
  14 -30   2 534.016 866.379   1
  14 -30   2 1373.79 801.505   4
  13 -30  -2 293.302 1256.46   1
 -13 -17  -2 718.725 814.117   1
  30 -13  -2 882.065 762.165   3
  17  13  -2 141.645 1026.32   3
  13 -30   1 525.099 526.993   4
 -13 -17   1 332.334 737.293   4
  13 -30   1 466.060 772.914   2
  30 -13   1 3563.02 1273.25   3
  17  13   1 1426.45 1394.24   3
 -13 -17   1 1256.23 1179.27   2
 -13 -17   1 1237.39 831.291   1
  13 -30   1 452.800 682.371   1
  12 -30   0 39.1537 582.872   4
 -12 -18   0 913.781 904.536   4
  30 -12   0 2095.35 1389.85   3
  12 -30   0 1702.66 966.715   2
  18  12   0 1151.74 1072.35   3
 -12 -18   0 1298.69 1118.36   2
 -12 -18   0-121.487 586.187   1
  12 -30   0 2622.40 1296.47   1
 -11 -19  -1 2124.99 1016.00   1
  11 -30  -1 1609.44 1310.16   1
  30 -11  -1 1667.88 1342.74   3
  11 -30  -1 231.280 635.753   2
  19  11  -1 1549.83 1325.13   3
 -11 -19  -1 1577.69 1188.67   2
  11 -30   2-905.441 676.696   4
 -11 -19   2 1026.42 1079.62   4
  11 -30   2 1456.32 1040.18   2
  30 -11   2-27.6265 820.908   3
  19  11   2-145.920 1123.10   3
 -11 -19   2 854.745 1058.66   2
  11 -30   2 957.428 751.959   1
  10 -30  -2-1150.14 1413.26   1
 -10 -20  -2-138.939 727.186   1
  30 -10  -2-1107.69 1035.40   3
  20  10  -2 128.945 1035.63   3
 -10 -20  -2 524.007 740.495   2
  10 -30   1 682.628 677.471   4
 -10 -20   1 1.74809 858.387   4
  10 -30   1 1217.28 930.883   2
  30 -10   1 663.831 1075.17   3
  20  10   1 302.454 1260.31   3
 -10 -20   1 1262.85 1033.24   2
 -10 -20   1-440.672 669.126   1
  10 -30   1 1352.19 1072.31   1
   9 -30   0 728.633 772.036   4
  -9 -21   0 3563.71 1370.45   4
  30  -9   0 1937.58 1244.18   3
   9 -30   0 1971.19 916.596   2
  21   9   0-12.5430 1105.82   3
  -9 -21   0 1256.17 980.143   2
  -9 -21   0 1678.22 976.700   1
   9 -30   0-256.749 970.559   1
  17 -31   0 817.001 780.117   1
  17 -31   0 520.398 848.834   2
  31 -17   0 330.297 782.692   3
  14  17   0-1553.83 1303.06   3
 -17 -14   0-6.72726 1042.28   2
  14 -31   0 2748.29 1336.12   1
 -14 -17   0-678.765 929.976   4
  14 -31   0 453.838 674.089   2
  31 -14   0-125.989 771.575   3
  17  14   0-685.372 1155.09   3
 -14 -17   0 2726.16 1365.37   2
 -14 -17   0 295.840 617.812   1
   0   0   0    0.00    0.00   0

TITL YY_Zn_Gly_Pyr_MeOH_SlowHeat_100K in R3c
REM R3c (#161 in standard setting)
CELL 0.71073  26.102073  26.102073  10.129056  90.0000  90.0000 120.0000
ZERR   18.00   0.002032   0.002032   0.000514   0.0000   0.0000   0.0000
LATT -3
SYMM -y, x-y, z
SYMM -x+y,-x, z
SYMM -y,-x, z+1/2
SYMM -x+y, y, z+1/2
SYMM  x, x-y, z+1/2
SFAC C H N O Zn
UNIT 144.00 144.00 54.00 54.00 18.00
TREF
HKLF 4
END
;
_shelx_hkl_checksum              48622
_olex2_submission_special_instructions 'No special instructions were received'
_oxdiff_exptl_absorpt_empirical_details
;
Empirical correction (ABSPACK) includes:
- Absorption correction using spherical harmonics
- Frame scaling
;
_oxdiff_exptl_absorpt_empirical_full_max 1.449
_oxdiff_exptl_absorpt_empirical_full_min 0.668
loop_
_space_group_symop_operation_xyz
'x, y, z'
'-y, x-y, z'
'-x+y, -x, z'
'-x+y, y, z+1/2'
'x, x-y, z+1/2'
'-y, -x, z+1/2'
'x+2/3, y+1/3, z+1/3'
'-y+2/3, x-y+1/3, z+1/3'
'-x+y+2/3, -x+1/3, z+1/3'
'-x+y+2/3, y+1/3, z+5/6'
'x+2/3, x-y+1/3, z+5/6'
'-y+2/3, -x+1/3, z+5/6'
'x+1/3, y+2/3, z+2/3'
'-y+1/3, x-y+2/3, z+2/3'
'-x+y+1/3, -x+2/3, z+2/3'
'-x+y+1/3, y+2/3, z+7/6'
'x+1/3, x-y+2/3, z+7/6'
'-y+1/3, -x+2/3, z+7/6'
loop_
_atom_site_label
_atom_site_type_symbol
_atom_site_fract_x
_atom_site_fract_y
_atom_site_fract_z
_atom_site_U_iso_or_equiv
_atom_site_adp_type
_atom_site_occupancy
_atom_site_site_symmetry_order
_atom_site_calc_flag
_atom_site_refinement_flags_posn
_atom_site_refinement_flags_adp
_atom_site_refinement_flags_occupancy
_atom_site_disorder_assembly
_atom_site_disorder_group
Zn1 Zn -0.63774(11) -0.98134(10) -0.1317(3) 0.0323(8) Uani 1 1 d . U . . .
O1 O -0.5827(7) -0.9327(6) -0.2710(13) 0.035(3) Uani 1 1 d . U . . .
N2 N -0.6102(8) -0.9276(8) 0.0219(16) 0.034(2) Uani 1 1 d . U . . .
N1 N -0.7220(8) -1.0130(8) -0.1851(16) 0.034(2) Uani 1 1 d . U . . .
O2 O -0.6211(7) -1.0466(7) -0.1116(13) 0.039(3) Uani 1 1 d . U . . .
O3 O -0.5472(7) -0.7730(7) 0.3052(13) 0.041(3) Uani 1 1 d . . . . .
N3 N -0.5356(8) -0.7438(8) 0.0934(16) 0.038(5) Uani 1 1 d . . . . .
H3 H -0.5327 -0.7524 0.0107 0.046 Uiso 1 1 calc R . . . .
C4 C -0.5515(11) -0.7868(11) 0.188(2) 0.041(3) Uani 1 1 d . . . . .
C2 C -0.5804(9) -0.8704(10) 0.020(2) 0.034(2) Uani 1 1 d . . . . .
H2 H -0.5648 -0.8475 -0.0575 0.041 Uiso 1 1 calc R . . . .
C3 C -0.5739(9) -0.8468(10) 0.1440(19) 0.034(2) Uani 1 1 d . . . . .
C6 C -0.5797(10) -0.6835(10) 0.137(2) 0.036(4) Uani 1 1 d . . . . .
C5 C -0.5234(10) -0.6846(11) 0.1263(19) 0.036(4) Uani 1 1 d . . . . .
H5A H -0.4982 -0.6565 0.0570 0.043 Uiso 1 1 calc R . . . .
H5B H -0.5016 -0.6720 0.2111 0.043 Uiso 1 1 calc R . . . .
C1 C -0.7715(10) -1.0409(10) -0.110(2) 0.034(2) Uani 1 1 d . . . . .
H1 H -0.7723 -1.0460 -0.0173 0.041 Uiso 1 1 calc R . . . .
loop_
_atom_site_aniso_label
_atom_site_aniso_U_11
_atom_site_aniso_U_22
_atom_site_aniso_U_33
_atom_site_aniso_U_23
_atom_site_aniso_U_13
_atom_site_aniso_U_12
Zn1 0.0458(15) 0.0446(16) 0.0052(10) -0.0006(11) -0.0017(10) 0.0217(13)
O1 0.049(8) 0.040(8) 0.013(7) 0.000(6) 0.003(6) 0.019(7)
N2 0.042(5) 0.045(5) 0.010(4) -0.004(4) -0.005(4) 0.017(4)
N1 0.042(5) 0.045(5) 0.010(4) -0.004(4) -0.005(4) 0.017(4)
O2 0.060(10) 0.051(8) 0.010(7) 0.004(6) 0.006(7) 0.030(8)
O3 0.068(8) 0.048(8) 0.012(5) -0.003(5) -0.001(5) 0.031(7)
N3 0.055(12) 0.047(11) 0.009(9) -0.004(7) -0.004(8) 0.022(10)
C4 0.068(8) 0.048(8) 0.012(5) -0.003(5) -0.001(5) 0.031(7)
C2 0.042(5) 0.045(5) 0.010(4) -0.004(4) -0.005(4) 0.017(4)
C3 0.042(5) 0.045(5) 0.010(4) -0.004(4) -0.005(4) 0.017(4)
C6 0.057(10) 0.053(10) 0.011(7) 0.005(7) -0.004(7) 0.037(9)
C5 0.057(10) 0.053(10) 0.011(7) 0.005(7) -0.004(7) 0.037(9)
C1 0.042(5) 0.045(5) 0.010(4) -0.004(4) -0.005(4) 0.017(4)
loop_
_atom_type_symbol
_atom_type_description
_atom_type_scat_dispersion_real
_atom_type_scat_dispersion_imag
_atom_type_scat_source
C C 0.0033 0.0016 'International Tables Vol C Tables 4.2.6.8 and 6.1.1.4'
H H 0.0000 0.0000 'International Tables Vol C Tables 4.2.6.8 and 6.1.1.4'
N N 0.0061 0.0033 'International Tables Vol C Tables 4.2.6.8 and 6.1.1.4'
O O 0.0106 0.0060 'International Tables Vol C Tables 4.2.6.8 and 6.1.1.4'
Zn Zn 0.2839 1.4301 'International Tables Vol C Tables 4.2.6.8 and 6.1.1.4'
loop_
_geom_angle_atom_site_label_1
_geom_angle_atom_site_label_2
_geom_angle_atom_site_label_3
_geom_angle
_geom_angle_site_symmetry_1
_geom_angle_site_symmetry_3
_geom_angle_publ_flag
O1 Zn1 N2 102.6(6) . . ?
O1 Zn1 N1 111.8(7) . . ?
O1 Zn1 O2 103.1(6) . . ?
N2 Zn1 N1 116.2(8) . . ?
O2 Zn1 N2 112.0(7) . . ?
O2 Zn1 N1 110.1(7) . . ?
C6 O1 Zn1 137.9(15) 5_544 . ?
N1 N2 Zn1 124.9(14) 9_435 . ?
C2 N2 Zn1 127.3(14) . . ?
C2 N2 N1 107.5(17) . 9_435 ?
N2 N1 Zn1 123.1(14) 14_334 . ?
N2 N1 C1 107.6(18) 14_334 . ?
C1 N1 Zn1 128.8(14) . . ?
C6 O2 Zn1 119.6(14) 12_334 . ?
C4 N3 C5 121.7(17) . . ?
O3 C4 N3 119(2) . . ?
O3 C4 C3 123(2) . . ?
N3 C4 C3 117.7(19) . . ?
N2 C2 C3 112(2) . . ?
C2 C3 C4 132(2) . . ?
C1 C3 C4 124(2) 9_435 . ?
C1 C3 C2 104(2) 9_435 . ?
O1 C6 C5 117.2(19) 5_545 . ?
O2 C6 O1 124(2) 18_334 5_545 ?
O2 C6 C5 118.5(19) 18_334 . ?
N3 C5 C6 110(2) . . ?
N1 C1 C3 109.2(18) . 14_334 ?
loop_
_geom_bond_atom_site_label_1
_geom_bond_atom_site_label_2
_geom_bond_distance
_geom_bond_site_symmetry_2
_geom_bond_publ_flag
Zn1 O1 1.961(14) . ?
Zn1 N2 1.974(17) . ?
Zn1 N1 1.999(19) . ?
Zn1 O2 1.969(15) . ?
O1 C6 1.30(3) 5_544 ?
N2 N1 1.34(2) 9_435 ?
N2 C2 1.29(3) . ?
N1 N2 1.34(2) 14_334 ?
N1 C1 1.35(3) . ?
O2 C6 1.26(3) 12_334 ?
O3 C4 1.23(2) . ?
N3 C4 1.37(3) . ?
N3 C5 1.45(3) . ?
C4 C3 1.44(3) . ?
C2 C3 1.37(3) . ?
C3 C1 1.36(3) 9_435 ?
C6 O1 1.30(3) 5_545 ?
C6 O2 1.26(3) 18_334 ?
C6 C5 1.49(3) . ?
C1 C3 1.36(3) 14_334 ?
