#------------------------------------------------------------------------------
#$Date: 2020-08-22 01:55:16 +0300 (Sat, 22 Aug 2020) $
#$Revision: 255533 $
#$URL: file:///home/coder/svn-repositories/cod/cif/4/13/51/4135180.cif $
#------------------------------------------------------------------------------
#
# This file is available in the Crystallography Open Database (COD),
# http://www.crystallography.net/
#
# All data on this site have been placed in the public domain by the
# contributors.
#
data_4135180
loop_
_publ_author_name
'Yan, Yong'
'Carrington, Elliot J.'
'P\'etuya, R\'emi'
'Whitehead, George F. S.'
'Verma, Ajay'
'Hylton, Rebecca K.'
'Tang, Chiu C.'
'Berry, Neil G.'
'Darling, George R.'
'Dyer, Matthew S.'
'Antypov, Dmytro'
'Katsoulidis, Alexandros P.'
'Rosseinsky, Matthew J.'
_publ_section_title
;
 Amino Acid Residues Determine the Response of Flexible Metal-Organic
 Frameworks to Guests.
;
_journal_name_full               'Journal of the American Chemical Society'
_journal_paper_doi               10.1021/jacs.0c03853
_journal_year                    2020
_chemical_absolute_configuration syn
_chemical_formula_moiety         'Zn C7 H7 N3 O3, 0.14(C4 H8 O2)'
_chemical_formula_sum            'C7.54 H8.09 N3 O3.27 Zn'
_chemical_formula_weight         258.48
_space_group_crystal_system      trigonal
_space_group_IT_number           146
_space_group_name_Hall           'R 3'
_space_group_name_H-M_alt        'R 3 :H'
_atom_sites_solution_hydrogens   geom
_atom_sites_solution_primary     dual
_audit_creation_date             2019-08-12
_audit_creation_method
;
Olex2 1.2
(compiled 2018.05.29 svn.r3508 for OlexSys, GUI svn.r5506)
;
_cell_angle_alpha                90
_cell_angle_beta                 90
_cell_angle_gamma                120
_cell_formula_units_Z            18
_cell_length_a                   28.6845(7)
_cell_length_b                   28.6845(7)
_cell_length_c                   10.1435(2)
_cell_measurement_reflns_used    13666
_cell_measurement_temperature    100
_cell_measurement_theta_max      27.5310
_cell_measurement_theta_min      2.0970
_cell_volume                     7227.9(3)
_computing_cell_refinement       'CrysAlisPro 1.171.38.46 (Rigaku OD, 2015)'
_computing_data_collection       'CrysAlisPro 1.171.38.46 (Rigaku OD, 2015)'
_computing_data_reduction        'CrysAlisPro 1.171.38.46 (Rigaku OD, 2015)'
_computing_molecular_graphics    'Olex2 (Dolomanov et al., 2009)'
_computing_publication_material  'Olex2 (Dolomanov et al., 2009)'
_computing_structure_refinement  'ShelXL (Sheldrick, 2015)'
_computing_structure_solution    'ShelXT (Sheldrick, 2015)'
_diffrn_ambient_temperature      100
_diffrn_detector                 'CCD plate'
_diffrn_measured_fraction_theta_full 1.000
_diffrn_measured_fraction_theta_max 1.000
_diffrn_measurement_details
;
List of Runs (angles in degrees, time in seconds):

  # Type    Start    End  Width  t~exp~   \w     \q     \k     \f   Frames
--------------------------------------------------------------------------
  1  \w   -110.00  15.00   1.00   10.00    --  -20.00 -68.00   0.00  125
  2  \w   -110.00  15.00   1.00   10.00    --  -20.00 -68.00 120.00  125
  3  \w   -110.00  15.00   1.00   10.00    --  -20.00 -68.00 240.00  125
  4  \w   -110.00  15.00   1.00   10.00    --  -20.00 -30.00  90.00  125
;
_diffrn_measurement_device       'abstract diffractometer'
_diffrn_measurement_device_type
'dtrek-CrysAlisPro-abstract goniometer imported rigaku-d*trek images'
_diffrn_measurement_method       '\w scans'
_diffrn_orient_matrix_type
'CrysAlisPro convention (1999,Acta A55,543-557)'
_diffrn_orient_matrix_UB_11      0.0140785000
_diffrn_orient_matrix_UB_12      0.0282548000
_diffrn_orient_matrix_UB_13      0.0100004000
_diffrn_orient_matrix_UB_21      -0.0247242000
_diffrn_orient_matrix_UB_22      -0.0007528000
_diffrn_orient_matrix_UB_23      0.0120527000
_diffrn_orient_matrix_UB_31      0.0022952000
_diffrn_orient_matrix_UB_32      -0.0040039000
_diffrn_orient_matrix_UB_33      0.0681681000
_diffrn_radiation_monochromator  graphite
_diffrn_radiation_probe          x-ray
_diffrn_radiation_type           MoK\a
_diffrn_radiation_wavelength     0.71073
_diffrn_reflns_av_R_equivalents  0.0573
_diffrn_reflns_av_unetI/netI     0.0480
_diffrn_reflns_Laue_measured_fraction_full 1.000
_diffrn_reflns_Laue_measured_fraction_max 1.000
_diffrn_reflns_limit_h_max       37
_diffrn_reflns_limit_h_min       -37
_diffrn_reflns_limit_k_max       37
_diffrn_reflns_limit_k_min       -37
_diffrn_reflns_limit_l_max       9
_diffrn_reflns_limit_l_min       -13
_diffrn_reflns_number            30612
_diffrn_reflns_point_group_measured_fraction_full 0.901
_diffrn_reflns_point_group_measured_fraction_max 0.876
_diffrn_reflns_theta_full        25.242
_diffrn_reflns_theta_max         27.459
_diffrn_reflns_theta_min         2.169
_diffrn_source                   'fine-focus sealed X-ray tube'
_diffrn_source_type              'Enhance (Mo) X-ray Source'
_exptl_absorpt_coefficient_mu    1.523
_exptl_absorpt_correction_T_max  1.00000
_exptl_absorpt_correction_T_min  0.83907
_exptl_absorpt_correction_type   multi-scan
_exptl_absorpt_process_details
;
CrysAlisPro 1.171.38.46 (Rigaku Oxford Diffraction, 2015)
Empirical absorption correction using spherical harmonics,
 implemented in SCALE3 ABSPACK scaling algorithm.
;
_exptl_crystal_colour            white
_exptl_crystal_colour_primary    white
_exptl_crystal_density_diffrn    1.069
_exptl_crystal_description       needle
_exptl_crystal_F_000             2349
_exptl_crystal_preparation       'Solvent Exchnage Dioxane'
_exptl_crystal_size_max          0.5
_exptl_crystal_size_mid          0.1
_exptl_crystal_size_min          0.1
_refine_diff_density_max         1.535
_refine_diff_density_min         -0.581
_refine_diff_density_rms         0.187
_refine_ls_abs_structure_details
;
 Flack x determined using 1914 quotients [(I+)-(I-)]/[(I+)+(I-)]
 (Parsons, Flack and Wagner, Acta Cryst. B69 (2013) 249-259).
;
_refine_ls_abs_structure_Flack   0.001(11)
_refine_ls_extinction_method     none
_refine_ls_goodness_of_fit_ref   1.085
_refine_ls_hydrogen_treatment    constr
_refine_ls_matrix_type           full
_refine_ls_number_parameters     280
_refine_ls_number_reflns         6458
_refine_ls_number_restraints     13
_refine_ls_restrained_S_all      1.086
_refine_ls_R_factor_all          0.0861
_refine_ls_R_factor_gt           0.0718
_refine_ls_shift/su_max          0.000
_refine_ls_shift/su_mean         0.000
_refine_ls_structure_factor_coef Fsqd
_refine_ls_weighting_details
'w=1/[\s^2^(Fo^2^)+(0.1338P)^2^+35.6416P] where P=(Fo^2^+2Fc^2^)/3'
_refine_ls_weighting_scheme      calc
_refine_ls_wR_factor_gt          0.1981
_refine_ls_wR_factor_ref         0.2103
_reflns_Friedel_coverage         0.753
_reflns_Friedel_fraction_full    0.803
_reflns_Friedel_fraction_max     0.752
_reflns_number_gt                5420
_reflns_number_total             6458
_reflns_threshold_expression     'I > 2\s(I)'
_cod_data_source_file            ZnAlaPyr_Dioxane_100K.cif
_cod_data_source_block           ZnAlaPyr_Dioxane_100K
_cod_original_cell_volume        7227.9(4)
_cod_original_sg_symbol_H-M      'R 3'
_cod_database_code               4135180
_shelx_shelxl_version_number     2014/7
_chemical_oxdiff_formula         ZnC7H7N3O8
_shelx_space_group_comment
;
The symmetry employed for this shelxl refinement is uniquely defined
by the following loop, which should always be used as a source of
symmetry information in preference to the above space-group names.
They are only intended as comments.
;
_reflns_odcompleteness_completeness 99.97
_reflns_odcompleteness_iscentric 1
_reflns_odcompleteness_theta     27.40
_olex2_refinement_description
;
1. Fixed Uiso
 At 1.2 times of:
  All C(H) groups, All C(H,H) groups, All N(H) groups
 At 1.5 times of:
  All C(H,H,H) groups
2. Restrained distances
 C17-O8
 1.3 with sigma of 0.04
 C15-O7
 1.3 with sigma of 0.04
 O7-C18
 1.3 with sigma of 0.04
 C18-C17
 1.4 with sigma of 0.04
 O8-C16
 1.3 with sigma of 0.04
 C15-C16
 1.4 with sigma of 0.04
3. Uiso/Uaniso restraints and constraints
O7 \\sim C18 \\sim C17 \\sim O8 \\sim C16 \\sim C15: within 2A with sigma of
0.02 and sigma for terminal atoms of 0.04
4. Others
 Sof(O7)=Sof(C18)=Sof(H18A)=Sof(H18B)=Sof(O8)=Sof(C17)=Sof(H17A)=Sof(H17B)=
 Sof(C15)=Sof(H15A)=Sof(H15B)=Sof(C16)=Sof(H16A)=Sof(H16B)=FVAR(1)
5.a Ternary CH refined with riding coordinates:
 C5(H5), C12(H12)
5.b Secondary CH2 refined with riding coordinates:
 C18(H18A,H18B), C17(H17A,H17B), C15(H15A,H15B), C16(H16A,H16B)
5.c Aromatic/amide H refined with riding coordinates:
 N6(H6), N3(H3), C3(H3A), C8(H8), C9(H9), C1(H1)
5.d Idealised Me refined as rotating group:
 C14(H14A,H14B,H14C), C7(H7A,H7B,H7C)
;
_shelx_res_file
;
    yy_znalapyr_dioxane_100k.res created by SHELXL-2014/7

TITL yy_znalapyr_dioxane_100k_b.res in R3
REM Old TITL YY_ZnAlaPyr_Dioxane_100K in R3 #146
REM SHELXT solution in R3
REM R1 0.125, Rweak 0.024, Alpha 0.009, Orientation as input
REM Flack x = 0.042 ( 0.010 ) from Parsons' quotients
REM Formula found by SHELXT: C16 N4 O6 Zn2
CELL 0.71073 28.6845 28.6845 10.1435 90 90 120
ZERR 18 0.0007 0.0007 0.0002 0 0 0
LATT -3
SYMM -Y,+X-Y,+Z
SYMM +Y-X,-X,+Z
SFAC C H N O Zn
UNIT 135.77 145.53 54 58.88 18
DANG 1.3 C17 O8
DANG 1.3 C15 O7
DANG 1.3 O7 C18
DANG 1.4 C18 C17
DANG 1.3 O8 C16
DANG 1.4 C15 C16
SIMU 0.02 0.04 2 O7 C18 C17 O8 C16 C15

L.S. 16
PLAN  20
BOND $H
LIST 6
fmap 2
ACTA
REM <olex2.extras>
REM <HklSrc "%.\\YY_ZnAlaPyr_Dioxane_100K.hkl">
REM </olex2.extras>

WGHT    0.133800   35.641598
FVAR       0.14034   0.27121
ZN01  5    0.669176    0.646172    0.698439    11.00000    0.02883    0.02656 =
         0.01072   -0.00085    0.00028    0.01302
ZN02  5    0.336751    0.356529    0.540632    11.00000    0.02709    0.03226 =
         0.00942    0.00086   -0.00034    0.01465
O5    4    0.402379    0.335061    0.348515    11.00000    0.03952    0.03335 =
         0.01180   -0.00034   -0.00592    0.01699
O2    4    0.747324    0.694649    0.678299    11.00000    0.03023    0.02669 =
         0.02515    0.00492   -0.00087    0.00741
O4    4    0.414787    0.386977    0.521807    11.00000    0.02845    0.04200 =
         0.01997   -0.00539    0.00023    0.01522
O1    4    0.738449    0.736018    0.501691    11.00000    0.04134    0.03829 =
         0.01658   -0.00554   -0.01325    0.02327
N6    3    0.525356    0.432638    0.482028    11.00000    0.03384    0.03256 =
         0.01055   -0.00247   -0.00295    0.01430
AFIX  43
H6    2    0.530855    0.442979    0.562935    11.00000   -1.20000
AFIX   0
N3    3    0.858000    0.759810    0.651665    11.00000    0.03098    0.04098 =
         0.01214    0.00132    0.00098    0.02002
AFIX  43
H3    2    0.866424    0.759326    0.732821    11.00000   -1.20000
AFIX   0
N5    3    0.642984    0.613471    0.418681    11.00000    0.04055    0.03479 =
         0.00766   -0.00076   -0.00065    0.01665
C2    1    0.915334    0.722837    0.603676    11.00000    0.02481    0.03352 =
         0.01268   -0.00011    0.00214    0.01503
O6    4    0.547484    0.454735    0.267745    11.00000    0.07060    0.04379 =
         0.01169   -0.00362   -0.00755   -0.00360
N1    3    0.972139    0.690519    0.596553    11.00000    0.03705    0.03574 =
         0.00936    0.00246    0.00123    0.01911
O3    4    0.866411    0.740340    0.443113    11.00000    0.09173    0.11318 =
         0.01500   -0.01754   -0.01895    0.08235
N2    3    0.967474    0.702767    0.724639    11.00000    0.02839    0.03450 =
         0.01157    0.00358    0.00036    0.01641
N4    3    0.634884    0.598553    0.547013    11.00000    0.03680    0.03094 =
         0.01165    0.00022    0.00482    0.01487
C5    1    0.821935    0.779429    0.620357    11.00000    0.02755    0.02844 =
         0.02740    0.00001   -0.00093    0.01100
AFIX  13
H5    2    0.819011    0.796018    0.702071    11.00000   -1.20000
AFIX   0
C10   1    0.586757    0.525410    0.427912    11.00000    0.03174    0.03682 =
         0.01351    0.00309   -0.00257    0.01151
C4    1    0.878859    0.742363    0.559867    11.00000    0.04039    0.05283 =
         0.01749   -0.00269   -0.00637    0.02514
C12   1    0.488230    0.376854    0.453060    11.00000    0.03448    0.02703 =
         0.02390   -0.00422   -0.00023    0.01367
AFIX  13
H12   2    0.499231    0.367033    0.371017    11.00000   -1.20000
AFIX   0
C13   1    0.431819    0.366785    0.437652    11.00000    0.03241    0.02296 =
         0.01218    0.00367    0.00448    0.00923
C11   1    0.551736    0.469122    0.386442    11.00000    0.03982    0.03207 =
         0.01709    0.00544   -0.00122    0.00963
C6    1    0.765086    0.732087    0.595806    11.00000    0.02811    0.02969 =
         0.02122   -0.01141   -0.00176    0.01648
C3    1    0.934452    0.722334    0.730562    11.00000    0.01947    0.03455 =
         0.01472   -0.00335   -0.00144    0.01142
AFIX  43
H3A   2    0.925342    0.733936    0.806857    11.00000   -1.20000
AFIX   0
C14   1    0.488452    0.341376    0.564077    11.00000    0.04725    0.04249 =
         0.04693    0.01350   -0.00382    0.02520
AFIX 137
H14A  2    0.524373    0.347836    0.576745    11.00000   -1.50000
H14B  2    0.465049    0.304241    0.541737    11.00000   -1.50000
H14C  2    0.476074    0.349645    0.643868    11.00000   -1.50000
AFIX   0
C8    1    0.602350    0.545154    0.553668    11.00000    0.03242    0.03413 =
         0.01668    0.00252    0.00260    0.01620
AFIX  43
H8    2    0.591994    0.524764    0.630561    11.00000   -1.20000
AFIX   0
C9    1    0.614338    0.569673    0.346513    11.00000    0.04636    0.02940 =
         0.01695    0.00039   -0.00914    0.01329
AFIX  43
H9    2    0.612979    0.568818    0.254890    11.00000   -1.20000
AFIX   0
C1    1    0.939564    0.702238    0.524726    11.00000    0.04355    0.04230 =
         0.02094   -0.00769   -0.01645    0.02953
AFIX  43
H1    2    0.934310    0.697046    0.434239    11.00000   -1.20000
AFIX   0
C7    1    0.844848    0.823318    0.524333    11.00000    0.08836    0.09516 =
         0.05889    0.01996    0.00484    0.04002
AFIX 137
H7A   2    0.880849    0.849348    0.550185    11.00000   -1.50000
H7B   2    0.823205    0.840194    0.520809    11.00000   -1.50000
H7C   2    0.845535    0.809225    0.438965    11.00000   -1.50000
AFIX   0

PART 1
O7    4    0.845410    0.637975    0.965037    21.00000    0.04437
C18   1    0.803996    0.625902    0.871630    21.00000    0.03597
AFIX  23
H18A  2    0.810195    0.659560    0.833595    21.00000   -1.20000
H18B  2    0.770064    0.610364    0.918777    21.00000   -1.20000
AFIX   0
O8    4    0.791136    0.545192    0.823468    21.00000    0.06939
C17   1    0.798033    0.590236    0.765398    21.00000    0.07171
AFIX  23
H17A  2    0.767090    0.582625    0.711476    21.00000   -1.20000
H17B  2    0.829898    0.605983    0.710128    21.00000   -1.20000
AFIX   0
C15   1    0.830588    0.589423    1.019675    21.00000    0.06139
AFIX  23
H15A  2    0.796794    0.575899    1.066623    21.00000   -1.20000
H15B  2    0.857822    0.592336    1.081154    21.00000   -1.20000
AFIX   0
C16   1    0.824807    0.553855    0.912138    21.00000    0.07279
AFIX  23
H16A  2    0.859736    0.568201    0.870311    21.00000   -1.20000
H16B  2    0.816016    0.519353    0.949989    21.00000   -1.20000
AFIX   0
HKLF 4

REM  yy_znalapyr_dioxane_100k_b.res in R3
REM R1 =  0.0718 for    5420 Fo > 4sig(Fo)  and  0.0861 for all    6458 data
REM    280 parameters refined using     13 restraints

END

WGHT      0.1338     35.7200

REM Highest difference peak  1.535,  deepest hole -0.581,  1-sigma level  0.187
Q1    1   0.8247  0.8175  0.7172  11.00000  0.05    1.54
Q2    1   0.7499  0.5416  0.5858  11.00000  0.05    1.10
Q3    1   0.4727  0.2221  0.4640  11.00000  0.05    1.05
Q4    1   0.8184  0.5586  1.1171  11.00000  0.05    1.04
Q5    1   0.7870  0.6070  0.3904  11.00000  0.05    0.97
Q6    1   0.7851  0.5267  1.0035  11.00000  0.05    0.96
Q7    1   0.7243  0.5516  1.3443  11.00000  0.05    0.90
Q8    1   0.7749  0.6329  0.4851  11.00000  0.05    0.85
Q9    1   0.8268  0.6077  1.0845  11.00000  0.05    0.84
Q10   1   0.4804  0.1963  0.3768  11.00000  0.05    0.82
Q11   1   0.7515  0.5899  1.2512  11.00000  0.05    0.80
Q12   1   0.8371  0.6069  0.8790  11.00000  0.05    0.79
Q13   1   0.7200  0.5417  1.2275  11.00000  0.05    0.77
Q14   1   0.5389  0.4135  0.3085  11.00000  0.05    0.77
Q15   1   0.8385  0.5957  0.9456  11.00000  0.05    0.76
Q16   1   0.7878  0.6088  0.6030  11.00000  0.05    0.75
Q17   1   0.7874  0.5479  0.7693  11.00000  0.05    0.75
Q18   1   0.6971  0.6757  0.6916  11.00000  0.05    0.74
Q19   1   0.8331  0.5558  0.8547  11.00000  0.05    0.73
Q20   1   0.8398  0.5138  0.8546  11.00000  0.05    0.72
;
_shelx_res_checksum              49522
_shelx_hkl_file
;
   0   0 -12  649.55   37.16
   0   0 -12  659.31   32.88
   0   0 -12  729.88   42.68
   0   0  -9  103.78   13.33
   0   0  -9  109.06   17.22
   0   0  -9   88.47    5.43
   0   0  -6 3257.59   59.41
   0   0  -6 3238.73   49.03
   0   0  -6 3281.59   31.20
   0   0  -3  124.99    9.68
   0   0  -3  120.04    4.91
   0   0  -3  110.96    7.76
   0   0   3  114.45    4.79
  -1   0 -13   -1.13   13.05
  -1   0 -13    0.74   16.81
   1  -1 -13   -8.25   15.59
   1  -1 -13    6.57   13.92
   0   1 -13   -0.71   12.84
   0   1 -13   17.01   16.40
  -1   0 -10   13.39    8.88
  -1   0 -10   11.94   12.20
   0   1 -10    7.78    3.17
   1  -1 -10   20.73    9.61
   0   1 -10    5.60   13.62
   1  -1 -10   11.98   12.95
   0   1 -10    2.02    9.18
  -1   0 -10    1.71   10.47
   0   1 -10    7.95    9.48
  -1   0  -7    3.61    6.66
   1  -1  -7   -7.41    8.80
   0   1  -7   -0.50    9.45
   1  -1  -7    3.24    3.99
   1  -1  -7    8.69    6.84
  -1   0  -7    4.14    8.17
   0   1  -7    8.18    7.49
  -1   0  -7    1.13    1.98
   0   1  -7    0.38    3.92
  -1   0  -4   14.57    6.93
   1  -1  -4    6.84    3.24
  -1   0  -4    7.84    1.93
   1  -1  -4    8.12    7.00
   1  -1  -4    7.45    4.78
   0   1  -4    8.56    3.57
  -1   0  -4    9.35    5.32
   0   1  -4    1.23    5.59
  -1   0  -1   16.93    2.45
   0   1  -1   20.46    3.06
   1  -1  -1   13.53    2.76
  -1   0   2  993.50   16.62
   0   1   2 1035.26   19.47
  -1   0   5    3.83    3.50
   0   1   5   -1.06    2.54
  -1   1 -11    8.36   11.34
   1   0 -11    6.12    9.96
  -1   1 -11   -4.52   10.33
   1   0 -11    6.16   13.72
   0  -1 -11   21.09    9.96
  -1   1 -11   -4.77   13.16
   0  -1 -11    1.87   11.44
   1   0 -11    6.10   10.97
   0  -1 -11   -8.54   13.03
  -1   1  -8   38.05    4.43
   0  -1  -8   24.74   11.38
   0  -1  -8   56.54    9.94
   1   0  -8   22.71   11.81
   0  -1  -8   33.61    3.31
   1   0  -8   40.72    5.70
  -1   1  -8   23.90    9.33
  -1   1  -8   32.06   11.72
   1   0  -8   43.60    9.77
  -1   1  -5    5.52    5.62
   1   0  -5    8.48    8.37
  -1   1  -5    4.77    2.76
   1   0  -5    1.48    3.80
   0  -1  -5   -0.66    2.23
   1   0  -5    2.15    5.69
   0  -1  -5    6.21    5.88
   0  -1  -5    2.30    8.56
  -1   1  -5    5.49    6.81
   1   0  -2  962.66   16.24
   0  -1  -2  987.62   13.51
   0  -1  -2 1009.51   19.42
   1   0  -2  957.80   12.96
   0  -1   1   16.21    2.97
   1   0   1   12.43    2.20
  -1   1   4   15.17    3.57
   0  -1   4   10.53    3.56
  -1   1   7    1.80    3.32
   1   1 -12  315.40   25.94
  -2   1 -12  340.09   31.45
  -2   1 -12  356.43   28.80
   1   1 -12  382.22   27.01
   1  -2 -12  361.08   29.53
   1   1 -12  386.17   33.46
   1  -2 -12  386.45   24.73
   1  -2 -12  329.97   32.73
  -2   1 -12  357.29   25.81
   1   1  -9  527.04   16.78
   1  -2  -9  552.61   24.41
  -2   1  -9  662.74   33.45
   1   1  -9  592.11   33.58
  -2   1  -9  558.64   30.35
   1   1  -9  546.52   27.89
   1   1  -9  563.53   26.98
   1  -2  -9  540.34   32.54
  -2   1  -9  524.11   25.77
   1   1  -6 1549.24   26.21
   1  -2  -6 1520.71   20.64
   1   1  -6 1546.94   40.99
  -2   1  -6 1594.68   39.82
  -2   1  -6 1618.66   35.05
   1  -2  -6 1542.94   31.41
   1   1  -6 1563.52   36.03
   1  -2  -6 1648.65   42.59
  -2   1  -6 1459.22   17.82
   1  -2  -3 3234.38   23.45
   1  -2  -3 3125.40   42.46
  -2   1  -3 3169.94   38.13
   1   1  -3 3157.28   29.47
   1  -2  -3 3217.37   29.39
  -2   1   3 3928.11   32.11
  -2   1   3 3985.53   38.89
  -2   1   6  360.82   12.32
  -3   1 -13   58.64   16.94
  -3   1 -13   40.18   17.13
   1   2 -13   74.88   16.66
   2  -3 -13   52.48   19.71
   1   2 -13   67.97   20.28
   2  -3 -13   65.82   17.66
   2  -3 -10   -2.98   12.64
  -3   1 -10   -8.46    9.34
   1   2 -10   22.43   13.35
  -3   1 -10   -7.44   13.25
   2  -3 -10   -0.08    8.38
   1   2 -10    6.38   10.22
   1   2 -10    4.55   10.78
  -3   1 -10   -6.91   10.96
   1   2 -10   -2.92    5.21
  -3   1  -7  428.09   20.39
   2  -3  -7  425.11   12.42
   1   2  -7  420.42   20.93
   2  -3  -7  429.91   25.67
   1   2  -7  419.00   21.86
  -3   1  -7  380.90   22.62
   2  -3  -7  431.72   18.37
   1   2  -7  429.42   16.04
   1   2  -7  445.46   25.13
   1   2  -4   96.97    9.69
   2  -3  -4   92.23   11.67
   2  -3  -4  106.57    6.28
   2  -3  -4  106.10    7.22
  -3   1  -4  104.95    9.26
   1   2  -4  107.72    7.71
  -3   1  -1  401.96    7.89
   2  -3  -1  415.41    9.28
  -3   1  -1  395.73   10.90
   2  -3  -1  431.74    7.45
  -3   1  -1  427.65    7.54
   2  -3  -1  418.47   11.13
   1   2  -1  443.06   10.98
   1   2  -1  414.49    9.98
   2  -3  -1  419.23   10.78
  -3   1  -1  427.55    9.75
   1   2  -1  402.98   10.74
  -3   1   2  495.73   12.97
  -3   1   2  490.13   12.03
   1   2   2  488.36   14.13
   2  -3   2  506.54   13.52
  -3   1   5   47.87    7.71
  -3   1   5   41.05    5.74
  -3   1   8   17.65    5.74
  -2   0 -11    1.03   12.02
   0   2 -11   -5.89   10.42
   2  -2 -11   -1.91    9.29
  -2   0 -11    3.19    9.74
   0   2 -11   -9.63   13.47
   0   2 -11   -1.10    9.90
   2  -2 -11   17.68   13.12
  -2   0 -11   10.19   11.52
   2  -2  -8  206.74   19.58
   0   2  -8  184.96   18.64
   2  -2  -8  200.68    9.63
   0   2  -8  205.93   17.13
   0   2  -8  199.01   16.93
   2  -2  -8  218.77   15.66
  -2   0  -8  203.08   15.30
  -2   0  -8  224.55   20.11
   0   2  -8  204.69   11.04
   2  -2  -5   -1.34    7.51
   2  -2  -5    1.74    3.91
  -2   0  -5    4.25    7.44
   0   2  -5    1.87    3.75
  -2   0  -5    4.16    5.50
   0   2  -5    6.46    5.82
   2  -2  -5   -1.66    5.20
   0   2  -2 1620.16   19.20
   2  -2  -2 1600.91   18.07
  -2   0  -2 1666.73   22.64
   2  -2  -2 1646.72   26.48
   2  -2  -2 1660.48   18.83
   2  -2  -2 1686.09   24.31
   0   2  -2 1636.99   24.15
   0   2  -2 1618.44   19.29
  -2   0   1    5.02    2.66
   2  -2   1    5.29    2.90
   0   2   1    6.82    3.17
  -2   0   1    7.51    2.71
  -2   0   4  350.00   15.25
   0   2   4  335.90    7.07
  -2   0   7    9.90    4.51
  -1  -1 -12   55.77   18.56
   2  -1 -12   29.68   11.66
   2  -1 -12   35.47   18.81
  -1   2 -12   26.46   13.43
   2  -1 -12   34.63   14.93
  -1   2 -12   30.36   17.01
  -1  -1 -12   30.19   15.08
  -1   2 -12   24.65   12.62
  -1  -1 -12   30.04   11.74
   2  -1  -9 1031.46   43.63
   2  -1  -9  977.73   21.29
  -1   2  -9 1067.69   36.89
  -1   2  -9  925.70   18.91
  -1   2  -9 1076.86   39.30
  -1  -1  -9 1063.33   33.40
  -1   2  -9 1028.24   42.29
  -1  -1  -9 1064.16   42.73
   2  -1  -9 1076.01   35.05
   2  -1  -6  372.47   17.08
  -1   2  -6  341.90   11.41
   2  -1  -6  355.12   12.44
  -1   2  -6  377.91   18.60
   2  -1  -6  382.53   22.11
  -1  -1  -6  376.19   16.48
  -1  -1  -6  345.23   20.36
   2  -1  -3 4023.55   31.90
  -1  -1  -3 4071.17   45.65
  -1  -1  -3 4020.90   33.92
  -1   2  -3 3974.74   30.08
   2  -1  -3 3889.10   37.72
  -1   2  -3 3900.47   42.54
  -1  -1   3 3028.31   29.07
  -1   2   3 3065.08   22.81
  -1  -1   3 3164.24   38.74
  -1   2   3 3130.20   30.33
  -1   2   6 1499.79   20.00
  -1  -1   6 1619.33   26.56
  -2   2 -13   -9.47   15.17
  -2   2 -13   21.13   14.78
   0  -2 -13   20.36   18.40
   2   0 -13   16.31   14.56
   2   0 -13   -0.66   16.65
   0  -2 -13    3.21   13.52
   2   0 -10   25.71   10.08
   2   0 -10   17.38    5.33
   2   0 -10   37.58   11.97
  -2   2 -10   31.52   11.93
   2   0 -10   45.71   16.30
   0  -2 -10   20.09   13.70
   0  -2 -10   17.43    9.73
  -2   2 -10   41.52   15.72
  -2   2 -10   38.09   12.41
   2   0  -7    8.76    5.03
   0  -2  -7   18.51    9.58
   2   0  -7    0.92    7.32
   0  -2  -7   15.47    6.62
   0  -2  -7   11.26    2.10
  -2   2  -7   19.69    8.47
  -2   2  -7    9.64    3.20
   2   0  -7   28.51   10.68
  -2   2  -7   16.87    8.47
  -2   2  -7   17.08    8.16
   0  -2  -4  381.09    7.41
  -2   2  -4  374.98   15.99
   2   0  -4  365.09   14.91
  -2   2  -4  390.15   15.51
   0  -2  -4  380.41   12.33
  -2   2  -4  395.13    9.95
   0  -2  -4  379.63   17.50
   2   0  -4  407.66   12.17
  -2   2  -1    4.97    2.97
   2   0  -1    2.74    2.74
   0  -2  -1    4.34    3.06
   2   0  -1    6.51    2.69
  -2   2   2 1606.37   18.57
   2   0   2 1584.37   22.58
   0  -2   2 1557.73   18.86
  -2   2   2 1610.79   17.84
   0  -2   5    0.22    4.20
  -2   2   5    1.91    3.74
  -2   2   5    0.28    5.49
  -2   2   8  198.44    9.35
   1  -3 -11   20.02    9.70
  -3   2 -11    0.79    9.98
   2   1 -11   19.97   11.14
   2   1 -11   26.25   15.30
   2   1 -11   25.28   12.55
   1  -3 -11   25.59   15.50
  -3   2 -11    0.96   12.31
  -3   2 -11   13.80   11.40
   1  -3  -8   37.04   13.17
   2   1  -8   36.72    6.82
  -3   2  -8   29.46   11.20
   2   1  -8   29.90    8.97
   1  -3  -8   26.56    8.14
   2   1  -8   28.91   10.87
  -3   2  -8   18.94    2.44
  -3   2  -8   17.98    9.03
  -3   2  -8   28.09   10.44
  -3   2  -5   34.18    7.60
   2   1  -5   34.27    7.12
   2   1  -5   25.48    5.78
   1  -3  -5   35.08    6.08
  -3   2  -5   36.94    8.17
   1  -3  -5   27.94    3.75
  -3   2  -5   23.24    3.26
   1  -3  -5   21.90    8.44
   1  -3  -2 1342.32   24.30
  -3   2  -2 1331.35   23.23
   2   1  -2 1290.35   21.95
   2   1  -2 1315.58   19.53
  -3   2  -2 1256.54   18.17
   1  -3  -2 1351.67   25.15
  -3   2   1  455.09    9.78
  -3   2   1  481.82    9.85
  -3   2   1  440.22   10.13
   2   1   1  457.30   10.11
   1  -3   1  481.11    9.46
  -3   2   4   86.73    7.87
  -3   2   4   89.72    6.88
  -3   2   7  426.83   14.61
   2   2 -12   35.62   17.71
  -4   2 -12   23.33   15.05
  -4   2 -12   21.29   14.52
   2   2 -12   38.22   13.15
   2   2 -12   33.98   13.21
   2  -4 -12   32.51   17.16
  -4   2 -12   27.35   12.85
  -4   2  -9  978.28   39.50
   2  -4  -9 1031.33   30.66
   2   2  -9 1042.60   37.82
  -4   2  -9 1057.29   36.09
  -4   2  -9 1094.54   42.49
   2   2  -9 1005.77   26.79
   2   2  -9 1051.89   36.06
   2   2  -9 1057.81   44.07
   2  -4  -9  944.83   41.39
   2  -4  -6  521.90   26.06
   2  -4  -6  553.44   26.63
   2   2  -6  537.52   18.07
   2  -4  -6  552.50   17.79
  -4   2  -6  474.66   21.52
  -4   2  -6  521.67   21.16
   2  -4  -6  529.25   13.21
   2   2  -6  544.87   23.20
  -4   2  -3 2521.05   39.21
   2  -4  -3 2682.39   24.13
   2   2  -3 2517.44   25.86
  -4   2  -3 2627.47   32.20
   2   2  -3 2532.78   31.87
   2  -4  -3 2550.16   40.76
  -4   2  -3 2630.74   21.52
   2  -4  -3 2646.46   41.51
   2  -4  -3 2628.35   25.67
   2   2  -3 2549.32   37.62
  -4   2   0  620.30   12.58
  -4   2   0  620.46   12.48
  -4   2   0  617.97   11.89
   2   2   0  593.07   11.78
   2  -4   0  615.38   12.28
   2   2   0  607.89   11.89
   2   2   0  630.17   11.26
   2  -4   0  616.95   10.05
  -4   2   3 2256.36   30.86
  -4   2   3 2233.34   29.35
  -4   2   6 1215.95   25.37
  -4   2   6 1158.21   30.91
  -4   2   9  498.22   17.71
   3  -5 -13   96.58   22.60
   2   3 -13   75.51   17.48
  -5   2 -13   75.84   18.06
   2   3 -13   83.79   22.79
   3  -5 -13   83.19   19.78
  -5   2 -13   92.35   20.88
  -5   2 -10  226.60   19.79
   2   3 -10  226.70   24.11
   3  -5 -10  242.69   25.35
   2   3 -10  190.55   19.44
   3  -5 -10  239.99   16.58
   2   3 -10  204.40   14.12
   2   3 -10  206.73   18.19
  -5   2 -10  176.16   20.19
  -5   2 -10  199.97   22.12
   2   3  -7  652.89   27.95
  -5   2  -7  687.78   30.85
  -5   2  -7  717.81   28.51
   3  -5  -7  691.88   31.81
   2   3  -7  637.63   21.63
   2   3  -7  674.40   24.09
   3  -5  -7  689.35   21.44
   2   3  -4   68.54    7.95
   3  -5  -4   66.69    6.06
   2   3  -4   58.51    5.87
   3  -5  -4   67.12    9.63
   2   3  -4   70.01    9.91
  -5   2  -4   58.85    7.54
   3  -5  -4   46.76   10.11
  -5   2  -4   57.25    3.93
   3  -5  -4   68.71    5.79
  -5   2  -4   56.23    9.78
  -5   2  -1  345.12   12.07
   2   3  -1  315.83   11.22
  -5   2  -1  319.48    7.27
   2   3  -1  343.96   11.68
   3  -5  -1  318.95    8.90
   3  -5  -1  309.23   11.91
  -5   2  -1  308.72   10.87
  -5   2  -1  312.20    9.78
   2   3  -1  342.46   11.58
   3  -5  -1  332.17   10.90
   2   3   2 1517.93   26.01
  -5   2   2 1564.80   24.97
  -5   2   2 1505.24   24.96
  -5   2   2 1532.40   20.50
   3  -5   2 1516.28   24.61
   2   3   2 1494.85   16.15
   2   3   5  181.58   14.59
  -5   2   5  196.94   12.77
  -5   2   5  199.32   11.40
  -5   2   8  606.82   20.66
   1   3 -11   -0.14    9.40
  -4   1 -11  -22.74   14.14
  -4   1 -11   -1.74   12.52
   3  -4 -11    1.86    8.18
   3  -4 -11   -9.39   14.43
   1   3 -11   -4.27   11.04
  -4   1 -11    4.66   10.23
   1   3 -11    2.88   13.93
   1   3  -8  301.30   23.11
  -4   1  -8  318.21   21.96
  -4   1  -8  311.07   19.37
   3  -4  -8  320.14   17.22
   3  -4  -8  294.37   11.47
   1   3  -8  308.11   15.10
   3  -4  -8  268.13   23.16
   1   3  -8  311.27   20.65
   1   3  -8  316.44   19.13
   3  -4  -5  169.85    9.94
   3  -4  -5  169.41    8.70
  -4   1  -5  171.71   12.71
   3  -4  -5  173.76   13.98
   1   3  -5  155.59   10.26
   3  -4  -5  170.53   14.36
   1   3  -5  185.99   13.70
   1   3  -5  166.80   10.68
   3  -4  -2  270.53   12.35
   3  -4  -2  293.62    9.74
   3  -4  -2  281.34    7.99
   1   3  -2  272.65   10.26
  -4   1  -2  270.69    6.95
   1   3  -2  278.34    7.02
  -4   1  -2  272.41    9.22
   1   3  -2  266.21   11.84
  -4   1  -2  269.16    9.88
   3  -4  -2  270.66   11.68
   1   3   1  353.76   10.81
   3  -4   1  351.32   10.56
   1   3   1  337.85    8.33
  -4   1   1  342.88   10.74
  -4   1   1  350.96    7.12
  -4   1   1  367.72   10.88
   1   3   4   97.44   10.69
  -4   1   4   97.08    9.26
  -4   1   4   97.40    8.02
  -4   1   7  232.05   12.76
  -3   0 -12  453.48   33.74
   0   3 -12  437.26   30.24
   3  -3 -12  498.56   33.72
   0   3 -12  453.79   36.36
   3  -3 -12  475.32   26.62
   3  -3 -12  527.89   39.65
  -3   0 -12  507.01   35.92
   0   3 -12  431.68   29.22
  -3   0 -12  454.18   27.02
   0   3  -9   62.03   12.74
  -3   0  -9   78.03   12.33
   0   3  -9   68.73    8.55
   3  -3  -9   92.57   12.40
   0   3  -9   60.08   15.18
   3  -3  -9   80.59   15.26
   3  -3  -9   66.71    6.79
  -3   0  -9   75.53   13.81
   0   3  -9   97.97   13.76
   0   3  -6 3932.85   44.44
   3  -3  -6 4003.64   40.84
   0   3  -6 3991.86   55.88
   3  -3  -6 4000.40   51.05
   3  -3  -6 4079.46   69.64
  -3   0  -6 4211.10   63.83
   0   3  -6 3949.21   60.75
   3  -3  -6 4093.37   65.06
  -3   0  -6 4024.21   52.46
   3  -3  -3   23.25    4.44
   0   3  -3   25.20    6.53
   3  -3  -3   25.49    7.22
   3  -3  -3   23.88    6.18
   0   3  -3   21.41    4.65
   3  -3  -3   22.46    4.32
  -3   0  -3   25.65    5.55
   0   3  -3   17.65    4.23
   0   3   0 5684.86   33.91
   0   3   0 5586.26   30.23
   3  -3   0 5778.27   34.50
  -3   0   0 5686.78   32.96
  -3   0   0 5838.31   33.34
   0   3   3   52.84    7.91
   0   3   3   53.76    3.12
  -3   0   3   55.09    6.03
  -3   0   3   61.89    6.97
  -3   0   6 2971.94   39.52
  -3   0   6 3138.77   52.02
  -2  -1 -13   43.68   16.83
  -1   3 -13   29.25   14.53
   3  -2 -13   49.69   15.28
   3  -2 -13   95.71   22.18
  -1   3 -13   53.65   19.13
  -2  -1 -13   48.31   18.14
  -1   3 -13   41.25   12.89
   3  -2 -10   26.31    5.50
  -1   3 -10   28.00   13.34
   3  -2 -10   27.56   10.09
  -2  -1 -10   13.48    9.31
  -1   3 -10   27.62    5.36
  -1   3 -10   39.43   11.37
  -1   3 -10   13.88   10.47
   3  -2 -10   27.16   13.62
  -2  -1 -10   28.42   12.30
  -1   3  -7  469.27   22.79
  -1   3  -7  445.03   22.34
  -1   3  -7  483.67   15.40
  -2  -1  -7  496.15   25.23
   3  -2  -7  462.18   24.59
   3  -2  -7  482.08   20.65
   3  -2  -7  483.64   15.73
  -1   3  -7  450.04   24.55
   3  -2  -7  478.65   26.93
  -2  -1  -7  493.07   20.20
  -1   3  -4  101.76    6.81
   3  -2  -4   90.78    7.89
  -2  -1  -4   97.50    7.42
  -2  -1  -4   95.65    9.71
  -1   3  -4   97.18    8.44
   3  -2  -4   86.89    9.42
   3  -2  -4   82.67    6.74
  -1   3  -4   92.96    8.96
  -1   3  -1  474.43    9.43
   3  -2  -1  475.00    9.57
  -2  -1  -1  468.13   10.39
   3  -2  -1  462.41   10.29
  -1   3  -1  477.93    9.25
   3  -2  -1  471.94    9.89
  -2  -1   2 1337.09   22.56
  -1   3   2 1394.03   15.04
  -2  -1   2 1362.57   20.05
  -1   3   5   22.69    3.32
  -2  -1   5   25.71    7.30
  -2  -1   5   20.08    5.15
   3  -1 -11   13.14   10.67
  -2   3 -11    2.86   10.33
   3  -1 -11   15.27   11.18
  -1  -2 -11   -2.07   10.03
  -2   3 -11    7.17   12.59
   3  -1 -11   26.12   15.19
  -2   3 -11   15.30   11.40
  -1  -2 -11   -7.25   13.47
  -2   3  -8   25.17    9.97
   3  -1  -8   15.79   11.36
  -2   3  -8   11.78    8.14
  -2   3  -8   12.04    4.24
   3  -1  -8   14.09    5.86
   3  -1  -8   14.71    8.07
  -1  -2  -8   34.91   12.03
  -1  -2  -8    1.63    6.91
  -2   3  -8   14.79    9.33
  -2   3  -5   54.58    8.50
   3  -1  -5   53.02    6.88
  -2   3  -5   48.36    8.70
  -1  -2  -5   61.70   10.64
  -2   3  -5   53.64    8.29
  -1  -2  -5   58.49    6.84
   3  -1  -5   53.11    7.97
  -2   3  -5   52.39    5.40
  -1  -2  -2  477.17   13.96
  -2   3  -2  482.53   13.15
   3  -1  -2  500.43   11.20
   3  -1  -2  473.43   12.70
   3  -1  -2  466.72   11.87
  -2   3   1  415.48    7.29
  -1  -2   1  391.41    9.69
   3  -1   1  429.68    9.74
  -2   3   1  429.17   11.30
   3  -1   1  413.03    7.65
   3  -1   1  386.72    7.55
  -2   3   1  397.67   11.03
  -2   3   1  404.27    9.07
  -2   3   4  120.91    6.36
  -1  -2   4  108.52    7.57
  -2   3   4  111.29    7.67
  -2   3   7  382.59   11.65
   3   0 -12  404.69   35.45
  -3   3 -12  462.39   31.88
   0  -3 -12  419.02   32.60
   0  -3 -12  467.71   35.82
  -3   3 -12  439.52   34.50
   3   0 -12  468.83   29.75
   3   0 -12  424.68   28.98
  -3   3 -12  412.96   28.50
  -3   3  -9   59.20   12.89
  -3   3  -9   45.35   12.46
   3   0  -9   46.61    8.25
   3   0  -9   38.78   11.27
  -3   3  -9   55.53   13.30
  -3   3  -9   28.55    3.40
   0  -3  -9   36.94    9.27
   3   0  -9   32.23   13.29
   0  -3  -9   27.08   12.73
   3   0  -6 3208.46   51.23
   3   0  -6 3074.57   40.44
  -3   3  -6 3173.60   31.77
   0  -3  -6 3105.01   59.17
  -3   3  -6 3165.08   52.70
   0  -3  -6 3306.39   41.54
  -3   3  -6 2908.26   53.76
  -3   3  -6 2917.93   52.64
   0  -3  -3   46.50    8.21
  -3   3  -3   47.94    6.17
   0  -3  -3   48.76    3.87
   3   0  -3   51.55    5.85
   3   0  -3   53.26    6.53
  -3   3  -3   50.30    7.30
   3   0   0 5484.11   32.68
   0  -3   0 5460.53   32.56
   3   0   0 5459.67   30.94
  -3   3   3   25.93    4.28
   0  -3   3   28.19    5.18
  -3   3   3   25.01    4.83
   3   0   3   21.38    5.74
  -3   3   6 4113.45   40.41
  -3   3   9   52.79    5.73
   3   1 -13   32.19   20.32
  -4   3 -13   14.95   14.98
   1  -4 -13    1.93   17.59
   3   1 -13   43.17   15.59
  -4   3 -13   39.29   17.82
   1  -4 -13   22.75   15.54
   1  -4 -10  152.39   20.73
   3   1 -10  180.93   12.70
  -4   3 -10  172.51   18.59
   3   1 -10  195.00   18.26
  -4   3 -10  169.48   19.97
  -4   3 -10  181.73   20.98
   3   1 -10  171.62   22.04
   3   1 -10  165.88   17.87
   1  -4 -10  214.63   16.14
  -4   3  -7   67.46   10.53
   1  -4  -7   72.68    8.67
   3   1  -7   70.90    8.84
   3   1  -7   74.40   11.42
  -4   3  -7   68.94    4.87
   1  -4  -7   99.19   13.97
  -4   3  -7   66.75   11.94
  -4   3  -7   99.92   12.89
  -4   3  -4  135.65   11.65
   1  -4  -4  124.13    6.77
   3   1  -4  128.66    8.66
  -4   3  -4  143.39    6.70
   3   1  -4  142.08   10.88
   1  -4  -4  132.27   12.17
  -4   3  -4  127.54    9.53
   1  -4  -1  390.30   11.41
  -4   3  -1  406.37   12.08
   3   1  -1  377.79   11.05
   1  -4  -1  378.62   12.40
   3   1  -1  373.07   11.54
  -4   3  -1  387.03   10.02
   3   1   2   21.47    4.56
  -4   3   2   24.21    5.11
  -4   3   2   27.14    5.48
   1  -4   2   31.00    4.39
  -4   3   2   23.28    4.48
   3   1   5  251.44   15.85
  -4   3   5  271.81   13.42
  -4   3   5  253.68   11.36
  -4   3   8   87.81    8.27
  -5   3 -11   34.94   15.09
   2  -5 -11    4.53    8.06
   2  -5 -11   -0.14   13.89
   3   2 -11    4.83   16.66
  -5   3 -11   16.66   11.40
  -5   3 -11   20.31   12.93
   3   2 -11   33.26   12.03
   3   2 -11   29.34   12.82
   2  -5  -8  341.84   24.99
   2  -5  -8  384.55   17.09
   3   2  -8  373.43   19.91
   3   2  -8  366.55   17.18
  -5   3  -8  392.36   25.25
  -5   3  -8  384.58   23.19
   3   2  -8  382.15   23.23
  -5   3  -8  348.07   21.46
   3   2  -5  176.85   13.59
   2  -5  -5  184.27    9.27
   2  -5  -5  199.46   15.97
  -5   3  -5  163.05   14.16
  -5   3  -5  199.77   12.88
   2  -5  -5  181.83   15.08
  -5   3  -5  162.52    6.83
  -5   3  -5  174.16    6.85
   3   2  -5  180.81   11.20
   2  -5  -2 1857.02   31.72
  -5   3  -2 1826.31   30.07
   2  -5  -2 1837.66   30.11
   3   2  -2 1829.27   29.26
   2  -5  -2 1872.61   15.56
  -5   3  -2 1815.61   19.08
   3   2  -2 1793.59   27.04
  -5   3  -2 1802.91   21.83
   2  -5   1  103.43    6.35
   2  -5   1  107.81    5.54
  -5   3   1  103.56    6.12
  -5   3   1   95.96    7.00
   3   2   1   97.96    5.04
   3   2   1  101.50    6.50
  -5   3   1   99.24    6.76
   3   2   1   98.57    5.68
   3   2   4   37.98    7.93
  -5   3   4   53.67    6.59
  -5   3   4   58.52    7.65
  -5   3   7  404.20   16.34
  -5   3   7  418.05   20.49
  -6   3 -12  267.28   23.98
   3   3 -12  312.81   26.96
  -6   3 -12  373.09   30.34
  -6   3 -12  314.49   28.61
   3  -6 -12  340.58   33.31
   3   3 -12  309.78   30.35
   3   3  -9   55.71   10.11
   3   3  -9   66.03   13.28
  -6   3  -9   82.40   13.85
   3  -6  -9   73.19    9.68
   3  -6  -9   61.13   16.01
  -6   3  -9   84.74   16.27
   3   3  -9   78.22   11.32
   3   3  -9   74.34   15.72
  -6   3  -9   80.70   13.69
   3  -6  -6 1097.88   22.73
   3   3  -6 1069.35   33.72
  -6   3  -6 1098.85   30.86
  -6   3  -6 1100.87   36.26
   3   3  -6 1010.35   27.30
  -6   3  -6  977.76   14.12
   3   3  -6 1039.14   25.10
   3  -6  -6 1091.41   37.11
   3  -6  -6 1037.03   37.03
  -6   3  -3  185.99    8.74
   3  -6  -3  206.40    7.00
   3  -6  -3  204.09   13.94
   3   3  -3  187.33    5.91
   3   3  -3  181.96   11.24
  -6   3  -3  198.22   13.41
   3  -6  -3  201.06   13.44
  -6   3  -3  205.88    8.27
   3   3  -3  212.34   13.32
   3  -6   0 9921.93   60.69
   3  -6   0 9659.35   47.93
   3   3   0 9920.03   57.37
  -6   3   0 9999.00   59.47
   3   3   0 9597.38   58.02
  -6   3   0 9894.09   59.56
  -6   3   3   24.06    5.64
  -6   3   3   22.63    5.32
   3   3   3   24.85    6.90
   3  -6   3   20.94    5.06
   3   3   3   20.30    2.71
  -6   3   3   19.49    5.13
  -6   3   6 1105.38   26.87
  -6   3   6 1070.95   30.44
  -6   3   9  138.98   11.80
   4  -7 -10  164.69   21.67
   3   4 -10  127.38   19.52
   4  -7 -10  135.97   12.25
   3   4 -10  148.09   14.08
  -7   3 -10  146.50   16.75
   3   4 -10  143.90   18.13
  -7   3 -10  152.84   21.00
   3   4 -10  139.58   14.56
  -7   3 -10  149.18   18.32
   4  -7  -7   13.02   10.35
   3   4  -7   24.58    7.15
  -7   3  -7   25.13    8.38
  -7   3  -7   41.99   12.29
   3   4  -7   20.72    7.36
   4  -7  -7   15.57    5.47
   3   4  -7   13.65    9.40
   4  -7  -4  476.06   12.45
   3   4  -4  487.68   18.46
   4  -7  -4  504.97   22.59
  -7   3  -4  464.18   15.98
  -7   3  -4  477.52   11.88
   3   4  -4  472.59   20.72
   3   4  -4  474.16   11.56
  -7   3  -4  443.54   21.24
  -7   3  -1 1762.11   29.18
  -7   3  -1 1698.66   18.92
  -7   3  -1 1684.00   25.78
   4  -7  -1 1714.67   29.74
   3   4  -1 1675.95   27.63
  -7   3  -1 1766.83   28.23
   3   4  -1 1733.25   28.13
   3   4  -1 1679.70   28.21
   4  -7  -1 1636.24   25.41
  -7   3   2  569.70   14.00
  -7   3   2  584.98   17.40
   3   4   2  578.23   17.63
   3   4   2  594.36   10.30
  -7   3   2  607.30   18.24
   3   4   2  563.29   12.99
   4  -7   2  593.81   17.40
  -7   3   5  340.76   15.89
  -7   3   5  335.79   17.03
   3   4   5  379.34   20.41
  -7   3   8  266.04   15.69
  -6   2 -11   51.01   16.79
   2   4 -11   30.87   14.77
  -6   2 -11   49.90   15.45
   2   4 -11   19.49   11.44
  -6   2 -11   39.57   12.79
   2   4 -11   32.74   11.94
   4  -6 -11   38.01   10.67
   4  -6 -11   10.25   15.61
  -6   2  -8   55.86   10.99
   2   4  -8   50.89    9.10
   2   4  -8   40.98    9.23
   2   4  -8   42.93   11.09
   4  -6  -8   56.82    8.31
  -6   2  -8   41.11   10.90
   4  -6  -8   40.36   13.18
  -6   2  -8   55.98   14.74
  -6   2  -5  381.48    8.30
   4  -6  -5  523.91   24.58
   2   4  -5  484.85   21.42
  -6   2  -5  468.55   23.25
   2   4  -5  500.52   15.73
  -6   2  -5  458.64   18.64
   2   4  -5  470.68   17.93
  -6   2  -5  398.62    8.12
   4  -6  -5  462.42   14.56
   4  -6  -5  443.69   21.97
   4  -6  -5  468.87   14.92
   4  -6  -2 1192.17   17.55
   2   4  -2 1164.93   23.49
   2   4  -2 1243.57   25.49
  -6   2  -2 1212.80   18.31
  -6   2  -2 1157.92   26.09
  -6   2  -2 1224.50   18.68
   2   4  -2 1192.25   13.24
   2   4  -2 1234.41   25.95
   4  -6  -2 1188.90   25.36
   4  -6  -2 1183.03   26.03
  -6   2  -2 1194.42   23.22
   2   4   1   55.48    4.14
  -6   2   1   59.46    4.88
   4  -6   1   59.82    6.69
  -6   2   1   46.65    6.51
   4  -6   1   51.15    3.68
  -6   2   1   59.43    6.68
   2   4   1   60.47    6.41
   2   4   1   47.96    5.50
  -6   2   4  242.49   13.56
   2   4   4  241.18   14.90
  -6   2   4  234.08   12.68
  -6   2   7  647.68   22.22
   1   4 -12  186.23   24.69
   1   4 -12  184.45   22.16
  -5   1 -12  163.65   23.80
  -5   1 -12  189.23   19.64
  -5   1 -12  186.45   24.43
   4  -5 -12  268.21   29.30
   1   4 -12  219.61   21.13
  -5   1  -9  436.99   29.23
   1   4  -9  393.68   18.81
   1   4  -9  440.66   23.46
   1   4  -9  380.78   25.04
   4  -5  -9  445.53   30.69
   4  -5  -9  424.70   20.60
   1   4  -9  411.09   29.06
  -5   1  -9  395.92   22.29
  -5   1  -9  382.88   25.51
   1   4  -6 1175.67   27.88
  -5   1  -6 1164.99   32.81
   4  -5  -6 1180.36   23.48
   1   4  -6 1191.28   35.49
   4  -5  -6 1185.75   26.34
   4  -5  -6 1078.56   37.10
   1   4  -6 1141.41   28.22
   4  -5  -6 1206.34   37.54
   4  -5  -3 1203.63   27.72
   1   4  -3 1129.35   26.79
   1   4  -3 1202.08   18.17
   4  -5  -3 1217.38   19.34
  -5   1  -3 1183.75   14.35
  -5   1  -3 1190.67   22.99
   4  -5  -3 1164.61   21.57
   4  -5  -3 1259.87   30.23
   1   4  -3 1166.49   23.65
  -5   1   0  972.34   16.27
   1   4   0 1009.58   16.05
   1   4   0 1003.36   17.65
   1   4   0  971.03   18.23
   4  -5   0  997.60   13.03
  -5   1   0 1028.55   17.77
  -5   1   0 1017.60   16.80
  -5   1   0  978.87   18.08
   1   4   0 1025.35   17.65
   4  -5   0  979.33   18.23
  -5   1   3 3419.57   39.97
  -5   1   3 3369.60   41.95
   1   4   3 3424.93   46.29
  -5   1   6  186.95   14.36
  -5   1   6  173.49   11.60
  -5   1   9  779.93   24.85
   0   4 -13    9.59   13.99
   0   4 -13   -9.09   16.24
  -4   0 -13   40.02   17.41
   4  -4 -13   -9.71   19.89
  -4   0 -13   24.18   16.76
   4  -4 -13   15.30   13.67
   0   4 -10  138.35   11.44
  -4   0 -10  167.49   21.31
  -4   0 -10  141.09   18.48
   4  -4 -10  153.02   22.76
   0   4 -10  147.62   20.76
   4  -4 -10  134.79   14.46
  -4   0 -10  133.77   15.22
   0   4 -10  153.59   17.09
   0   4 -10  127.71   16.85
   0   4  -7   81.26    8.59
  -4   0  -7   58.52   11.11
  -4   0  -7   74.30    9.96
   0   4  -7   74.15   11.56
   0   4  -7   72.78   10.06
   4  -4  -7   74.47   13.75
   4  -4  -7   68.48   13.05
   4  -4  -7   80.00    7.79
   4  -4  -7   90.89   10.14
   4  -4  -4  215.95   10.39
   4  -4  -4  212.04   13.55
   0   4  -4  213.07   10.54
   4  -4  -4  235.08   15.86
  -4   0  -4  207.53   12.44
   0   4  -4  213.30   11.13
   4  -4  -4  223.29   10.47
   0   4  -4  217.20   13.91
  -4   0  -1   53.09    4.84
   0   4  -1   52.31    4.28
   4  -4  -1   49.46    5.31
  -4   0  -1   55.04    4.64
   0   4  -1   52.34    5.07
   4  -4  -1   46.72    5.21
   4  -4  -1   48.73    5.95
   4  -4  -1   46.24    5.02
  -4   0  -1   62.01    4.99
   0   4  -1   44.75    5.82
   0   4  -1   54.18    5.83
   0   4   2    4.28    5.02
  -4   0   2    0.28    4.58
   4  -4   2    8.83    5.24
  -4   0   2   -1.65    4.52
  -4   0   5    4.40    5.86
   0   4   5    0.36    1.48
   0   4   5   -0.11    6.76
  -4   0   5   -0.02    4.88
  -4   0   8  573.19   20.68
  -3  -1 -11    3.56   13.97
  -3  -1 -11   15.74   14.42
  -1   4 -11    3.46   13.27
  -3  -1 -11   17.63    9.86
   4  -3 -11   -7.63    9.69
  -1   4 -11   -0.21   10.77
   4  -3 -11    3.77   14.74
  -1   4 -11   -3.76    9.56
  -3  -1  -8  108.20   15.44
   4  -3  -8   99.47   11.83
   4  -3  -8   93.27    8.60
  -1   4  -8   86.05   12.43
   4  -3  -8   76.00   15.64
  -3  -1  -8  105.04   11.76
  -1   4  -8  114.32   14.45
  -1   4  -8  100.71   14.48
  -1   4  -8   98.09    8.77
   4  -3  -5  279.99   12.49
   4  -3  -5  313.65   14.36
   4  -3  -5  327.49   17.49
  -1   4  -5  258.79   15.98
  -3  -1  -5  310.14   13.30
  -1   4  -5  283.01   14.14
  -1   4  -5  296.99   12.63
   4  -3  -5  331.72   19.34
  -3  -1  -5  292.47   16.90
  -1   4  -2   34.73    4.47
  -1   4  -2   39.22    5.52
  -3  -1  -2   38.40    5.43
   4  -3  -2   36.88    5.58
   4  -3  -2   36.66    5.37
   4  -3  -2   35.84    5.06
  -3  -1  -2   35.75    4.00
   4  -3   1  384.73   12.00
  -1   4   1  369.21   11.27
  -3  -1   1  363.54   11.15
  -1   4   1  385.21   12.84
  -3  -1   4  158.56    9.65
  -3  -1   4  152.84   11.13
  -1   4   4  150.28    6.08
  -1   4   7   41.86    3.39
  -3  -1   7   74.94    8.25
   4  -2 -12  271.97   25.06
  -2  -2 -12  239.34   26.95
   4  -2 -12  250.00   21.57
  -2  -2 -12  254.30   27.36
  -2   4 -12  285.65   25.10
   4  -2 -12  277.44   31.29
  -2   4 -12  272.85   27.42
  -2   4 -12  274.27   24.91
  -2  -2  -9  645.33   32.89
   4  -2  -9  563.70   19.35
  -2  -2  -9  661.24   25.17
  -2   4  -9  600.04   29.16
  -2   4  -9  565.42   28.54
   4  -2  -9  611.36   35.77
  -2   4  -9  586.95   17.65
  -2   4  -9  563.57   31.31
   4  -2  -9  630.43   27.66
   4  -2  -6 1316.88   35.20
  -2   4  -6 1248.03   34.87
  -2  -2  -6 1247.42   36.20
   4  -2  -6 1228.82   30.76
   4  -2  -6 1184.16   25.35
  -2  -2  -6 1221.05   26.58
  -2   4  -6 1260.15   33.41
  -2   4  -6 1228.06   34.30
   4  -2  -6 1224.42   38.89
  -2   4  -6 1250.31   24.24
   4  -2  -3 2169.10   30.23
  -2  -2  -3 2200.77   34.26
  -2   4  -3 2138.92   30.61
   4  -2  -3 2207.04   30.15
  -2   4  -3 2086.37   26.65
  -2  -2   0  599.09   11.92
  -2  -2   0  626.56   11.38
  -2   4   0  636.87   12.81
   4  -2   0  637.54   12.52
  -2   4   0  635.49   10.38
   4  -2   0  637.58   12.53
  -2  -2   0  644.63   12.68
   4  -2   0  618.55   11.86
  -2   4   3 2711.77   25.44
  -2  -2   3 2702.64   38.54
  -2   4   3 2699.72   24.79
  -2   4   3 2715.46   41.70
  -2  -2   3 2642.26   32.25
   4  -2   3 2714.27   34.05
  -2   4   6  527.59   12.60
  -2  -2   6  524.04   17.74
  -3   4 -13   71.11   16.94
  -1  -3 -13   80.76   22.31
  -1  -3 -13   74.93   20.92
  -3   4 -13  100.81   18.94
   4  -1 -13  110.28   24.78
  -3   4 -13  113.93   23.75
  -3   4 -10   17.83   10.62
  -1  -3 -10   43.07   16.39
  -3   4 -10   31.20   11.91
   4  -1 -10   40.02   14.71
   4  -1 -10   28.98    7.43
   4  -1 -10   46.57   11.49
  -1  -3 -10   28.29    9.62
  -3   4 -10   34.75   12.59
  -1  -3  -7  236.86   19.80
  -3   4  -7  258.17   17.83
   4  -1  -7  246.34   17.21
  -3   4  -7  255.39   11.17
  -3   4  -7  240.13   17.06
   4  -1  -7  241.30   13.36
  -3   4  -7  221.98   17.78
  -1  -3  -7  252.50   13.72
   4  -1  -7  268.52   17.04
   4  -1  -7  209.79   19.38
   4  -1  -4   62.17    7.68
  -3   4  -4   69.21    6.18
  -1  -3  -4   69.05    5.42
  -3   4  -4   53.06    8.00
   4  -1  -4   84.46    7.69
   4  -1  -4   74.43    7.76
  -1  -3  -4   56.85    9.43
   4  -1  -1  340.69   10.72
  -3   4  -1  339.42   10.70
  -1  -3  -1  343.12   10.52
   4  -1  -1  347.82    7.10
   4  -1  -1  338.62   10.54
   4  -1   2  267.52    9.41
  -3   4   2  270.02    9.23
  -1  -3   2  281.62    7.25
  -1  -3   2  272.59   11.58
  -3   4   2  271.80   11.98
   4  -1   2  277.04    6.85
  -3   4   2  304.14    8.19
  -3   4   2  266.72   11.87
  -1  -3   2  274.67   10.62
  -3   4   5  142.10    9.57
  -3   4   5  143.10    7.94
  -1  -3   5  143.53    9.57
  -3   4   8  259.91   10.57
  -4   4 -11   11.20   11.16
  -4   4 -11   13.02   12.25
   0  -4 -11   -0.87    8.14
   4   0 -11   20.72   11.57
  -4   4 -11    1.64   12.27
   4   0 -11   16.76   11.67
   0  -4 -11   16.54   14.45
   4   0 -11    2.13   13.42
   4   0  -8  600.73   21.37
   0  -4  -8  638.26   21.55
  -4   4  -8  653.11   29.48
   4   0  -8  620.72   27.27
  -4   4  -8  645.21   30.06
  -4   4  -8  617.86   27.88
   4   0  -8  542.46   26.07
  -4   4  -8  568.70   14.50
   4   0  -8  592.97   32.93
   0  -4  -8  706.79   33.03
   4   0  -5   -0.77    6.30
  -4   4  -5    4.73    4.02
   4   0  -5    1.71    5.34
   0  -4  -5    3.00    7.31
  -4   4  -5    0.21    7.40
   0  -4  -5    2.97    3.92
  -4   4  -5    1.55    5.54
   0  -4  -2    0.29    5.31
  -4   4  -2   13.84    5.54
   4   0  -2   12.75    4.96
   4   0  -2   14.68    5.38
   4   0   1   54.70    4.87
  -4   4   1   55.34    4.94
  -4   4   1   64.16    5.88
   4   0   1   57.11    4.78
  -4   4   1   57.07    5.79
   0  -4   1   53.80    5.23
   0  -4   1   62.92    4.30
   4   0   1   60.26    4.68
   0  -4   4  178.93    9.90
  -4   4   4  168.39    9.61
   4   0   4  167.15   12.27
  -4   4   4  191.77    9.40
  -4   4   7   81.35    7.58
  -5   4 -12  272.98   26.83
  -5   4 -12  281.77   27.05
  -5   4 -12  261.54   24.42
   4   1 -12  241.03   30.34
   1  -5 -12  268.47   29.55
   4   1 -12  268.15   22.31
   4   1 -12  258.05   24.24
   4   1  -9  592.73   22.47
   1  -5  -9  618.51   22.27
   4   1  -9  594.12   29.15
   4   1  -9  620.38   26.97
   1  -5  -9  618.18   33.77
  -5   4  -9  610.42   29.73
   4   1  -9  587.05   34.48
  -5   4  -9  661.67   31.84
  -5   4  -9  614.04   31.98
   1  -5  -6  631.44   28.34
  -5   4  -6  629.35   26.69
   4   1  -6  637.25   21.34
  -5   4  -6  669.03   25.08
   1  -5  -6  709.72   17.68
  -5   4  -6  673.68   14.88
   4   1  -6  725.76   26.58
  -5   4  -3 2854.51   42.19
  -5   4  -3 2872.01   31.61
   4   1  -3 2919.82   25.53
   4   1  -3 2897.91   40.37
   4   1  -3 2817.31   36.24
   1  -5  -3 2996.47   44.50
   1  -5  -3 3009.43   47.37
   4   1   0  900.50   15.88
  -5   4   0  901.31   17.59
   4   1   0  859.75   16.48
   1  -5   0  855.97   16.55
  -5   4   0  840.52   17.04
   1  -5   0  907.18   15.57
  -5   4   0  865.36   16.79
   4   1   0  871.33   16.38
   4   1   3 1603.78   29.36
  -5   4   3 1429.13   28.07
  -5   4   3 1479.72   25.37
   1  -5   3 1589.97   25.24
  -5   4   3 1526.14   24.98
  -5   4   6  387.69   15.12
  -5   4   6  391.84   17.92
  -5   4   9  545.44   18.47
  -6   4 -10    7.16   10.98
  -6   4 -10   20.50   12.52
   2  -6 -10   35.72   15.02
   4   2 -10   21.65   14.25
   4   2 -10   -5.82    8.66
   2  -6 -10   19.91    7.16
   4   2 -10    9.62   10.45
  -6   4 -10    8.55    9.77
   4   2 -10    3.94    7.42
  -6   4  -7  666.83   27.22
   2  -6  -7  667.07   31.75
   2  -6  -7  678.19   19.02
   4   2  -7  635.91   27.27
  -6   4  -7  603.46   12.91
  -6   4  -7  651.81   26.39
   4   2  -7  683.97   23.01
  -6   4  -7  669.58   29.91
   4   2  -7  680.86   23.49
  -6   4  -4   45.12    5.04
   2  -6  -4   47.44    4.03
  -6   4  -4   55.04    6.86
   4   2  -4   44.48    9.04
   4   2  -4   53.36    7.79
   2  -6  -4   44.82   10.27
   4   2  -4   48.54    4.97
   2  -6  -4   53.75    9.36
  -6   4  -4   59.47    9.86
   4   2  -1    9.63    4.74
  -6   4  -1    4.52    4.82
   2  -6  -1   11.98    5.97
   4   2  -1    4.08    5.06
   2  -6  -1   10.03    4.84
  -6   4  -1    4.43    5.32
  -6   4  -1   14.97    5.11
   4   2  -1   20.22    5.67
  -6   4   2 1178.76   22.00
   2  -6   2 1141.73   20.83
   4   2   2 1155.63   22.70
   4   2   2 1118.14   15.97
   4   2   2 1183.11   17.09
  -6   4   2 1177.99   22.02
  -6   4   2 1096.74   22.41
  -6   4   5  353.82   15.97
  -6   4   5  310.30   13.89
   4   2   5  332.72   18.31
  -6   4   8    9.32    5.90
   4   3 -11   41.52   10.26
  -7   4 -11   50.15   13.67
  -7   4 -11   47.33   15.22
   4   3 -11   31.44   17.02
   4   3 -11   51.43   15.54
   3  -7 -11   63.25   19.21
  -7   4 -11   60.38   14.57
   4   3 -11   48.53   12.07
   3  -7  -8  323.21   25.52
   3  -7  -8  336.37   14.87
  -7   4  -8  335.72   23.86
  -7   4  -8  321.65   21.23
   4   3  -8  347.25   18.13
   4   3  -8  366.02   23.51
  -7   4  -8  330.69   21.01
   4   3  -8  321.78   18.47
  -7   4  -5  132.50   14.04
   4   3  -5  119.65    7.76
   4   3  -5  117.65   10.79
   3  -7  -5  140.10    7.20
  -7   4  -5  131.18   10.19
   3  -7  -5  135.66   15.19
   3  -7  -5  142.12   14.97
  -7   4  -5  112.09    6.72
   4   3  -5  140.11   13.51
   3  -7  -2  210.07   12.14
   3  -7  -2  217.44   13.36
  -7   4  -2  204.68   11.53
  -7   4  -2  226.91    6.75
   4   3  -2  214.16   12.19
  -7   4  -2  205.32   12.92
   4   3  -2  216.83   11.95
  -7   4  -2  201.36    9.59
   4   3  -2  233.98   12.77
  -7   4   1 1254.33   23.18
   3  -7   1 1295.66   22.86
  -7   4   1 1329.02   21.64
   4   3   1 1287.93   20.85
  -7   4   1 1251.99   24.49
   3  -7   1 1271.96   18.85
   4   3   1 1298.88   23.90
   4   3   1 1302.76   18.66
  -7   4   4  365.78   15.98
  -7   4   4  385.59   15.60
   4   3   4  351.45   17.19
   3  -7   4  378.34   16.31
  -7   4   7   58.56   10.14
  -7   4   7   62.46    8.94
  -8   4 -12  189.03   23.83
   4   4 -12  187.37   23.39
  -8   4 -12  172.37   24.41
  -8   4 -12  148.43   19.29
   4  -8 -12  154.47   25.21
   4   4 -12  141.40   25.30
   4   4  -9  209.91   14.90
   4  -8  -9  219.42   24.39
  -8   4  -9  179.21   17.58
  -8   4  -9  166.57   20.83
  -8   4  -9  226.34   19.67
   4   4  -9  202.46   15.97
   4   4  -9  169.42   16.33
   4  -8  -9  193.98   12.44
   4   4  -9  188.03   19.22
  -8   4  -6  189.20   17.16
   4   4  -6  193.20   16.20
   4  -8  -6  145.23   16.77
   4  -8  -6  187.70    9.39
   4   4  -6  191.41   10.18
  -8   4  -6  179.73    7.59
  -8   4  -6  189.11   13.29
   4   4  -6  186.33   13.71
  -8   4  -6  182.85    7.67
  -8   4  -3 1013.46   18.30
   4   4  -3  972.42   25.34
  -8   4  -3 1032.05   20.31
  -8   4  -3  994.38   25.77
   4   4  -3  973.21   27.31
   4  -8  -3  967.61   28.36
   4  -8  -3 1004.35   16.37
  -8   4  -3  966.15   28.10
   4  -8  -3  941.17   28.61
   4   4  -3 1005.66   28.77
   4  -8   0 1876.27   30.22
   4   4   0 1777.92   26.27
  -8   4   0 1853.81   30.26
   4  -8   0 1834.11   24.55
  -8   4   0 1766.49   28.33
   4   4   0 1855.10   29.46
   4   4   0 1847.28   29.12
  -8   4   0 1854.86   30.28
   4   4   3 1654.52   21.16
   4  -8   3 1589.22   30.80
   4   4   3 1686.78   33.92
  -8   4   3 1633.17   28.32
  -8   4   3 1630.61   31.55
  -8   4   3 1689.77   32.44
  -8   4   6  150.03   13.24
  -8   4   6  131.48   11.52
   5  -9 -10   55.19    8.76
  -9   4 -10   51.65   16.57
  -9   4 -10   41.20   12.68
   4   5 -10   37.53   10.62
  -9   4 -10   58.01   13.45
   4   5 -10   45.87   15.44
   4   5 -10   58.27   10.24
   5  -9 -10   55.92   16.92
   5  -9  -7  823.33   20.42
   4   5  -7  865.70   29.41
   5  -9  -7  775.98   34.99
  -9   4  -7  836.73   35.88
  -9   4  -7  851.99   29.10
   4   5  -7  884.81   22.51
   4   5  -7  860.48   34.73
   5  -9  -4   17.89    8.27
  -9   4  -4    8.75    9.19
   5  -9  -4   20.31    8.85
  -9   4  -4   13.65    4.60
  -9   4  -4    7.95    4.27
  -9   4  -4    6.01    6.75
   5  -9  -4   11.27    4.35
   4   5  -4   18.72    8.85
   4   5  -4   15.32    7.61
   4   5  -4   10.04    7.41
   4   5  -4    9.98    2.24
   4   5  -1  752.39   21.08
  -9   4  -1  731.96   14.78
  -9   4  -1  731.81   21.17
  -9   4  -1  671.18   20.84
  -9   4  -1  714.69   19.53
   5  -9  -1  726.80   18.94
   4   5  -1  676.36   20.00
   5  -9  -1  704.85   21.25
  -9   4   2  124.87   10.39
  -9   4   2  139.21    8.66
   4   5   2  130.20    6.50
   5  -9   2  126.82   10.07
   4   5   2  141.18   10.61
   4   5   2  128.96    8.29
   5  -9   2  136.64    7.68
  -9   4   2  126.01   10.30
   5  -9   5  826.46   27.51
  -9   4   5  842.00   26.17
   4   5   5  867.59   30.75
  -9   4   5  792.30   26.41
  -9   4   8   14.29    8.63
  -8   3 -11   85.14   17.25
   3   5 -11   53.96   18.15
   3   5 -11   83.51   12.75
  -8   3 -11   27.89   14.21
   3   5 -11   86.54   12.91
  -8   3 -11  100.10   16.59
   5  -8 -11  104.38   22.42
   3   5 -11  101.07   18.52
   3   5  -8  239.56   16.49
  -8   3  -8  277.48   23.77
   5  -8  -8  273.56   23.68
  -8   3  -8  218.42   17.73
   3   5  -8  221.38   14.21
  -8   3  -8  237.48   18.24
   5  -8  -8  239.08   13.70
   3   5  -8  242.72   20.56
  -8   3  -5  569.70   26.80
   5  -8  -5  541.97   25.68
   3   5  -5  517.48   20.66
  -8   3  -5  551.08   19.72
   5  -8  -5  587.38   26.96
   5  -8  -5  564.82   15.36
   3   5  -5  554.55   14.72
  -8   3  -5  536.59   12.43
   3   5  -5  528.11   23.98
   3   5  -2  430.86   16.79
   5  -8  -2  447.77   13.03
   5  -8  -2  435.56   18.04
   3   5  -2  446.90   17.70
  -8   3  -2  455.08   18.58
   5  -8  -2  453.68   17.42
  -8   3  -2  427.60   11.49
   3   5  -2  450.25   17.19
  -8   3  -2  447.63   13.95
   3   5  -2  425.25    9.43
  -8   3  -2  441.68   16.38
   3   5   1 1108.60   21.51
   3   5   1 1131.00   24.92
  -8   3   1 1180.60   25.35
   5  -8   1 1137.48   15.94
   5  -8   1 1121.89   23.93
  -8   3   1 1073.47   19.24
   3   5   1 1061.77   17.16
  -8   3   1 1143.52   24.47
   5  -8   4 1260.55   31.00
  -8   3   4 1241.24   29.32
   3   5   4 1233.54   33.12
  -8   3   4 1294.87   30.89
   3   5   4 1170.05   16.23
  -8   3   7  168.20   13.60
   2   5 -12    5.24   17.00
  -7   2 -12   32.84   15.52
   2   5 -12   -0.22   12.78
  -7   2 -12   12.89   15.91
   5  -7 -12    6.37   17.11
  -7   2 -12   24.35   12.94
   2   5  -9  220.07   15.97
   2   5  -9  214.47   21.13
   5  -7  -9  211.71   14.36
   5  -7  -9  226.56   23.40
  -7   2  -9  198.50   19.30
  -7   2  -9  214.96   22.59
   2   5  -9  209.00   15.84
  -7   2  -9  212.60   17.44
   5  -7  -6   38.90   10.34
  -7   2  -6   42.07   11.82
   2   5  -6   48.92    8.31
   5  -7  -6   61.52    7.92
   2   5  -6   49.58   10.80
   5  -7  -6   43.80   11.18
  -7   2  -6   56.21    8.89
   5  -7  -6   50.42    6.87
   2   5  -6   56.74    7.45
   2   5  -3 2487.96   42.39
   5  -7  -3 2558.96   29.11
   2   5  -3 2477.15   38.62
  -7   2  -3 2557.65   37.66
  -7   2  -3 2596.17   27.75
   2   5  -3 2548.85   23.90
  -7   2  -3 2602.84   32.53
   5  -7  -3 2619.57   43.17
   2   5  -3 2650.57   43.19
   5  -7  -3 2580.06   44.64
  -7   2  -3 2435.73   44.15
  -7   2   0 1797.17   27.43
  -7   2   0 1735.16   24.84
   5  -7   0 1653.21   20.18
   2   5   0 1751.85   27.09
   2   5   0 1715.12   26.73
   5  -7   0 1786.17   28.51
  -7   2   0 1827.79   28.27
   2   5   0 1707.79   24.04
  -7   2   0 1673.47   24.89
  -7   2   3 3429.58   46.14
  -7   2   3 3373.00   44.06
  -7   2   3 3423.01   34.32
   5  -7   3 3470.44   46.37
   2   5   3 3337.67   29.18
   2   5   3 3410.96   48.15
  -7   2   6  396.55   20.42
  -7   2   6  414.62   18.27
  -7   2   9  266.32   16.91
  -6   1 -10  -10.95   11.62
   1   5 -10   -6.99   11.28
   5  -6 -10   18.95   14.93
  -6   1 -10   -4.68    9.43
   1   5 -10    7.98    9.42
   1   5 -10   10.85   12.65
  -6   1 -10   11.27   12.60
   5  -6 -10   -4.60    7.67
   1   5 -10    8.69    7.39
   5  -6  -7  335.80   15.95
   1   5  -7  349.48   17.41
  -6   1  -7  365.41   20.91
   1   5  -7  350.04   17.65
   5  -6  -7  303.84   13.85
   5  -6  -7  336.63   24.06
  -6   1  -7  291.96   17.20
   1   5  -7  369.94   22.48
   5  -6  -4  269.74   12.54
   5  -6  -4  281.47   16.21
   1   5  -4  315.51   14.88
   1   5  -4  276.77   16.46
  -6   1  -4  277.20   13.80
   1   5  -4  303.58   11.24
  -6   1  -4  265.13    7.01
   5  -6  -4  282.27   11.48
   5  -6  -4  268.95   16.89
   5  -6  -1 4338.32   40.29
   5  -6  -1 4458.58   39.03
  -6   1  -1 4406.71   38.50
   1   5  -1 4433.93   43.37
   5  -6  -1 4325.92   42.61
  -6   1  -1 4417.41   39.65
  -6   1  -1 4506.52   45.19
   1   5  -1 4327.60   33.95
   1   5  -1 4312.09   41.46
  -6   1  -1 4430.87   34.27
   1   5  -1 4444.69   43.53
   5  -6   2  445.91   15.62
  -6   1   2  462.77   15.46
  -6   1   2  460.70   15.74
  -6   1   2  460.94    9.82
   1   5   2  450.48   15.81
   1   5   2  435.29   11.60
  -6   1   5  435.54   19.75
   1   5   5  478.59   22.74
  -6   1   5  484.54   18.47
  -6   1   8   21.21    7.65
  -5   0 -11   29.91   15.44
  -5   0 -11    6.91    9.80
   0   5 -11    0.92    9.87
   0   5 -11   35.20   14.55
   0   5 -11   -2.90   10.50
  -5   0 -11    2.71   12.77
   5  -5 -11   12.11   13.89
   5  -5 -11    6.91    8.54
   0   5  -8   47.71    8.44
   5  -5  -8   54.73    7.76
  -5   0  -8   58.81   12.11
  -5   0  -8   67.03   10.13
   5  -5  -8   26.94   12.82
   0   5  -8   66.87   12.76
   0   5  -8   62.28   10.10
   5  -5  -8   63.19    9.79
   5  -5  -5    4.42    4.98
   0   5  -5    3.24    7.35
   0   5  -5   14.30    5.61
   5  -5  -5    7.04    4.90
   0   5  -5    8.46    6.36
   5  -5  -5    7.65    9.86
  -5   0  -5    7.17    7.04
   5  -5  -5    5.71    7.66
   5  -5  -2  862.95   19.18
   0   5  -2  877.97   19.71
  -5   0  -2  909.39   17.54
  -5   0  -2  872.83   14.10
   5  -5  -2  928.63   21.09
   0   5  -2  867.08   14.98
   0   5  -2  835.38   21.66
   5  -5  -2  875.05   17.01
   5  -5  -2  828.29   22.04
  -5   0  -2  876.21   17.87
   0   5  -2  812.94   19.62
   0   5   1    7.39    2.69
  -5   0   1    4.55    4.66
   5  -5   1    0.39    4.38
   0   5   1    1.41    4.21
  -5   0   1    1.06    4.56
   0   5   1    0.76    5.81
  -5   0   1    7.99    2.39
  -5   0   4  812.62   24.45
  -5   0   4  830.63   22.24
   0   5   4  757.48   12.65
  -5   0   7   43.09    7.94
  -4  -1 -12   18.62   15.73
  -1   5 -12   28.23   12.97
   5  -4 -12   23.86   11.67
   5  -4 -12   14.31   16.36
  -1   5 -12   16.50   13.47
  -4  -1 -12   25.11   15.10
  -1   5 -12   20.88   15.18
  -1   5  -9  601.15   32.64
   5  -4  -9  647.59   35.86
  -1   5  -9  636.28   21.58
   5  -4  -9  636.59   26.23
  -4  -1  -9  590.00   31.68
  -1   5  -9  560.17   29.92
  -1   5  -9  593.39   28.08
   5  -4  -9  578.08   19.42
  -4  -1  -9  600.90   25.12
   5  -4  -6  424.61   24.62
  -4  -1  -6  392.38   20.60
  -1   5  -6  386.47   16.08
  -1   5  -6  386.17   18.05
  -1   5  -6  389.51   20.95
  -4  -1  -6  393.81   16.50
   5  -4  -6  398.58   20.74
   5  -4  -6  376.18   15.13
   5  -4  -6  413.38   17.50
   5  -4  -3 1450.03   24.84
   5  -4  -3 1488.28   24.57
  -1   5  -3 1412.63   30.37
  -4  -1  -3 1493.81   27.57
  -1   5  -3 1535.87   24.44
  -1   5  -3 1423.21   25.82
   5  -4  -3 1501.03   27.70
  -4  -1  -3 1594.98   22.58
   5  -4   0 1089.30   19.40
   5  -4   0 1082.69   18.90
  -1   5   0 1043.20   19.20
  -4  -1   0 1000.03   17.29
  -1   5   0 1040.78   16.66
  -4  -1   0 1064.56   18.23
  -4  -1   0 1046.89   18.20
   5  -4   0 1054.98   18.75
  -1   5   3 3005.72   27.31
  -4  -1   3 2983.38   38.77
  -4  -1   6  637.83   25.82
  -1   5   6  604.21   11.20
  -4  -1   9  544.20   21.72
  -2   5 -13    8.82   12.85
  -2   5 -13   16.50   17.14
  -2   5 -13   -2.16   13.24
  -3  -2 -13    9.75   16.19
  -3  -2 -13    1.30   15.59
   5  -3 -13    5.00   16.64
  -2   5 -10  260.85   20.75
   5  -3 -10  195.80   24.64
   5  -3 -10  247.93   13.72
  -3  -2 -10  244.92   17.35
  -2   5 -10  256.47   13.28
  -3  -2 -10  281.98   25.05
  -2   5 -10  240.39   23.33
  -2   5 -10  255.06   22.03
   5  -3 -10  302.90   20.36
  -3  -2  -7  484.62   25.42
   5  -3  -7  434.92   19.93
   5  -3  -7  398.02   22.53
  -2   5  -7  410.72   16.04
   5  -3  -7  373.31   15.95
  -3  -2  -7  401.14   17.37
   5  -3  -7  366.72   24.51
  -2   5  -7  354.78   22.11
  -2   5  -7  424.90   20.91
  -2   5  -7  430.20   23.11
  -3  -2  -4   52.12    7.67
   5  -3  -4   62.41    7.46
  -2   5  -4   64.83    9.16
   5  -3  -4   71.14    7.50
  -2   5  -4   47.16    6.43
   5  -3  -4   66.68    8.42
  -2   5  -4   56.68    7.12
  -3  -2  -1   77.18    4.80
  -2   5  -1   76.99    4.73
  -3  -2  -1   86.88    6.31
   5  -3  -1   95.47    6.83
  -2   5  -1   69.94    5.97
  -3  -2  -1   75.75    5.18
   5  -3  -1   71.13    5.17
   5  -3  -1   73.41    6.52
  -2   5   2 1711.79   29.83
  -2   5   2 1729.16   22.03
   5  -3   2 1732.00   19.36
  -3  -2   2 1727.39   28.34
  -2   5   2 1732.76   14.50
  -3  -2   2 1698.44   26.68
  -2   5   2 1763.84   31.76
   5  -3   2 1825.90   30.21
  -3  -2   5  187.96   14.20
  -3  -2   5  205.32   11.83
  -2   5   5  192.22    7.94
  -3  -2   8  331.17   16.42
  -2   5   8  263.79    8.03
   5  -2 -11   10.54    9.82
  -3   5 -11   23.16   13.86
  -3   5 -11   18.51   11.51
  -2  -3 -11   17.95   12.58
  -3   5 -11   17.05   10.86
   5  -2 -11   12.97   14.34
  -2  -3 -11   17.59    9.76
   5  -2  -8  601.31   32.82
   5  -2  -8  678.91   27.46
  -2  -3  -8  682.76   32.20
   5  -2  -8  652.42   29.68
   5  -2  -8  715.26   22.74
  -3   5  -8  674.19   19.43
  -3   5  -8  704.34   31.43
  -3   5  -8  748.37   30.55
  -2  -3  -8  672.62   22.54
  -3   5  -8  661.35   29.71
  -3   5  -5  172.54   12.40
   5  -2  -5  196.98   12.98
  -3   5  -5  174.96   13.17
  -2  -3  -5  149.10    8.34
   5  -2  -5  164.09   11.92
   5  -2  -5  150.41   10.31
  -2  -3  -5  176.86   14.06
  -3   5  -5  165.19    9.39
  -3   5  -2 1636.98   25.38
  -2  -3  -2 1594.40   26.88
   5  -2  -2 1567.38   25.19
   5  -2  -2 1648.02   20.06
   5  -2  -2 1596.89   25.52
   5  -2   1  316.97    9.59
  -2  -3   1  298.85   10.84
   5  -2   1  311.84   11.99
  -3   5   1  297.46   10.68
  -2  -3   1  328.27   11.86
  -3   5   1  301.88   12.23
   5  -2   1  313.40    7.33
  -2  -3   1  342.49   12.00
  -3   5   1  329.21    8.58
   5  -2   1  328.70   11.13
  -3   5   4   55.68    5.81
  -2  -3   4   57.90    7.25
  -2  -3   4   66.92    9.34
  -3   5   4   56.91    5.93
  -2  -3   7  661.61   21.79
  -3   5   7  634.89   15.62
  -4   5 -12   26.17   15.23
   5  -1 -12   22.65   12.87
   5  -1 -12   -3.34   15.30
   5  -1 -12   11.60   11.39
  -4   5 -12   29.28   13.20
  -4   5 -12   12.85   11.70
  -1  -4 -12   33.59   16.31
  -1  -4  -9  900.53   26.62
  -4   5  -9  905.20   37.65
  -4   5  -9  792.15   19.00
   5  -1  -9  871.01   42.12
   5  -1  -9  891.18   33.94
  -4   5  -9  864.50   36.31
  -1  -4  -9  879.49   39.62
   5  -1  -9  882.43   26.71
  -4   5  -9  917.53   36.98
  -1  -4  -6  204.71   17.11
  -4   5  -6  177.71    9.57
   5  -1  -6  180.50   13.92
  -1  -4  -6  174.72    9.45
  -4   5  -6  167.25   14.61
  -4   5  -6  159.79   14.03
   5  -1  -6  191.72   13.89
   5  -1  -6  166.45   11.87
  -4   5  -6  162.34   13.63
   5  -1  -3 3164.93   38.70
  -1  -4  -3 3331.60   44.88
  -4   5  -3 3241.70   41.97
   5  -1  -3 3267.01   41.60
  -1  -4   0  800.75   15.96
  -1  -4   0  875.72   16.29
  -4   5   0  819.05   12.26
  -4   5   0  840.79   16.56
  -4   5   0  817.66   16.57
   5  -1   0  867.12   16.41
   5  -1   0  828.93   15.13
  -1  -4   0  818.40   16.27
   5  -1   0  869.86   16.55
  -1  -4   0  827.77   14.84
   5  -1   0  879.33   14.97
  -4   5   3 1195.62   19.27
  -4   5   3 1155.95   20.85
  -1  -4   3 1186.30   27.98
  -4   5   3 1133.84   27.23
  -1  -4   3 1156.89   23.90
  -4   5   6 1194.37   27.73
  -1  -4   6 1162.87   27.65
  -4   5   6 1178.78   22.90
  -4   5   9  356.29   12.86
   5   0 -13   29.78   15.27
  -5   5 -13   31.23   16.62
   5   0 -13    0.36   17.83
  -5   5 -13   14.42   14.05
   0  -5 -13    3.84   17.35
  -5   5 -13   29.98   15.42
   0  -5 -13    8.64   16.65
   0  -5 -10  510.59   20.93
  -5   5 -10  475.03   28.73
   5   0 -10  477.04   20.91
   5   0 -10  543.55   29.51
   5   0 -10  537.54   27.49
  -5   5 -10  514.41   30.79
   0  -5 -10  551.62   34.26
  -5   5 -10  501.70   30.17
   5   0 -10  512.41   35.50
   5   0  -7   47.86    8.30
  -5   5  -7   55.06   11.38
  -5   5  -7   44.12   10.16
   5   0  -7   49.56    8.86
  -5   5  -7   29.47    8.65
   0  -5  -7   42.64    6.32
  -5   5  -7   47.52    6.13
   5   0  -7   61.77   10.79
   0  -5  -7   43.46   10.70
   0  -5  -4  721.43   24.85
  -5   5  -4  697.00   19.61
   0  -5  -4  660.45   10.89
   5   0  -4  720.92   22.75
   5   0  -4  750.43   17.20
   5   0  -4  706.84   20.32
  -5   5  -4  691.00   22.92
  -5   5  -1   12.81    5.17
   5   0  -1    5.99    2.52
   5   0  -1    6.20    4.73
   5   0  -1    5.00    5.13
   5   0  -1   10.87    5.25
   0  -5  -1    7.53    5.15
   0  -5  -1    1.48    4.56
  -5   5  -1    5.84    4.49
  -5   5   2  818.40   20.44
   5   0   2  871.96   18.12
   5   0   2  872.77   17.13
  -5   5   2  821.26   18.16
   0  -5   2  888.05   15.27
  -5   5   2  860.09   16.93
   5   0   2  852.45   13.68
  -5   5   5    7.73    4.70
  -5   5   5    4.06    4.78
   5   0   5    8.83    7.23
  -5   5   8   62.01    7.82
   5   1 -11   68.57   12.96
  -6   5 -11   30.30   12.24
   1  -6 -11   70.34   17.08
   5   1 -11   56.20   14.69
  -6   5 -11   54.44   13.91
  -6   5 -11   43.16   14.33
   5   1 -11   37.65   17.30
   1  -6  -8  152.36   10.25
   5   1  -8  137.45   12.59
   5   1  -8  150.73   14.42
  -6   5  -8  127.14   15.86
  -6   5  -8  118.22    7.08
  -6   5  -8  151.76   15.69
  -6   5  -8  135.74   14.39
   1  -6  -8  142.83   17.94
   5   1  -8  134.90   12.25
   5   1  -8  135.03   15.49
  -6   5  -8  116.11    6.85
   1  -6  -5  445.69   22.43
   5   1  -5  474.52   15.58
   5   1  -5  462.93   20.62
  -6   5  -5  418.99   17.38
  -6   5  -5  480.72   21.86
   5   1  -5  457.92   18.07
   1  -6  -5  443.41   23.74
   1  -6  -5  439.29   10.91
  -6   5  -2   90.87    6.99
   1  -6  -2   94.61    9.68
   1  -6  -2  100.30    9.07
   5   1  -2   97.11    8.69
   5   1  -2  105.44    9.27
  -6   5  -2   97.17    8.97
  -6   5   1 3955.04   38.75
  -6   5   1 3963.20   40.56
   5   1   1 4043.01   34.52
  -6   5   1 3988.87   38.08
   5   1   1 4028.59   37.21
   1  -6   1 3991.00   34.91
   1  -6   1 4020.73   36.55
   5   1   1 3903.40   34.21
  -6   5   4  195.68   11.03
   5   1   4  195.11   12.90
  -6   5   4  185.27   10.72
  -6   5   7  740.08   21.84
  -6   5   7  673.99   24.62
  -7   5 -12   12.40   11.93
   2  -7 -12    2.19   16.05
  -7   5 -12   12.81   14.21
   5   2 -12    0.30   12.74
   5   2 -12   13.97   17.11
  -7   5 -12   33.95   14.52
  -7   5  -9  786.99   33.33
   5   2  -9  762.80   27.84
   2  -7  -9  785.24   39.18
   5   2  -9  878.59   36.88
   2  -7  -9  799.24   22.79
   5   2  -9  746.09   27.18
   5   2  -9  714.87   29.99
  -7   5  -9  771.54   34.05
  -7   5  -9  833.88   38.16
  -7   5  -6  104.14   12.75
   2  -7  -6   89.26    6.50
   5   2  -6   89.28   10.12
   5   2  -6   82.81    8.04
  -7   5  -6   88.39    6.79
  -7   5  -6  100.59   10.59
   5   2  -6   92.67    8.95
  -7   5  -6   89.87    6.77
   5   2  -6  111.29   13.05
   2  -7  -6   87.69   13.55
   5   2  -3 3143.25   43.01
   5   2  -3 3164.84   45.91
   2  -7  -3 3273.77   51.93
  -7   5  -3 3127.58   35.32
  -7   5  -3 3202.32   47.93
  -7   5  -3 3059.97   29.29
   2  -7   0 1782.20   24.88
  -7   5   0 1880.66   28.94
  -7   5   0 1777.61   27.29
   5   2   0 1866.67   28.02
   5   2   0 1820.47   27.46
  -7   5   0 1854.36   28.92
   5   2   0 1828.13   26.31
   2  -7   0 1781.77   28.28
  -7   5   3 2159.82   34.08
  -7   5   3 2182.32   33.15
  -7   5   3 2172.74   35.38
   5   2   3 2162.32   21.75
   2  -7   3 2280.06   32.96
   5   2   3 2221.48   36.22
  -7   5   6  299.39   16.18
  -7   5   6  303.73   14.94
  -7   5   9   63.66    9.34
   3  -8 -10   70.86    8.88
   5   3 -10   76.41   18.27
  -8   5 -10   80.96   13.83
   5   3 -10  105.34   17.30
  -8   5 -10   90.76   18.01
   5   3 -10   84.73   12.89
   3  -8 -10   93.35   18.20
  -8   5 -10   83.78   15.11
   5   3 -10   90.85   12.24
   3  -8  -7  265.90   22.41
  -8   5  -7  307.93   22.98
  -8   5  -7  279.48   17.39
  -8   5  -7  242.05    9.18
   5   3  -7  311.96   21.14
   5   3  -7  294.87   14.09
   3  -8  -7  295.99   11.61
   5   3  -7  279.51   16.90
   5   3  -7  274.51   15.01
  -8   5  -7  263.30    9.47
   3  -8  -4  942.97   13.88
  -8   5  -4  952.02   20.25
   3  -8  -4  872.65   28.70
   3  -8  -4  979.09   32.64
   5   3  -4  960.26   26.52
  -8   5  -4 1010.92   21.24
   5   3  -4  872.15   12.01
  -8   5  -4  955.99   30.50
   5   3  -4  996.19   29.64
   5   3  -4  818.75   12.94
  -8   5  -1  636.21   17.62
  -8   5  -1  677.99   19.68
   5   3  -1  653.14   18.74
   3  -8  -1  695.70   21.07
   3  -8  -1  644.06   18.33
  -8   5  -1  691.61   19.74
   5   3  -1  644.78   19.01
   5   3  -1  731.90   20.10
   5   3   2  233.20    8.93
  -8   5   2  219.59   12.31
   5   3   2  223.03    9.22
  -8   5   2  225.00   11.64
   3  -8   2  243.89   11.57
   5   3   2  244.36   12.52
  -8   5   2  244.48   11.80
   3  -8   2  221.24   10.22
  -8   5   5  415.89   17.52
   5   3   5  437.23   21.44
  -8   5   5  423.03   18.45
  -8   5   8  213.94   14.74
   5   4 -11  180.21   21.67
  -9   5 -11  199.46   20.98
   4  -9 -11  150.01   23.68
   5   4 -11  156.70   16.10
  -9   5 -11  177.98   20.00
   5   4 -11  223.68   26.94
  -9   5 -11  259.61   26.90
  -9   5  -8   77.92   11.40
   4  -9  -8   82.80   15.98
   4  -9  -8   96.08    8.00
   5   4  -8  120.06   16.92
  -9   5  -8   99.41   16.10
   5   4  -8  102.30   11.37
   5   4  -8   89.26    9.23
   5   4  -8   93.55   12.02
  -9   5  -5  457.53   17.16
   4  -9  -5  492.01   26.36
   4  -9  -5  519.76   25.23
   5   4  -5  502.26   24.12
   4  -9  -5  494.62   12.26
  -9   5  -5  480.75   14.53
   5   4  -5  473.90   20.67
  -9   5  -5  532.56   25.41
   5   4  -5  466.65   11.15
  -9   5  -2   99.76   10.49
  -9   5  -2  102.77    5.18
  -9   5  -2  124.32    9.15
   4  -9  -2  105.48    9.95
   4  -9  -2   98.83   10.61
  -9   5  -2  125.31   10.47
   5   4  -2  103.36   10.06
   5   4  -2   97.25    9.87
   5   4  -2  110.18   10.40
   5   4   1 1219.71   21.18
  -9   5   1 1253.19   24.25
   4  -9   1 1291.26   26.10
   4  -9   1 1213.30   20.59
   5   4   1 1231.39   26.15
   5   4   1 1223.41   23.97
  -9   5   1 1234.86   27.50
  -9   5   1 1274.78   26.84
  -9   5   4   18.22    6.44
   5   4   4    7.94    6.48
  -9   5   4   24.45    7.03
   5   4   4   10.19    3.04
  -9   5   4   13.67    6.67
   4  -9   4   13.79    6.19
  -9   5   7  838.62   27.60
   5   5 -12   25.09   17.77
   5 -10 -12   41.39   18.31
 -10   5 -12   14.77   14.89
 -10   5 -12   16.50   13.68
 -10   5 -12    0.78   13.34
   5   5 -12    9.84   14.70
 -10   5  -9  258.85   20.98
   5 -10  -9  280.19   13.41
   5 -10  -9  304.98   26.62
 -10   5  -9  263.09   19.70
   5   5  -9  295.12   20.15
 -10   5  -9  283.20   25.58
   5   5  -9  295.43   24.86
   5   5  -9  279.09   15.36
   5 -10  -6  163.40    8.62
 -10   5  -6  178.55   12.36
   5   5  -6  196.80   15.08
 -10   5  -6  164.84    8.79
   5 -10  -6  199.48   18.67
 -10   5  -6  154.41   16.05
   5   5  -6  165.39   16.61
   5   5  -6  163.10    8.03
   5   5  -3 1449.48   35.60
 -10   5  -3 1519.58   28.17
   5 -10  -3 1494.42   37.51
 -10   5  -3 1545.21   22.11
 -10   5  -3 1433.48   36.58
   5 -10  -3 1452.51   35.78
   5   5  -3 1434.37   33.37
 -10   5  -3 1516.99   34.54
   5   5  -3 1513.29   36.04
   5 -10   0   78.31    6.86
 -10   5   0   97.91    9.41
   5   5   0   92.39    9.35
   5   5   0   93.40    9.01
   5 -10   0   86.54    9.01
   5   5   0   75.02    8.04
 -10   5   0   85.35    9.26
 -10   5   0   75.95    8.17
   5   5   3 1196.15   18.86
   5 -10   3 1108.48   27.64
   5   5   3 1133.31   21.13
 -10   5   3 1122.41   28.48
   5   5   3 1134.93   29.91
 -10   5   3 1125.79   25.52
 -10   5   3 1142.40   29.63
 -10   5   6  293.16   17.31
 -11   5 -10  143.71   21.78
   5   6 -10  162.97   17.20
 -11   5 -10  130.19   17.23
 -11   5 -10  160.65   17.74
   6 -11 -10  132.03   21.34
   5   6 -10  175.47   21.90
   5   6 -10  144.86   12.26
 -11   5  -7  809.07   36.64
 -11   5  -7  803.24   27.46
   5   6  -7  813.78   35.30
   5   6  -7  845.86   31.27
   5   6  -7  802.48   18.58
   6 -11  -7  767.02   19.25
   6 -11  -7  876.33   37.91
   5   6  -4  814.80   29.97
   6 -11  -4  906.03   31.30
 -11   5  -4  877.21   28.57
   6 -11  -4  864.28   18.84
   5   6  -4  868.91   28.55
 -11   5  -4  890.21   20.41
 -11   5  -4  835.94   21.60
 -11   5  -4  849.74   30.74
   5   6  -4  865.84   30.35
   6 -11  -4  770.03   30.40
   6 -11  -1  657.24   19.53
 -11   5  -1  641.20   15.67
 -11   5  -1  679.12   22.36
 -11   5  -1  651.95   20.93
   5   6  -1  669.53   21.86
   5   6  -1  651.36   21.10
 -11   5  -1  663.41   22.57
   6 -11  -1  679.73   22.84
   5   6  -1  677.10   22.91
   5   6   2  974.35   27.27
   6 -11   2 1021.18   19.65
 -11   5   2 1042.16   28.61
   6 -11   2  978.44   26.59
 -11   5   2  994.43   22.86
 -11   5   2 1037.95   27.58
   5   6   2 1014.25   18.73
   5   6   2  998.10   22.92
   5   6   5  515.98   12.09
   6 -11   5  529.83   23.19
 -11   5   5  538.98   22.83
 -11   5   5  538.71   23.29
 -10   4 -11   33.69   15.49
 -10   4 -11   -2.48   11.38
 -10   4 -11   11.85   12.42
   4   6 -11   12.99    9.97
   4   6 -11   10.51   13.47
   4   6 -11   14.23   16.32
   6 -10  -8  150.86   19.32
   4   6  -8  207.19   12.78
 -10   4  -8  180.30   15.81
   6 -10  -8  181.33   11.54
 -10   4  -8  206.38   21.45
   4   6  -8  209.22   16.79
   4   6  -8  199.22   20.60
   6 -10  -5  263.74   11.08
   4   6  -5  235.71    8.58
 -10   4  -5  250.91   10.65
 -10   4  -5  247.68   15.89
 -10   4  -5  250.65   19.46
 -10   4  -5  255.32   13.36
   4   6  -5  258.72   16.65
   6 -10  -5  238.94   19.09
   4   6  -5  267.21   18.74
   4   6  -2  425.12   18.62
   4   6  -2  448.62   18.53
   6 -10  -2  448.57   19.18
 -10   4  -2  462.46   12.42
 -10   4  -2  412.09   18.75
   4   6  -2  398.61   17.85
 -10   4  -2  441.17   16.08
 -10   4  -2  429.30   17.58
   6 -10  -2  432.25   17.93
   6 -10   1   66.13    8.01
   4   6   1   86.93    8.39
 -10   4   1   53.55    8.63
 -10   4   1   82.76    9.00
 -10   4   1   73.93    7.11
   6 -10   1   80.70    5.79
   4   6   1   86.16    6.87
   4   6   1   67.74    8.26
   4   6   4  586.01   24.16
 -10   4   4  626.49   23.02
   4   6   4  637.58   14.80
   6 -10   4  619.44   23.28
 -10   4   4  661.84   24.15
 -10   4   4  621.18   19.30
   6  -9 -12  222.23   29.95
   3   6 -12  185.74   26.64
   3   6 -12  205.51   24.74
  -9   3 -12  183.07   22.96
  -9   3 -12  150.12   24.60
   6  -9  -9    6.50    6.26
   3   6  -9    7.29   10.87
   3   6  -9   27.24    8.57
  -9   3  -9    8.38   11.54
   6  -9  -9    7.46   12.62
  -9   3  -9   -0.07    8.82
  -9   3  -9    4.41    9.62
   3   6  -9   11.76    9.00
   6  -9  -6  562.02   29.61
   6  -9  -6  603.35   17.94
  -9   3  -6  573.32   23.79
  -9   3  -6  603.94   22.73
  -9   3  -6  512.14   11.29
  -9   3  -6  577.24   29.18
   3   6  -6  607.66   28.39
   3   6  -6  581.24   24.01
   3   6  -6  608.20   17.20
   3   6  -3  746.60   12.73
  -9   3  -3  797.59   18.80
   3   6  -3  805.77   25.39
   6  -9  -3  759.28   17.78
   6  -9  -3  846.58   27.16
   3   6  -3  771.05   25.88
  -9   3  -3  771.30   17.85
   3   6  -3  769.57   24.28
  -9   3  -3  772.11   23.06
   6  -9  -3  778.21   26.32
  -9   3  -3  766.37   26.29
  -9   3   0 1509.30   29.15
   6  -9   0 1466.50   29.03
   3   6   0 1452.83   28.40
  -9   3   0 1479.09   28.60
   3   6   0 1416.22   24.92
   6  -9   0 1444.40   21.65
  -9   3   0 1485.04   26.82
   3   6   0 1465.55   28.35
   3   6   3  100.10    7.14
   3   6   3   80.09    3.85
  -9   3   3   95.36   10.08
  -9   3   3  109.22   10.61
   6  -9   3  104.64   10.16
  -9   3   3  100.26    7.54
   3   6   3   88.78   10.13
  -9   3   6  585.79   22.79
  -8   2 -10  203.11   23.39
   2   6 -10  221.81   17.60
  -8   2 -10  223.70   19.33
  -8   2 -10  193.35   21.42
   2   6 -10  244.66   17.77
   6  -8 -10  203.12   15.10
   6  -8 -10  246.01   26.98
   2   6 -10  221.95   22.92
   2   6 -10  234.50   24.36
   2   6  -7 1003.26   26.40
   6  -8  -7  942.27   24.81
  -8   2  -7  929.10   31.70
   2   6  -7  932.85   30.02
   6  -8  -7  994.46   40.21
  -8   2  -7 1012.56   39.58
   2   6  -7  964.77   36.66
  -8   2  -4  141.51   10.12
   6  -8  -4  152.46   14.03
   6  -8  -4  139.37   10.74
  -8   2  -4  156.69    7.48
  -8   2  -4  129.57   14.09
   2   6  -4  174.83   12.67
   2   6  -4  142.72    7.45
   6  -8  -4  150.80    8.87
   6  -8  -4  133.52   12.60
   2   6  -4  165.53   13.97
   2   6  -4  138.75   12.87
  -8   2  -4  158.18   11.19
   2   6  -1 1879.46   32.25
  -8   2  -1 1956.62   25.65
   6  -8  -1 1825.35   28.73
   2   6  -1 1917.63   31.61
   2   6  -1 1980.94   31.56
  -8   2  -1 1928.54   29.56
   6  -8  -1 1890.80   28.67
   6  -8  -1 1920.06   32.43
   2   6  -1 1881.79   25.93
  -8   2  -1 1911.54   32.44
  -8   2  -1 2000.28   31.38
   2   6   2 1567.87   24.79
   2   6   2 1639.23   31.84
   6  -8   2 1698.37   31.92
  -8   2   2 1661.51   31.88
  -8   2   2 1656.13   21.46
  -8   2   2 1674.95   31.75
   2   6   2 1608.48   15.84
   2   6   5   89.82    4.55
   2   6   5   86.06    4.41
  -8   2   5   94.06   11.16
  -8   2   8  382.82   20.30
  -7   1 -11   43.17   15.18
  -7   1 -11   25.87   15.14
   6  -7 -11   36.72   18.38
   6  -7 -11   38.45   10.07
   1   6 -11    7.30   10.41
  -7   1 -11   31.46   11.79
   1   6 -11   31.44   15.26
   1   6 -11   15.73   13.78
   6  -7  -8  138.42   11.95
   1   6  -8  161.28   13.89
   1   6  -8  169.61   13.74
   1   6  -8  191.68   18.51
  -7   1  -8  160.22   16.26
   6  -7  -8  169.87   11.84
   6  -7  -8  161.79   20.30
  -7   1  -8  144.44   18.35
  -7   1  -8  159.61   14.49
  -7   1  -5   20.77    6.17
   1   6  -5   25.72    8.86
   6  -7  -5   22.43    8.83
   6  -7  -5   22.93    5.92
   1   6  -5   28.39    5.45
  -7   1  -5   32.22    7.06
   6  -7  -5   17.47    5.79
   1   6  -5   29.21    7.05
   6  -7  -5   21.14    7.81
  -7   1  -2  165.34    9.51
   6  -7  -2  158.91    8.92
   1   6  -2  164.74   11.02
   1   6  -2  161.48   11.75
   6  -7  -2  170.45   11.36
   6  -7  -2  174.29   11.74
  -7   1  -2  168.39    8.48
   6  -7  -2  184.37   11.04
   1   6  -2  176.66    7.50
  -7   1  -2  192.95    9.19
  -7   1  -2  170.81   12.16
   1   6  -2  163.86   10.41
   1   6   1  173.04    6.91
   1   6   1  167.77    9.37
  -7   1   1  165.19   10.40
   1   6   1  176.88   10.51
  -7   1   1  179.80    7.55
  -7   1   1  165.56   10.20
   6  -7   1  193.38   11.11
  -7   1   4  157.76   11.51
   1   6   4  140.61   12.92
  -7   1   4  135.48   11.84
   1   6   4  145.13    6.77
   6  -7   4  149.76   12.62
  -7   1   7  356.54   18.59
  -6   0 -12  213.56   26.06
  -6   0 -12  206.58   25.17
   0   6 -12  230.17   24.20
   0   6 -12  217.65   20.67
   0   6 -12  170.58   25.00
   6  -6 -12  215.98   28.65
  -6   0  -9   10.85   11.02
   0   6  -9   -5.42   10.01
   6  -6  -9    5.03    6.18
   6  -6  -9    9.28    8.02
   0   6  -9    9.93    7.88
   0   6  -9   21.51    8.80
   6  -6  -9   27.70   14.91
  -6   0  -9   12.00   13.79
   0   6  -9   17.19   12.35
  -6   0  -9   14.48    8.32
   0   6  -6 1977.01   46.98
   0   6  -6 1836.50   35.34
   6  -6  -6 1874.75   45.84
   6  -6  -6 1881.79   34.92
   6  -6  -6 1860.88   33.84
   0   6  -6 1887.62   37.69
  -6   0  -6 1932.12   42.92
   6  -6  -6 1845.16   50.25
   6  -6  -3   66.55    7.65
   0   6  -3   65.78    8.02
  -6   0  -3   65.97    7.50
   0   6  -3   47.74    8.56
   6  -6  -3   63.81    6.65
   6  -6  -3   59.76    8.42
  -6   0  -3   64.23    4.77
   6  -6  -3   49.14    9.09
   0   6  -3   69.69    5.99
  -6   0  -3   70.74    6.81
   0   6  -3   61.03    7.87
  -6   0   0 3200.58   34.62
   6  -6   0 3025.79   25.14
   0   6   0 3126.18   35.42
   0   6   0 3123.89   36.23
   0   6   0 3116.55   33.81
  -6   0   0 3112.35   34.85
   6  -6   0 3156.21   37.13
  -6   0   0 3028.18   31.57
  -6   0   0 3181.05   35.84
   6  -6   0 3178.08   36.31
   0   6   0 3184.15   32.44
  -6   0   3   97.20    9.51
  -6   0   3   97.18    8.85
   0   6   3  114.70   10.58
   6  -6   3  105.45   10.02
  -6   0   6 1294.71   31.67
  -6   0   6 1204.65   35.62
  -6   0   9   89.42   11.33
  -1   6 -10   14.32   11.82
   6  -5 -10   26.34   10.04
   6  -5 -10   12.07    6.05
  -5  -1 -10   32.31    9.83
  -1   6 -10   14.37   11.97
  -5  -1 -10   28.86   12.90
  -5  -1 -10   13.17   12.60
   6  -5 -10   23.11   15.28
  -1   6 -10   22.32    8.46
  -1   6 -10    6.78    9.35
   6  -5  -7  712.64   24.41
  -1   6  -7  753.20   26.45
   6  -5  -7  760.78   35.31
  -1   6  -7  832.23   25.19
   6  -5  -7  733.30   30.81
  -1   6  -7  785.19   31.89
   6  -5  -7  742.39   22.52
  -5  -1  -7  747.02   30.12
  -5  -1  -7  758.30   24.19
  -5  -1  -4  219.00   10.33
  -5  -1  -4  210.40   12.81
   6  -5  -4  201.00   11.06
  -1   6  -4  215.88   14.89
   6  -5  -4  232.60   16.24
   6  -5  -4  213.05   13.59
   6  -5  -4  204.45   11.34
  -1   6  -4  221.53   12.28
  -1   6  -4  192.52   10.60
  -1   6  -1 3928.91   35.36
  -1   6  -1 3826.60   34.61
   6  -5  -1 3878.23   37.85
  -5  -1  -1 3835.39   33.77
  -5  -1  -1 3879.05   36.19
   6  -5  -1 3892.53   37.76
   6  -5  -1 3758.57   40.59
  -5  -1  -1 3840.49   34.87
  -1   6   2  144.93   10.17
   6  -5   2  149.07   10.52
  -5  -1   2  130.33    9.77
  -5  -1   2  114.29    8.92
  -5  -1   5  432.84   17.56
  -5  -1   5  427.27   20.29
  -1   6   5  430.25   22.25
  -1   6   5  419.86   10.57
  -5  -1   8  113.89   11.64
  -4  -2 -11   34.54   16.90
  -4  -2 -11   52.04   11.20
  -2   6 -11   45.88   16.11
   6  -4 -11   38.98   10.84
  -2   6 -11   47.26   14.19
   6  -4 -11   31.06   16.10
  -2   6 -11   21.54   10.57
  -4  -2 -11   48.03   16.47
  -4  -2  -8   14.22    9.77
   6  -4  -8   16.50    7.14
   6  -4  -8    8.09    7.63
   6  -4  -8   11.38   12.36
  -4  -2  -8   14.91    6.81
  -2   6  -8   18.31    8.31
  -2   6  -8   11.57    9.47
  -2   6  -8   19.69    6.52
  -2   6  -8    6.89    8.92
  -2   6  -5  375.58   15.30
   6  -4  -5  389.23   16.38
  -2   6  -5  348.81   16.15
  -2   6  -5  339.68   19.32
  -4  -2  -5  360.70   18.46
   6  -4  -5  352.19   21.14
   6  -4  -5  385.53   18.13
   6  -4  -5  362.35   15.20
   6  -4  -2 1095.63   21.36
   6  -4  -2 1088.51   22.38
  -4  -2  -2 1122.85   22.26
  -2   6  -2 1153.97   20.11
  -2   6  -2 1166.45   20.87
  -4  -2  -2 1117.07   16.16
   6  -4  -2 1098.91   20.51
  -4  -2  -2 1112.06   16.02
  -4  -2   1   -1.28    5.27
   6  -4   1    3.16    4.48
  -2   6   1    7.63    6.38
   6  -4   1    3.46    4.68
  -2   6   1    5.17    4.24
  -4  -2   1    5.13    5.13
  -4  -2   1   -0.56    4.61
   6  -4   1   -1.91    5.30
  -2   6   4   35.87    4.18
  -4  -2   4   41.95    8.16
  -2   6   4   44.94   10.04
  -4  -2   4   45.61    7.32
  -2   6   4   35.91    4.94
  -2   6   7  571.58   12.45
  -4  -2   7  640.06   22.80
  -3  -3 -12  342.47   32.65
  -3   6 -12  299.51   27.02
  -3  -3 -12  308.62   29.24
  -3   6 -12  354.30   31.04
  -3   6 -12  302.77   25.90
   6  -3 -12  301.05   23.94
   6  -3 -12  311.52   31.27
   6  -3 -12  305.14   25.36
  -3  -3  -9  134.85   12.55
   6  -3  -9  139.25   15.42
  -3   6  -9  129.43   15.25
   6  -3  -9  127.99   11.91
  -3   6  -9  138.85   10.50
   6  -3  -9  110.72   18.98
  -3  -3  -9  142.81   18.36
  -3   6  -9  126.19   16.93
  -3   6  -9  123.24   16.69
  -3   6  -6  972.49   24.17
   6  -3  -6 1013.93   30.30
   6  -3  -6 1022.43   28.99
   6  -3  -6 1018.54   25.79
  -3  -3  -6 1076.61   33.77
  -3  -3  -6 1006.40   22.38
  -3   6  -6  958.93   32.38
  -3   6  -6 1021.23   30.23
  -3  -3  -3   26.60    3.23
   6  -3  -3   17.41    6.23
  -3   6  -3   20.21    5.80
  -3  -3  -3   19.31    6.93
   6  -3  -3   23.57    6.00
   6  -3  -3   32.41    5.39
  -3  -3   0 9719.77   57.24
   6  -3   0 9557.41   48.38
  -3  -3   0 9700.79   53.45
   6  -3   0 9630.04   57.73
  -3   6   3  211.77    7.09
  -3   6   3  230.66   14.43
   6  -3   3  187.43    9.27
  -3  -3   3  218.19   13.24
  -3  -3   3  207.01   11.59
  -3   6   3  207.27    9.35
  -3   6   6 1108.88   20.18
  -3  -3   6 1059.55   27.66
  -3   6   9   31.69    3.29
  -4   6 -10  113.83   15.91
  -4   6 -10  135.94   17.58
   6  -2 -10  122.95   21.19
  -4   6 -10  110.27   16.73
  -4   6 -10   84.90    7.72
  -2  -4 -10  101.54   11.14
   6  -2 -10  100.45   11.61
  -2  -4 -10   88.40   16.38
   6  -2 -10  111.99   15.56
   6  -2  -7  699.63   26.62
  -2  -4  -7  672.74   19.14
   6  -2  -7  644.63   22.38
  -4   6  -7  670.03   19.95
  -4   6  -7  660.48   28.05
  -4   6  -7  689.03   27.70
   6  -2  -7  629.54   25.68
  -2  -4  -7  624.90   29.13
  -4   6  -7  672.96   29.10
  -2  -4  -4  247.58    7.68
   6  -2  -4  239.15   11.41
   6  -2  -4  221.71   13.22
  -4   6  -4  235.71   13.48
  -2  -4  -4  227.27   14.79
   6  -2  -4  234.58   12.58
  -4   6  -4  218.40   11.01
  -2  -4  -4  209.44    7.16
  -2  -4  -1   90.50    7.68
  -4   6  -1   85.90    4.08
  -4   6  -1   73.39    7.12
   6  -2  -1   92.76    7.69
  -2  -4  -1   85.71    6.40
  -2  -4  -1   87.78    4.86
   6  -2  -1   80.03    7.70
   6  -2  -1   79.14    5.47
  -4   6   2 1275.47   26.95
  -4   6   2 1239.86   17.50
  -4   6   2 1214.20   26.99
  -2  -4   2 1209.33   13.32
   6  -2   2 1187.07   18.40
  -2  -4   2 1164.38   23.43
  -2  -4   2 1172.91   25.49
  -4   6   2 1216.43   21.78
   6  -2   2 1236.26   18.58
  -4   6   5  426.54   13.81
  -2  -4   5  424.91   17.25
  -4   6   5  419.82   14.28
  -4   6   8   47.78    6.13
  -5   6 -11   40.75   12.93
  -1  -5 -11   59.53   17.03
   6  -1 -11   72.80   14.80
   6  -1 -11   50.44   13.36
  -5   6 -11   68.53   15.19
   6  -1 -11   43.45   19.13
  -5   6 -11   59.47   15.19
  -5   6  -8   42.92    6.42
   6  -1  -8   42.36    8.77
  -5   6  -8   47.71   11.29
  -5   6  -8   22.11    9.18
   6  -1  -8   31.96   13.37
  -1  -5  -8   41.01    7.21
  -5   6  -8   36.95   11.20
   6  -1  -8   22.72    8.95
   6  -1  -8   35.21    9.23
  -1  -5  -8   44.10   13.18
   6  -1  -5  517.91   21.36
  -5   6  -5  506.41   15.68
   6  -1  -5  489.79   18.33
  -1  -5  -5  484.32   22.45
  -1  -5  -5  458.10   10.96
  -5   6  -5  474.53   18.79
  -5   6  -5  505.33   21.74
   6  -1  -5  507.93   17.28
   6  -1  -2  381.92   14.42
   6  -1  -2  407.05   14.78
  -5   6  -2  394.92   15.08
  -1  -5  -2  404.37   15.24
   6  -1  -2  422.35    8.92
  -5   6  -2  392.35    8.73
  -1  -5   1 4608.93   44.70
   6  -1   1 4621.80   35.40
  -5   6   1 4524.90   41.28
  -1  -5   1 4628.44   43.11
  -5   6   1 4610.91   45.29
   6  -1   1 4604.62   38.02
  -5   6   1 4616.62   38.42
  -5   6   1 4527.59   42.67
   6  -1   1 4557.67   40.39
  -1  -5   1 4544.54   44.32
  -1  -5   1 4667.73   32.67
  -5   6   4  247.68   11.66
  -5   6   4  269.07   11.10
   6  -1   4  297.42   14.43
  -1  -5   4  269.19   13.67
  -5   6   7  311.68   16.39
  -5   6   7  315.30   13.56
  -6   6 -12  464.50   32.55
  -6   6 -12  531.18   35.11
   6   0 -12  517.08   31.91
   0  -6 -12  519.83   38.64
   6   0 -12  565.93   41.39
  -6   6 -12  524.37   34.96
   6   0  -9  120.64   12.92
  -6   6  -9   87.60    6.99
   6   0  -9   60.96   17.29
   6   0  -9  113.63   15.71
  -6   6  -9  101.31   15.07
  -6   6  -9   81.78   14.86
   0  -6  -9  113.77   10.07
  -6   6  -9   87.16    6.87
   6   0  -9   76.33   12.24
  -6   6  -9  138.60   16.13
   0  -6  -9  121.27   18.25
   6   0  -6 1212.66   28.26
   0  -6  -6 1213.08   38.08
   6   0  -6 1098.74   29.61
  -6   6  -6 1229.77   23.85
  -6   6  -6 1159.76   35.49
   0  -6  -6 1150.41   19.21
   6   0  -6 1136.90   33.76
  -6   6  -6 1165.13   31.37
  -6   6  -3  123.60   10.53
   6   0  -3  122.85    5.10
   6   0  -3  104.47    9.22
   6   0  -3  119.58   10.63
   0  -6  -3  109.27   10.62
  -6   6  -3   91.49    6.19
   0  -6  -3  120.15   12.56
   6   0   0 2546.43   31.18
   0  -6   0 2577.71   32.30
   6   0   0 2521.27   31.61
   6   0   0 2547.21   30.63
   0  -6   0 2553.47   30.96
  -6   6   0 2607.53   33.23
  -6   6   0 2545.62   32.86
  -6   6   0 2477.95   33.09
  -6   6   3   59.81    6.50
  -6   6   3   59.25    6.92
   6   0   3   60.44    7.16
   6   0   3   60.76    4.65
   0  -6   3   53.17    5.64
  -6   6   3   63.25    9.04
  -6   6   6 1815.68   35.24
  -6   6   6 1757.82   32.24
   6   0   6 1755.39   42.47
  -6   6   9    3.69    6.34
  -7   6 -10  123.82   16.98
   1  -7 -10   82.81    9.12
   6   1 -10  100.93   13.13
   6   1 -10  122.89   21.16
   6   1 -10   99.07   16.78
  -7   6 -10  129.29   16.67
  -7   6 -10  115.08   17.88
   6   1 -10  109.24   13.83
   1  -7 -10  112.68   19.63
  -7   6  -7  173.46   16.97
   1  -7  -7  170.67    8.85
  -7   6  -7  163.57    9.28
   6   1  -7  152.04   16.09
   6   1  -7  164.42   13.78
  -7   6  -7  165.63   14.21
  -7   6  -7  162.86    9.29
   1  -7  -7  169.96   17.27
   6   1  -7  186.64   12.76
   6   1  -4  204.91   14.35
   1  -7  -4  224.07   17.73
   6   1  -4  198.46   12.54
   1  -7  -4  216.35   16.34
  -7   6  -4  207.00   10.40
   6   1  -4  186.75    7.34
  -7   6  -4  213.57   14.86
   1  -7  -1 1028.08   24.46
   6   1  -1 1087.29   23.81
   6   1  -1  997.61   22.27
  -7   6  -1 1029.61   22.03
   1  -7  -1  976.27   21.51
  -7   6  -1  991.45   23.43
  -7   6  -1  939.18   23.02
   6   1  -1  983.70   22.53
   1  -7   2  159.54    8.23
  -7   6   2  158.89   10.73
   6   1   2  165.84    9.51
   1  -7   2  133.47    9.55
  -7   6   2  146.09    9.90
   6   1   2  135.74    7.48
   6   1   2  156.03    8.53
  -7   6   2  144.73    9.11
  -7   6   5   -0.11    5.31
  -7   6   5    0.08    5.11
   6   1   5    4.61    6.87
  -7   6   8   31.69    7.49
  -7   6   8   16.02    8.58
   6   2 -11  202.29   17.35
  -8   6 -11  201.10   24.62
   6   2 -11  199.18   16.99
   6   2 -11  221.75   22.46
  -8   6 -11  191.85   21.57
   2  -8 -11  220.26   26.11
  -8   6 -11  258.00   23.60
   6   2 -11  197.62   26.44
   2  -8  -8  127.13   18.73
  -8   6  -8  115.64    7.30
   6   2  -8  148.18   11.83
  -8   6  -8  144.79   15.19
   6   2  -8  119.98   15.88
   6   2  -8  128.54   13.57
  -8   6  -8  112.33    7.21
  -8   6  -8  149.39   16.24
   6   2  -8  131.87   12.46
  -8   6  -8  151.22   17.52
   2  -8  -8  122.88    8.21
   6   2  -5  253.15   17.23
   2  -8  -5  231.21    6.53
  -8   6  -5  226.89   10.91
   2  -8  -5  221.88   18.88
  -8   6  -5  220.78   16.95
   6   2  -5  228.78   14.93
   6   2  -5  212.66    8.74
  -8   6  -5  241.72   12.72
   6   2  -5  240.85    9.48
   2  -8  -5  240.75   18.08
  -8   6  -2 1238.59   29.01
   2  -8  -2 1241.18   30.92
   2  -8  -2 1158.26   26.70
   6   2  -2 1178.15   26.92
   6   2  -2 1224.16   28.12
  -8   6  -2 1203.95   24.53
  -8   6  -2 1237.00   28.57
  -8   6   1 1372.85   26.26
   6   2   1 1278.63   22.05
  -8   6   1 1300.47   26.51
  -8   6   1 1288.17   25.31
   6   2   1 1285.26   24.86
   2  -8   1 1332.41   23.32
   2  -8   1 1362.98   24.43
   6   2   1 1260.05   23.17
   2  -8   4  195.27   11.71
   6   2   4  188.79   13.19
  -8   6   4  191.28   12.07
  -8   6   4  201.65   13.92
  -8   6   4  207.17   12.44
   6   2   4  186.56    6.38
  -8   6   7  554.04   21.44
  -8   6   7  518.32   22.96
  -9   6 -12  205.28   23.78
   6   3 -12  245.49   30.27
  -9   6 -12  244.69   24.73
   3  -9 -12  272.95   29.46
   6   3 -12  228.50   25.07
  -9   6 -12  233.13   26.87
   3  -9  -9  107.11   17.60
   6   3  -9  108.81   12.98
   6   3  -9   96.02   16.21
   3  -9  -9   92.36    7.64
  -9   6  -9  101.17   18.05
  -9   6  -9   80.73   14.10
  -9   6  -9  115.45   14.81
   6   3  -9  117.07   11.80
   3  -9  -6  455.61   11.14
   6   3  -6  473.01   24.65
  -9   6  -6  511.97   19.81
  -9   6  -6  466.85   14.81
   6   3  -6  474.13   21.79
  -9   6  -6  506.71   26.06
   6   3  -6  497.07   14.99
   6   3  -6  459.31   13.56
   3  -9  -6  508.41   27.28
   3  -9  -3  145.59   12.78
   6   3  -3  173.87   12.70
  -9   6  -3  157.21   12.35
   6   3  -3  161.20   13.46
  -9   6  -3  140.77   12.52
  -9   6  -3  135.07    9.51
  -9   6  -3  161.68    6.65
   6   3  -3  142.88   12.04
   3  -9  -3  178.39   14.46
  -9   6   0 1642.60   30.63
   3  -9   0 1630.73   29.80
   6   3   0 1672.62   29.52
   6   3   0 1615.75   27.78
  -9   6   0 1571.30   29.48
   3  -9   0 1598.80   26.18
   6   3   0 1608.60   29.45
  -9   6   0 1632.66   30.77
   6   3   3  415.95   12.76
  -9   6   3  431.34   17.77
  -9   6   3  374.81   16.33
   6   3   3  429.30   17.64
   3  -9   3  428.47   15.99
   6   3   3  398.74   11.91
  -9   6   3  398.56   16.41
  -9   6   6  495.17   21.40
  -9   6   6  462.65   20.04
 -10   6 -10  310.11   23.07
   6   4 -10  298.47   21.29
   6   4 -10  284.15   16.44
   6   4 -10  294.94   25.89
 -10   6 -10  309.87   27.41
 -10   6 -10  277.53   22.93
   4 -10 -10  286.27   27.37
 -10   6  -7   46.40    5.63
 -10   6  -7   50.02    8.43
   6   4  -7   44.05   10.02
   6   4  -7   47.57    5.86
 -10   6  -7   58.72   13.52
   6   4  -7   53.31   11.69
   4 -10  -7   40.83   12.90
   4 -10  -7   50.95    5.31
 -10   6  -7   48.01    5.97
   6   4  -7   50.01    7.09
 -10   6  -4  763.54   29.03
   6   4  -4  765.84   29.41
 -10   6  -4  754.70   20.34
   4 -10  -4  763.09   30.11
 -10   6  -4  761.71   26.47
   4 -10  -4  794.65   28.67
 -10   6  -4  783.36   17.81
   6   4  -4  784.29   28.10
   6   4  -4  774.65   25.80
   6   4  -1   82.63    9.69
   4 -10  -1   76.52    8.14
   6   4  -1   79.04    8.69
 -10   6  -1   77.64    9.37
   4 -10  -1   67.97    9.19
 -10   6  -1   93.36    9.33
 -10   6  -1   97.74    9.14
   6   4  -1   74.75    8.51
   6   4   2  781.59   17.35
   6   4   2  762.67   22.88
   6   4   2  728.88   18.43
 -10   6   2  773.02   23.68
   4 -10   2  731.85   18.61
 -10   6   2  727.68   20.23
   4 -10   2  741.89   21.33
 -10   6   2  727.92   22.14
   6   4   5  437.19   22.52
 -10   6   5  467.16   20.70
   4 -10   5  480.96   20.83
   6   4   5  435.38    8.95
 -10   6   5  468.82   20.14
   6   5 -11  414.78   25.26
 -11   6 -11  401.40   27.24
 -11   6 -11  345.09   26.73
   5 -11 -11  411.88   35.31
   6   5 -11  314.63   31.06
   6   5 -11  414.40   31.09
 -11   6 -11  369.05   31.62
   5 -11  -8  345.83   12.41
   5 -11  -8  385.00   28.05
 -11   6  -8  355.77   26.29
 -11   6  -8  377.43   20.74
   6   5  -8  336.81   24.65
 -11   6  -8  280.27    9.14
   6   5  -8  315.55   14.80
   6   5  -8  419.76   23.63
 -11   6  -8  276.34    9.29
   6   5  -8  371.43   14.01
 -11   6  -5  592.15   25.40
 -11   6  -5  676.11   19.58
   6   5  -5  647.47   25.72
 -11   6  -5  689.08   30.14
 -11   6  -5  656.33   19.03
   5 -11  -5  693.81   30.22
   5 -11  -5  582.65   13.56
   6   5  -5  644.08   27.75
 -11   6  -2  934.08   28.52
 -11   6  -2  868.60   14.56
   5 -11  -2  898.18   25.99
   6   5  -2  887.99   26.93
   6   5  -2  865.46   26.50
 -11   6  -2  912.01   24.12
   6   5  -2  871.03   26.43
   5 -11  -2  896.75   28.47
 -11   6  -2  900.59   26.73
   5 -11   1  725.40   22.37
   6   5   1  681.38   18.12
 -11   6   1  655.09   21.63
   6   5   1  681.17   21.98
   5 -11   1  634.58   16.74
 -11   6   1  703.25   23.06
   6   5   1  711.54   20.59
 -11   6   1  658.05   19.90
   6   5   4  958.65   30.28
   5 -11   4  955.10   27.76
   6   5   4  954.08   18.78
 -11   6   4  902.42   27.71
 -11   6   4  948.07   28.59
 -11   6   4  943.41   26.64
   6   6 -12   75.55   19.50
   6 -12 -12  113.74   24.38
 -12   6 -12   92.21   19.10
 -12   6 -12  102.93   17.73
 -12   6 -12  109.67   23.10
   6   6 -12   86.75   21.70
   6 -12  -9   30.31   15.55
   6   6  -9   28.58   14.40
   6 -12  -9   30.93    5.61
 -12   6  -9   42.14   14.85
   6   6  -9   47.41   12.17
   6   6  -9   38.85    6.47
 -12   6  -9   59.87   11.37
   6 -12  -6  382.84   12.55
   6   6  -6  401.69   22.20
 -12   6  -6  441.21   15.61
 -12   6  -6  424.31   26.27
 -12   6  -6  434.07   17.95
   6 -12  -6  461.75   26.91
   6   6  -6  433.61   25.51
 -12   6  -3   43.04    9.26
 -12   6  -3   45.34    7.16
   6 -12  -3   41.92    9.49
   6   6  -3   44.03    9.16
   6 -12  -3   33.96    9.58
   6   6  -3   69.31   11.09
 -12   6  -3   44.90    4.95
   6   6  -3   33.00    9.98
 -12   6  -3   39.66    9.93
 -12   6   0 1304.06   29.89
   6   6   0 1390.16   31.70
   6   6   0 1334.44   28.32
   6   6   0 1373.74   31.27
 -12   6   0 1382.35   32.30
 -12   6   0 1452.08   33.10
   6 -12   0 1356.17   31.67
   6 -12   0 1351.10   25.93
 -12   6   3   50.41    7.56
   6   6   3   62.51    6.04
   6 -12   3   49.40    8.27
   6   6   3   61.35    9.68
 -12   6   3   53.65    9.41
 -12   6   3   57.95    9.70
   6   6   3   54.16    6.93
   6   6   6  321.52    6.94
   6   7 -10  136.31   17.57
   6   7 -10  160.31   22.95
   7 -13 -10  198.28   24.66
 -13   6 -10  165.22   22.55
 -13   6 -10  180.81   17.64
 -13   6 -10  178.65   20.12
   7 -13  -7   34.39    5.61
   6   7  -7   24.33   11.97
   6   7  -7   14.74    3.04
 -13   6  -7   36.81    8.24
 -13   6  -7   44.65   14.67
   6   7  -7   19.19    2.49
   6   7  -7   36.08   11.06
   7 -13  -7   24.55   11.75
 -13   6  -7   34.34    5.83
   6   7  -4 1521.74   39.74
 -13   6  -4 1415.25   42.12
   7 -13  -4 1498.06   41.95
 -13   6  -4 1487.71   31.71
 -13   6  -4 1436.57   38.74
 -13   6  -4 1537.68   26.09
   6   7  -4 1437.71   40.44
   6   7  -1   32.84    9.87
   6   7  -1   22.80    7.32
 -13   6  -1   24.35    8.13
 -13   6  -1   27.68    8.69
 -13   6  -1   24.46    6.80
   6   7  -1   33.08    8.20
   7 -13  -1   25.63    8.14
   7 -13  -1   23.56    6.28
   7 -13   2 1095.52   22.21
   6   7   2 1057.31   26.26
 -13   6   2 1150.88   32.20
   7 -13   2 1057.54   29.71
   6   7   2 1125.62   31.44
   6   7   2 1068.44   21.91
 -13   6   2 1025.92   25.05
 -13   6   2 1071.36   30.37
 -13   6   5  580.36   22.39
   6   7   5  608.37   15.84
   7 -13   5  573.28   25.30
   5   7 -11  117.09   17.12
 -12   5 -11  124.67   17.84
   7 -12 -11  196.73   27.50
   5   7 -11  163.44   22.91
 -12   5 -11  167.57   25.19
 -12   5 -11  155.46   19.33
   5   7  -8   27.39   12.98
 -12   5  -8   13.33   11.31
 -12   5  -8    5.68    7.23
   5   7  -8   22.56    5.40
   7 -12  -8   35.69   15.28
   7 -12  -8   19.86    5.79
   5   7  -8   15.70    9.23
 -12   5  -5 1114.49   24.77
   5   7  -5 1198.89   38.91
 -12   5  -5 1186.99   27.20
   7 -12  -5 1107.67   22.75
   7 -12  -5 1178.85   38.71
   5   7  -5 1159.21   35.17
 -12   5  -5 1087.93   34.12
 -12   5  -5 1148.00   39.78
 -12   5  -2  140.24   11.09
 -12   5  -2  139.05   13.73
   7 -12  -2  104.43   11.28
 -12   5  -2  125.61   11.59
 -12   5  -2  121.48    7.73
   5   7  -2  138.17   12.74
   5   7  -2  133.22   12.98
   7 -12  -2  138.09   11.80
   5   7  -2  141.67   12.12
 -12   5   1  268.14   15.62
   5   7   1  253.71   11.72
 -12   5   1  238.02   14.61
   5   7   1  261.45   13.97
 -12   5   1  245.80   12.65
   7 -12   1  241.99   14.58
   7 -12   1  254.34   10.47
   5   7   1  252.41   14.91
 -12   5   4  120.68   12.34
 -12   5   4  120.87   12.19
 -12   5   4  134.51   10.62
   5   7   4  122.86    8.52
   7 -12   4  141.71   12.91
   4   7 -12   63.71   18.55
 -11   4 -12   72.31   17.06
 -11   4 -12   60.55   17.64
   4   7 -12   60.79   18.83
   7 -11 -12   51.00   21.03
   4   7  -9  205.97   17.95
   7 -11  -9  194.00   12.90
 -11   4  -9  222.13   18.69
   7 -11  -9  201.03   24.01
   4   7  -9  220.25   21.76
   4   7  -9  189.70   12.94
 -11   4  -9  201.42   22.42
   4   7  -6  106.09   14.84
   4   7  -6   84.32   11.55
   7 -11  -6   86.79   14.36
 -11   4  -6   86.31   14.61
   7 -11  -6   82.87    7.73
 -11   4  -6   85.37    9.74
 -11   4  -6   82.16   11.69
 -11   4  -6   88.53    6.77
   4   7  -6   81.85    6.21
 -11   4  -3  210.01   15.77
   7 -11  -3  244.08   16.16
 -11   4  -3  244.64   12.56
 -11   4  -3  214.23   10.12
   4   7  -3  198.20   14.46
   7 -11  -3  247.40   16.35
   4   7  -3  200.46   15.43
   7 -11  -3  219.49   11.27
 -11   4  -3  222.73   14.42
   4   7  -3  218.76   15.24
   4   7  -3  204.27    7.66
   4   7   0  320.82   15.64
   7 -11   0  286.90   11.55
   4   7   0  305.98   15.16
 -11   4   0  297.50   15.35
 -11   4   0  305.31   14.32
   7 -11   0  321.13   15.78
   4   7   0  273.11   13.39
 -11   4   0  302.86   15.04
   7 -11   3  558.16   21.84
   4   7   3  551.03   16.83
   4   7   3  561.06   22.45
   4   7   3  548.20   11.67
 -11   4   3  557.23   17.03
 -11   4   3  537.54   21.68
 -11   4   3  533.12   21.51
   4   7   6   42.87    2.92
   4   7   6   47.85    3.01
   7 -10 -10  587.77   38.98
 -10   3 -10  560.92   28.75
   3   7 -10  519.21   32.97
 -10   3 -10  596.59   31.64
   7 -10 -10  524.09   21.50
   3   7 -10  569.54   27.88
 -10   3 -10  605.55   38.18
   3   7 -10  530.21   23.03
   3   7  -7   47.81    7.00
   3   7  -7   46.79   10.16
   7 -10  -7   43.95   14.11
   3   7  -7   34.37   11.12
   7 -10  -7   37.35    7.29
 -10   3  -7   29.59   14.18
 -10   3  -7   32.60    8.19
 -10   3  -7   46.45   10.43
   3   7  -4 1571.40   38.82
   3   7  -4 1571.87   39.91
   7 -10  -4 1598.07   27.55
 -10   3  -4 1559.20   42.00
   7 -10  -4 1618.69   40.69
 -10   3  -4 1598.32   35.31
   3   7  -4 1563.25   20.92
   7 -10  -4 1556.75   40.83
 -10   3  -4 1627.53   30.00
 -10   3  -4 1597.15   26.43
   3   7  -4 1575.43   36.90
   3   7  -1  708.78   18.40
 -10   3  -1  689.32   21.29
 -10   3  -1  652.33   16.71
   3   7  -1  714.33   21.33
 -10   3  -1  723.53   21.06
   3   7  -1  701.04   21.27
   7 -10  -1  672.15   21.76
 -10   3  -1  720.04   22.14
   7 -10  -1  683.14   18.85
   3   7  -1  675.63   22.00
 -10   3   2 1152.67   28.42
 -10   3   2 1183.13   29.54
   3   7   2 1079.99   23.32
 -10   3   2 1202.93   21.40
   7 -10   2 1141.54   28.38
   3   7   2 1182.80   29.15
   3   7   2 1124.09   16.92
 -10   3   5   77.36   10.69
   3   7   5   50.50    4.89
 -10   3   5   68.04   10.95
   7 -10   5   58.77   10.19
   2   7 -11  170.01   15.99
   2   7 -11  159.94   15.91
   2   7 -11  227.74   26.27
  -9   2 -11  165.21   18.49
   2   7 -11  210.13   23.84
   7  -9 -11  208.19   26.28
  -9   2 -11  192.98   25.70
  -9   2 -11  222.13   22.28
   2   7  -8   32.55   11.73
  -9   2  -8   36.52   13.25
   2   7  -8   58.95    8.90
   2   7  -8   32.49    9.40
   7  -9  -8   29.80   12.78
  -9   2  -8   34.83    9.90
   7  -9  -8   54.25    9.01
  -9   2  -5  817.77   24.58
   2   7  -5  839.61   31.03
  -9   2  -5  814.40   15.41
   7  -9  -5  824.69   32.88
   2   7  -5  798.95   26.92
   7  -9  -5  762.27   23.73
  -9   2  -5  885.67   33.60
   7  -9  -5  796.45   30.17
   2   7  -5  806.07   30.69
   2   7  -5  848.55   19.03
  -9   2  -5  821.22   25.42
   7  -9  -5  807.72   20.97
  -9   2  -2  317.89   13.01
   7  -9  -2  319.07   15.50
  -9   2  -2  314.81   16.35
  -9   2  -2  333.04   12.00
   7  -9  -2  335.37   13.71
   2   7  -2  324.22   15.88
   2   7  -2  326.90   16.54
  -9   2  -2  325.94   14.55
   7  -9  -2  300.23   15.04
   2   7  -2  357.28   15.67
   2   7  -2  331.04   11.14
   2   7   1  386.96   14.86
  -9   2   1  348.87   15.75
   2   7   1  369.22   11.31
   2   7   1  389.49   15.94
  -9   2   1  352.37   15.10
   7  -9   1  378.31    8.56
  -9   2   1  389.54   12.30
   7  -9   1  380.12   15.90
   2   7   4  207.20    9.20
   2   7   4  197.98   15.02
  -9   2   4  183.73   13.78
  -9   2   4  208.95   14.20
   7  -9   4  202.92   14.68
  -9   2   7  179.67   14.65
  -8   1 -12  101.50   19.01
   1   7 -12   78.57   19.49
   1   7 -12   79.79   18.12
   7  -8 -12   99.92   22.51
  -8   1 -12   89.11   20.85
   1   7  -9  186.61   15.89
  -8   1  -9  176.67   22.07
   7  -8  -9  138.99   20.73
   1   7  -9  169.89   14.71
   7  -8  -9  169.85   14.29
  -8   1  -9  216.16   19.63
   1   7  -9  186.65   20.10
  -8   1  -9  153.69   15.75
   1   7  -6  528.36   18.19
  -8   1  -6  541.89   22.50
   1   7  -6  550.82   26.59
  -8   1  -6  505.03   20.39
   1   7  -6  506.55   21.78
   7  -8  -6  543.53   19.01
   7  -8  -6  428.27   26.71
   7  -8  -6  468.93   24.73
   7  -8  -6  519.35   19.61
   7  -8  -3  671.10   24.12
   1   7  -3  666.22   21.74
   1   7  -3  672.19   21.87
   1   7  -3  685.84   24.60
  -8   1  -3  662.57   15.81
  -8   1  -3  665.11   18.70
   7  -8  -3  668.75   17.86
   7  -8  -3  617.26   19.82
   1   7  -3  694.32   15.26
  -8   1  -3  684.43   20.27
   7  -8  -3  632.66   22.22
  -8   1   0  243.23   11.96
   1   7   0  234.98   12.62
   7  -8   0  214.12    8.09
  -8   1   0  232.01   10.83
  -8   1   0  237.82   11.33
   1   7   0  223.41   11.72
  -8   1   0  237.49   11.90
   1   7   0  217.84   11.37
   7  -8   0  230.44   12.09
   1   7   0  226.89   10.61
   1   7   3 2171.80   40.71
  -8   1   3 2154.72   39.40
   7  -8   3 2132.66   40.21
  -8   1   3 2142.06   39.06
   1   7   3 2104.67   28.40
   1   7   6   50.12    3.16
   1   7   6   54.05    3.31
   0   7 -10  362.70   26.79
  -7   0 -10  329.24   25.34
   7  -7 -10  324.69   19.88
   0   7 -10  319.84   21.55
   0   7 -10  358.51   28.14
   7  -7 -10  366.02   30.89
  -7   0 -10  324.61   20.87
  -7   0 -10  310.20   28.54
   0   7 -10  314.95   19.12
  -7   0  -7   33.84   10.00
   0   7  -7   49.06    8.69
   0   7  -7   47.93   12.06
  -7   0  -7   47.51    8.64
   0   7  -7   47.14    9.60
   7  -7  -7   53.50    8.69
   7  -7  -7   36.34   11.76
   7  -7  -7   32.83    8.34
  -7   0  -4  384.27    9.51
  -7   0  -4  364.52   14.80
   7  -7  -4  397.64   18.83
   0   7  -4  397.11   17.37
   7  -7  -4  397.09   16.44
   0   7  -4  405.13   13.90
   7  -7  -4  373.34   14.54
  -7   0  -4  388.28   16.33
   0   7  -4  389.66   20.09
   0   7  -4  410.33   18.83
   7  -7  -4  367.52   20.52
   7  -7  -1    4.66    5.64
  -7   0  -1    1.63    4.73
   0   7  -1    1.30    5.67
   7  -7  -1    0.18    5.25
  -7   0  -1    3.49    4.43
   7  -7  -1    4.91    5.37
   7  -7  -1   -1.51    4.89
  -7   0  -1    2.25    4.39
   0   7  -1    3.19    5.63
   0   7  -1    9.79    5.09
   0   7  -1    5.90    4.64
  -7   0   2  881.78   11.80
   0   7   2  891.66   24.37
   7  -7   2  917.11   24.60
  -7   0   2  928.57   24.26
  -7   0   2  920.41   23.86
  -7   0   5   20.48    6.46
  -7   0   5   11.98    7.41
   0   7   5   17.20    3.58
  -7   0   8  451.83   21.81
  -1   7 -11  173.64   21.34
  -1   7 -11  186.09   23.36
  -6  -1 -11  206.40   25.20
   7  -6 -11  150.91   24.16
  -6  -1 -11  188.87   22.48
  -1   7 -11  175.67   18.36
   7  -6 -11  161.19   16.59
  -6  -1 -11  153.09   15.76
  -6  -1  -8   35.24   10.65
  -1   7  -8   37.30    9.07
  -1   7  -8   52.10   10.01
   7  -6  -8   39.30    9.52
   7  -6  -8   43.95    8.65
  -1   7  -8   37.79   11.25
  -6  -1  -8   56.24    9.68
   7  -6  -8   31.61   12.59
  -1   7  -5   13.79    9.54
   7  -6  -5    5.77    5.83
  -6  -1  -5    2.64    6.30
   7  -6  -5   -2.80    8.85
   7  -6  -5    3.46    5.63
  -6  -1  -5    1.47    4.41
  -1   7  -5    2.19    6.45
  -1   7  -5    1.82    5.07
   7  -6  -5    8.19    7.26
  -6  -1  -2  171.16    8.48
   7  -6  -2  139.11    9.94
  -1   7  -2  159.30    9.47
   7  -6  -2  154.88    9.56
  -1   7  -2  137.32   10.06
  -6  -1  -2  158.08    9.59
  -1   7  -2  147.83   11.58
   7  -6  -2  155.35   10.69
  -6  -1  -2  150.35    8.23
  -1   7  -2  151.55    8.43
   7  -6   1  869.52   21.43
  -1   7   1  848.53   23.90
  -6  -1   1  895.36   23.09
  -6  -1   1  919.79   21.65
  -1   7   1  877.42   20.60
  -6  -1   1  907.14   13.59
  -1   7   4  241.09   16.26
  -1   7   4  198.15    8.90
  -6  -1   4  210.07   13.93
  -6  -1   4  206.57   12.93
  -1   7   7  101.62    4.42
  -6  -1   7  142.88   12.76
  -5  -2 -12  127.05   22.26
   7  -5 -12  151.50   24.85
  -5  -2 -12  151.90   23.21
   7  -5 -12  110.91   15.68
  -2   7 -12  153.57   21.36
  -2   7 -12  108.74   16.89
  -2   7 -12  144.98   23.00
  -2   7  -9  116.65   17.04
   7  -5  -9  108.76   18.52
  -2   7  -9   72.87   14.01
  -5  -2  -9   88.78   11.17
  -2   7  -9   93.37   13.57
   7  -5  -9   90.94   12.65
   7  -5  -9   82.75   10.48
  -2   7  -9   93.07   10.96
  -5  -2  -9  108.59   17.13
  -2   7  -6  291.54   15.17
   7  -5  -6  282.39   15.04
  -2   7  -6  295.17   15.89
   7  -5  -6  284.74   15.58
   7  -5  -6  254.83   21.11
  -5  -2  -6  301.24   18.62
   7  -5  -6  285.80   17.75
  -2   7  -6  305.41   20.08
  -2   7  -3 2271.43   34.78
   7  -5  -3 2171.24   33.14
  -5  -2  -3 2212.25   35.80
  -2   7  -3 2116.62   34.64
  -2   7  -3 2164.54   31.62
  -2   7  -3 2144.75   39.61
   7  -5  -3 2145.31   34.10
  -5  -2  -3 2257.33   26.76
   7  -5  -3 2202.64   34.08
  -5  -2  -3 2217.24   22.39
   7  -5   0 1921.25   29.50
  -2   7   0 1854.26   25.72
   7  -5   0 1948.12   28.71
  -2   7   0 1828.72   29.54
  -5  -2   0 1925.04   28.86
   7  -5   0 1874.32   29.54
  -5  -2   0 1980.11   28.72
  -5  -2   0 1916.30   27.23
  -2   7   3 3359.61   49.54
  -5  -2   3 3332.38   44.32
  -5  -2   3 3251.28   47.62
   7  -5   3 3342.54   49.75
  -2   7   3 3227.92   34.64
  -5  -2   6   90.41   10.35
  -2   7   6   96.26    6.26
  -3   7 -10   28.02    7.52
   7  -4 -10   28.19   16.13
  -3   7 -10   29.22   11.49
  -4  -3 -10   41.83   16.03
  -3   7 -10   16.87   11.79
  -3   7 -10   32.96   13.14
   7  -4 -10   39.09    8.37
   7  -4 -10   44.66   11.58
  -4  -3 -10   53.13    9.60
  -4  -3  -7   62.83   12.20
  -3   7  -7   64.66    9.96
   7  -4  -7   54.48    9.24
   7  -4  -7   45.44   13.25
   7  -4  -7   49.93   10.44
  -4  -3  -7   52.01    7.50
  -3   7  -7   50.90    8.26
   7  -4  -7   50.67    8.75
   7  -4  -4  374.03   16.34
  -4  -3  -4  395.12   17.99
  -3   7  -4  380.58   15.41
   7  -4  -4  360.50   15.75
  -3   7  -4  352.43   15.48
   7  -4  -4  404.12   16.13
  -4  -3  -4  409.68   11.61
   7  -4  -1 1170.62   20.67
  -4  -3  -1 1186.27   18.43
   7  -4  -1 1144.67   23.44
  -3   7  -1 1231.47   18.09
  -4  -3  -1 1190.62   22.71
  -4  -3  -1 1183.15   20.44
  -3   7  -1 1156.08   21.98
   7  -4  -1 1133.90   22.78
   7  -4   2  269.15    7.71
  -4  -3   2  299.04   13.30
  -4  -3   2  303.92   13.89
   7  -4   2  311.47   14.68
   7  -4   2  293.88   11.01
  -3   7   2  301.64   15.68
  -3   7   2  295.24    8.04
  -3   7   2  325.57   14.31
  -3   7   5  122.31    7.36
  -4  -3   5  124.40   12.51
  -4  -3   5  105.94   10.05
  -3   7   5  116.11    7.57
  -3   7   8  244.61    9.11
  -4  -3   8  279.71   17.13
   7  -3 -11   53.02   13.21
   7  -3 -11   49.72   17.32
  -3  -4 -11   28.21   13.29
  -4   7 -11   67.30   16.14
  -4   7 -11   55.02   14.18
  -4   7 -11   48.94   15.53
  -4   7  -8  345.05   15.93
   7  -3  -8  324.60   19.65
   7  -3  -8  394.20   28.38
  -3  -4  -8  388.67   24.97
  -4   7  -8  360.47   22.99
  -3  -4  -8  349.55   15.20
  -4   7  -8  325.86   23.09
   7  -3  -8  303.24   20.54
   7  -3  -8  344.73   18.13
  -4   7  -8  343.34   21.34
  -3  -4  -5  396.06   20.25
  -3  -4  -5  387.61   11.59
  -3  -4  -5  358.09   11.09
   7  -3  -5  411.08   16.84
  -4   7  -5  390.22   15.69
  -4   7  -5  409.56   18.75
   7  -3  -5  366.50   17.40
   7  -3  -5  374.78   16.58
   7  -3  -2  458.97   16.08
   7  -3  -2  455.55   12.29
   7  -3  -2  482.73   16.00
  -3  -4  -2  431.92   15.69
  -3  -4  -2  457.51    9.11
  -4   7  -2  443.71   11.07
  -4   7  -2  438.44   15.30
  -3  -4  -2  466.51   12.21
  -3  -4   1 1788.56   28.74
   7  -3   1 1839.70   19.27
  -4   7   1 1651.28   25.94
   7  -3   1 1739.57   28.56
   7  -3   1 1798.66   29.88
   7  -3   1 1775.45   25.91
  -3  -4   1 1768.96   29.55
  -3  -4   1 1760.92   19.16
  -4   7   1 1805.31   23.65
  -4   7   1 1781.86   31.09
  -3  -4   1 1867.98   29.21
  -4   7   4  496.10   22.60
  -3  -4   4  511.46   21.41
   7  -3   4  523.96   17.58
  -3  -4   4  506.53   18.78
  -4   7   4  458.70   14.42
  -4   7   4  494.25   12.66
  -3  -4   7   19.05    7.89
  -4   7   7   27.93    5.56
  -5   7 -12  232.36   23.48
  -2  -5 -12  311.65   29.52
  -5   7 -12  237.98   24.34
   7  -2 -12  238.52   29.91
  -5   7 -12  274.82   27.05
   7  -2 -12  241.11   22.89
  -2  -5  -9  355.34   26.90
  -5   7  -9  319.66   23.26
  -2  -5  -9  315.93   14.90
   7  -2  -9  316.21   18.20
  -5   7  -9  289.89   22.83
  -5   7  -9  338.83   15.13
   7  -2  -9  321.84   22.23
   7  -2  -9  362.52   29.10
  -5   7  -9  340.32   23.78
   7  -2  -6  386.68   18.07
  -5   7  -6  352.79   18.49
   7  -2  -6  361.62   17.27
   7  -2  -6  376.88   19.55
  -5   7  -6  361.05   15.03
  -5   7  -6  349.04   19.55
  -2  -5  -6  382.42   21.71
  -2  -5  -6  341.82   11.07
   7  -2  -3 3509.55   32.43
  -2  -5  -3 3498.25   48.17
  -5   7  -3 3398.86   45.73
   7  -2  -3 3291.17   44.51
   7  -2  -3 3371.84   44.37
   7  -2   0 1672.55   26.73
  -5   7   0 1617.01   20.30
   7  -2   0 1636.07   26.68
  -2  -5   0 1609.93   26.45
  -2  -5   0 1655.35   25.75
  -2  -5   0 1681.75   24.49
   7  -2   0 1685.98   23.54
  -5   7   0 1667.75   28.15
   7  -2   0 1612.92   24.88
  -2  -5   0 1705.20   26.90
  -2  -5   3 2500.92   38.29
  -5   7   3 2526.05   44.10
  -5   7   3 2531.43   34.30
  -5   7   3 2499.20   43.68
  -5   7   3 2566.99   28.71
  -2  -5   3 2481.10   24.56
   7  -2   3 2563.91   27.16
  -2  -5   3 2525.16   43.33
   7  -2   3 2576.83   33.39
  -5   7   6   45.14    6.33
  -5   7   6   51.97    7.03
  -2  -5   6   58.22    8.55
  -5   7   9  183.57   10.09
  -6   7 -10   15.03   11.26
  -6   7 -10   13.40   10.35
  -6   7 -10   13.14   11.02
   7  -1 -10   16.84    9.76
  -1  -6 -10   22.64    6.95
  -1  -6 -10   17.64   13.12
   7  -1 -10   -8.44   11.08
   7  -1 -10    6.47    8.45
   7  -1 -10   12.55   14.13
  -6   7  -7  400.28   23.29
  -1  -6  -7  358.35   11.90
   7  -1  -7  366.75   18.91
  -6   7  -7  351.30   21.90
   7  -1  -7  391.04   21.77
  -1  -6  -7  449.96   25.55
   7  -1  -7  367.64   18.21
  -6   7  -7  412.18   15.96
  -6   7  -7  358.78   19.86
   7  -1  -4  142.22    7.94
   7  -1  -4  143.07   11.27
  -1  -6  -4  151.78   13.48
   7  -1  -4  135.27   11.44
  -6   7  -4  127.52   11.55
   7  -1  -1  227.31    8.28
  -6   7  -1  230.35   11.77
   7  -1  -1  239.57   12.15
   7  -1  -1  225.43   11.73
  -1  -6  -1  228.76    8.09
   7  -1  -1  210.80   11.79
  -1  -6  -1  257.31   13.15
  -1  -6  -1  254.31   12.06
   7  -1   2  165.39    8.09
  -1  -6   2  179.47    7.27
  -1  -6   2  153.45   10.32
  -6   7   2  174.05    8.91
   7  -1   2  176.14    8.90
  -6   7   2  165.98   10.35
  -1  -6   2  163.46   11.78
  -1  -6   2  158.99   11.39
   7  -1   2  162.50    9.79
  -6   7   2  155.45   11.32
   7  -1   5   24.06    7.22
  -6   7   5   24.92    5.81
  -6   7   5   15.60    4.69
  -1  -6   5   26.84    6.88
  -6   7   8  121.00    9.91
   7   0 -11   18.31   15.40
   0  -7 -11   15.28   15.32
   7   0 -11   47.19   14.04
   7   0 -11   39.76   11.61
  -7   7 -11   44.14   15.13
  -7   7 -11   55.84   15.29
   7   0 -11   24.24   10.70
  -7   7 -11   20.02   12.34
  -7   7  -8  499.41   27.55
  -7   7  -8  449.33   15.91
  -7   7  -8  496.60   27.78
   0  -7  -8  458.16   29.03
  -7   7  -8  522.77   25.69
   0  -7  -8  489.69   14.61
   7   0  -8  493.39   22.62
   7   0  -8  530.71   26.97
   7   0  -8  483.96   21.98
  -7   7  -5   10.79    5.94
   7   0  -5   29.47    8.71
   7   0  -5   21.41    7.63
  -7   7  -5   15.44    7.41
   0  -7  -5   19.98    8.71
   7   0  -5   12.34    3.99
   7   0  -2  844.46   22.72
  -7   7  -2  852.20   23.40
   0  -7  -2  895.22   27.02
   0  -7  -2  857.30   23.40
   7   0  -2  879.29   23.36
   7   0  -2  814.44   11.56
  -7   7   1    6.46    4.94
   0  -7   1    0.48    4.06
   7   0   1    1.49    4.19
  -7   7   1    1.94    4.96
   7   0   1   -1.18    5.05
   7   0   1    2.19    4.86
  -7   7   1   13.30    5.50
   0  -7   1    2.20    4.95
  -7   7   4  291.67   13.05
   7   0   4  283.52   14.78
   0  -7   4  283.30   12.34
   7   0   4  281.00    8.06
  -7   7   4  287.43   17.40
  -7   7   4  293.86   13.80
  -7   7   7   41.90    8.19
  -7   7   7   37.25    7.34
   1  -8 -12  230.43   27.22
   7   1 -12  229.87   28.92
  -8   7 -12  237.14   24.30
  -8   7 -12  255.98   25.80
   7   1 -12  235.14   25.36
  -8   7 -12  223.83   26.02
   7   1  -9  474.05   23.93
  -8   7  -9  444.70   29.09
  -8   7  -9  491.68   28.21
   1  -8  -9  477.63   30.98
   1  -8  -9  444.45   14.28
  -8   7  -9  472.41   26.08
  -8   7  -9  372.95   12.75
   7   1  -9  446.02   20.73
   7   1  -9  409.47   21.49
   7   1  -9  442.00   27.05
   1  -8  -6  181.04    5.76
   1  -8  -6  222.06   18.09
   7   1  -6  214.45   15.17
   7   1  -6  267.20   18.74
   7   1  -6  256.12   11.87
  -8   7  -6  224.39   11.74
  -8   7  -6  231.60   17.83
  -8   7  -6  209.12   13.61
  -8   7  -3 1129.30   24.64
   1  -8  -3 1115.71   33.43
  -8   7  -3 1174.38   30.21
  -8   7  -3 1064.68   15.00
   7   1  -3 1130.19   28.22
   7   1  -3 1118.86   29.10
   1  -8   0   61.91    6.98
  -8   7   0   50.00    7.33
   1  -8   0   60.90    7.65
  -8   7   0   65.63    8.34
   7   1   0   67.46    7.06
   7   1   0   56.45    7.04
  -8   7   0   61.34    8.09
   7   1   0   52.23    7.51
   1  -8   3  949.24   20.98
   7   1   3  977.85   24.44
  -8   7   3  977.76   22.93
   7   1   3  915.96   17.04
  -8   7   3  936.70   26.39
  -8   7   6  115.27   11.10
  -8   7   6  113.35   10.53
  -8   7   9  166.33   13.30
  -9   7 -10   50.67   16.34
   2  -9 -10   26.25   15.06
  -9   7 -10   30.88   13.45
   7   2 -10   17.63   11.90
  -9   7 -10   12.27    9.32
   7   2 -10   13.23    9.73
   7   2 -10   35.00    9.02
   2  -9  -7  109.06    5.53
  -9   7  -7  147.23   16.68
   7   2  -7  131.64    9.89
   7   2  -7  116.58   15.63
   2  -9  -7  141.44   16.53
  -9   7  -7  125.62   12.19
   7   2  -7  124.87   13.39
   7   2  -7  126.34    8.92
  -9   7  -7  132.38    9.13
  -9   7  -7  120.26    8.71
  -9   7  -4   29.57    4.65
   7   2  -4   19.83    8.18
  -9   7  -4   29.40    8.36
  -9   7  -4   28.88    6.35
   7   2  -4   32.52    8.73
   2  -9  -4   29.93    9.79
   2  -9  -4   22.33    8.96
   2  -9  -1  811.73   24.52
   7   2  -1  776.69   21.62
   2  -9  -1  758.18   20.90
  -9   7  -1  781.80   23.18
   7   2  -1  768.46   22.33
  -9   7  -1  825.66   23.73
  -9   7  -1  778.50   21.65
   7   2  -1  792.18   22.22
   7   2   2  304.72   11.94
  -9   7   2  296.83   14.27
   7   2   2  300.09   12.06
   7   2   2  308.43   14.17
  -9   7   2  316.06   14.01
  -9   7   2  297.34   14.90
   2  -9   2  308.05   12.80
   2  -9   2  309.30   13.65
  -9   7   5  540.06   20.36
   2  -9   5  577.01   20.85
  -9   7   5  548.41   20.77
   7   2   5  520.83   22.82
  -9   7   8  131.62   12.43
   7   3 -11   43.22   18.40
   7   3 -11    5.97   10.09
   7   3 -11   20.02   13.37
   3 -10 -11   33.19   17.07
 -10   7 -11   26.55   15.06
 -10   7 -11   28.85   12.58
 -10   7 -11   33.55   12.48
   3 -10  -8  801.98   15.60
   7   3  -8  888.87   24.44
   3 -10  -8  969.31   41.19
   7   3  -8  922.87   33.08
 -10   7  -8  938.79   31.53
 -10   7  -8  965.15   40.58
 -10   7  -8  850.54   19.10
   7   3  -8  911.22   22.56
 -10   7  -8  799.70   18.77
   7   3  -8  946.75   38.63
   7   3  -5   43.85   10.96
   7   3  -5   35.71    8.61
 -10   7  -5   58.68   11.02
   3 -10  -5   53.32   11.64
 -10   7  -5   48.64    6.99
 -10   7  -5   45.88    6.72
 -10   7  -2 1599.05   31.27
   3 -10  -2 1591.84   33.58
   7   3  -2 1645.06   34.65
   7   3  -2 1567.17   33.53
   3 -10  -2 1619.54   36.94
 -10   7  -2 1589.82   35.43
   7   3  -2 1589.52   35.03
 -10   7  -2 1586.29   35.12
 -10   7   1  258.03   13.31
   7   3   1  266.75   13.63
 -10   7   1  245.94   13.82
 -10   7   1  229.37   13.21
   3 -10   1  262.73   13.00
   7   3   1  225.82   12.24
   7   3   1  230.79   11.43
   3 -10   1  253.91   11.97
   3 -10   4 1267.67   29.28
 -10   7   4 1230.32   31.18
 -10   7   4 1255.01   30.39
   7   3   4 1276.73   19.95
   7   3   4 1242.83   32.54
 -10   7   4 1237.34   31.77
 -10   7   7   62.78    9.91
 -11   7 -12   54.19   16.65
 -11   7 -12   82.19   16.43
   7   4 -12  125.58   24.50
   7   4 -12   84.81   19.21
 -11   7 -12  109.10   20.65
   4 -11 -12   67.70   21.30
 -11   7  -9  241.06   18.72
   4 -11  -9  242.60   24.99
   7   4  -9  273.26   23.89
   7   4  -9  235.24   12.64
 -11   7  -9  217.84   23.25
   4 -11  -9  187.91    8.25
   7   4  -9  262.24   20.11
   7   4  -6  132.33   13.16
   7   4  -6   93.89    4.57
   7   4  -6   94.42    4.23
 -11   7  -6  124.31   10.22
 -11   7  -6  116.98   15.11
   4 -11  -6  105.27   15.70
 -11   7  -6  130.41    9.50
   7   4  -6  121.30   15.10
   4 -11  -6   88.44    4.71
   7   4  -3  285.56   17.04
   7   4  -3  298.24   17.28
   4 -11  -3  298.64   17.62
   7   4  -3  251.49   16.92
 -11   7  -3  309.43   17.48
 -11   7  -3  308.72   18.56
 -11   7  -3  292.47    8.21
 -11   7  -3  293.69   14.44
   4 -11  -3  282.60   18.56
   7   4   0  384.95   15.51
 -11   7   0  372.50   16.67
 -11   7   0  393.88   17.30
 -11   7   0  403.36   17.46
   4 -11   0  439.30   17.91
   7   4   0  383.90   16.37
   7   4   0  408.55   16.86
   4 -11   0  395.03   15.03
   7   4   3  229.90   14.39
   4 -11   3  180.08   12.22
 -11   7   3  195.54   13.20
   7   4   3  196.61   10.39
 -11   7   3  192.56   13.61
 -11   7   3  186.26   13.01
   7   4   3  213.09   10.51
 -11   7   6   -1.51    7.03
 -11   7   6   -2.60    7.25
 -12   7 -10   71.28   14.90
 -12   7 -10   75.99   17.85
 -12   7 -10   97.00   13.95
   7   5 -10   99.01   15.64
   7   5 -10  106.38   19.58
   5 -12  -7  566.64   31.65
   7   5  -7  573.44   26.73
 -12   7  -7  551.84   31.17
 -12   7  -7  563.56   17.58
 -12   7  -7  588.91   22.26
   5 -12  -7  468.23   11.66
   7   5  -7  585.24   30.36
   7   5  -7  465.72   10.07
 -12   7  -4  391.79   20.92
 -12   7  -4  437.25   17.41
 -12   7  -4  441.17   23.12
   7   5  -4  455.36   23.48
   5 -12  -4  427.36   23.23
   7   5  -4  408.55   20.90
 -12   7  -4  445.00   12.90
 -12   7  -1  448.30   19.70
 -12   7  -1  416.87   18.19
 -12   7  -1  429.69   19.44
   5 -12  -1  446.75   17.68
   7   5  -1  450.75   18.57
   5 -12  -1  417.72   19.45
   7   5  -1  470.32   19.61
   7   5  -1  430.08   18.91
 -12   7   2  130.83   11.54
 -12   7   2  122.94   10.26
   5 -12   2  118.30   10.67
   7   5   2  125.75    8.76
   7   5   2  131.77   10.17
   5 -12   2  128.27    9.35
   7   5   2  121.39   11.51
 -12   7   2  128.68   12.13
   7   5   5 1169.14   19.40
   5 -12   5 1163.27   33.31
 -12   7   5 1095.31   32.86
 -12   7   5 1157.92   32.57
 -12   7   5 1109.55   32.96
 -13   7 -11   78.88   20.39
   7   6 -11   39.31   13.47
 -13   7 -11   58.02   15.66
 -13   7 -11   64.01   14.27
   6 -13 -11   47.28   18.86
   7   6 -11   52.75   16.68
   6 -13  -8  525.66   33.54
   6 -13  -8  428.93   12.05
 -13   7  -8  589.90   33.96
   7   6  -8  462.49   10.80
   7   6  -8  603.08   32.95
 -13   7  -8  477.79   14.79
   7   6  -8  576.72   29.05
 -13   7  -8  644.85   25.64
 -13   7  -8  489.41   14.57
   7   6  -5  250.13   19.67
 -13   7  -5  261.32   14.08
 -13   7  -5  268.98   12.32
   6 -13  -5  258.47   19.62
   7   6  -5  225.89   17.28
 -13   7  -5  273.12   20.96
   6 -13  -2 1028.15   32.18
   7   6  -2  955.93   29.41
   7   6  -2 1084.89   31.58
   6 -13  -2 1098.94   29.89
 -13   7  -2 1124.14   32.23
   7   6  -2 1195.82   32.90
 -13   7  -2 1059.98   18.07
 -13   7  -2 1098.75   32.18
 -13   7  -2 1148.71   29.63
   7   6   1   67.64    9.25
 -13   7   1   69.81    9.48
   7   6   1   82.78    9.88
 -13   7   1   70.12   10.35
   6 -13   1   71.29    9.74
 -13   7   1   83.94    9.48
   7   6   1   75.75    8.20
   6 -13   1   77.23    7.86
 -13   7   4 1429.68   37.74
 -13   7   4 1423.53   37.00
   6 -13   4 1419.50   36.01
 -13   7   4 1483.87   34.24
   7   6   4 1412.10   23.52
   7   6   4 1479.81   26.92
   7   7 -12   -3.64   15.97
   7   7 -12   19.58   17.45
 -14   7 -12    1.06   13.80
   7 -14 -12   -9.22   18.32
 -14   7 -12   27.25   18.87
 -14   7  -9  167.46   22.40
 -14   7  -9  161.55   15.19
   7   7  -9  189.62   22.00
   7 -14  -9  184.36   22.44
   7   7  -9  212.95   20.24
   7   7  -6   14.29   10.55
 -14   7  -6   12.21   11.45
 -14   7  -6   23.99    6.22
 -14   7  -6   29.77    7.10
   7   7  -6   27.99   10.45
   7 -14  -6   21.86   10.80
 -14   7  -3  867.75   17.59
 -14   7  -3  852.22   31.69
   7 -14  -3  847.60   29.85
 -14   7  -3  872.22   30.00
   7   7  -3  860.55   31.04
   7   7  -3  863.89   30.18
 -14   7  -3  837.38   25.79
 -14   7   0   42.75    8.89
   7 -14   0   40.85    7.38
   7   7   0   47.12    8.89
 -14   7   0   37.27    8.67
   7   7   0   46.05    8.59
 -14   7   0   60.50    9.32
   7 -14   0   31.49    8.09
   7   7   0   30.82    8.60
 -14   7   3 1274.07   30.37
   7 -14   3 1286.75   34.41
   7   7   3 1301.99   24.76
   7   7   3 1258.25   28.05
 -14   7   3 1196.13   33.99
   7   7   6   11.78    3.52
   8 -15 -10  225.71   26.83
   7   8 -10  194.25   24.15
 -15   7 -10  211.47   19.26
 -15   7 -10  167.38   23.73
   7   8 -10  227.84   22.48
   7   8  -7  247.38   20.19
 -15   7  -7  289.29   16.47
   8 -15  -7  288.75   24.40
   7   8  -7  251.29   23.18
 -15   7  -7  235.18   13.10
 -15   7  -7  251.12   23.53
   8 -15  -4  528.50   26.24
 -15   7  -4  525.23   15.49
   7   8  -4  558.12   26.40
   7   8  -4  552.52   27.01
 -15   7  -4  545.66   21.45
   7   8  -1 1054.19   32.36
 -15   7  -1 1106.50   32.20
   7   8  -1 1042.30   30.15
   8 -15  -1 1079.14   28.07
   7   8  -1 1014.41   30.90
   8 -15  -1 1039.45   32.26
 -15   7  -1 1048.41   31.99
 -15   7  -1 1092.99   32.31
 -15   7   2  208.69   13.53
   7   8   2  205.86   13.88
   8 -15   2  197.53   11.07
   8 -15   2  206.80   15.15
   7   8   2  195.35   11.17
   7   8   5  964.57   22.71
 -15   7   5  985.54   30.17
 -14   6 -11  159.14   20.24
 -14   6 -11  139.77   17.94
   6   8 -11  198.49   25.51
   6   8 -11  149.08   19.23
   8 -14 -11  134.09   23.46
 -14   6 -11  155.05   24.29
   8 -14  -8   78.08    8.00
 -14   6  -8  106.96   12.51
   6   8  -8   57.74    4.73
 -14   6  -8  125.57   19.11
   6   8  -8   96.89   15.88
   8 -14  -8  136.21   19.74
 -14   6  -8   73.99    6.03
   6   8  -8   71.46    4.53
   6   8  -8   88.98   17.97
 -14   6  -5  491.41   27.62
   6   8  -5  487.77   24.76
   8 -14  -5  471.11   26.75
 -14   6  -5  464.64   18.40
 -14   6  -5  475.55   17.16
   6   8  -5  519.94   27.31
   6   8  -2  340.92   18.96
   6   8  -2  320.22   19.13
   8 -14  -2  303.23   18.62
 -14   6  -2  334.99   17.18
 -14   6  -2  317.47   18.39
 -14   6  -2  331.58   12.65
   8 -14  -2  355.31   18.07
 -14   6  -2  280.69   18.79
   6   8  -2  296.38   17.59
   8 -14   1 1335.87   24.85
   8 -14   1 1319.81   33.93
 -14   6   1 1345.20   35.59
   6   8   1 1395.47   35.19
 -14   6   1 1366.98   30.55
   6   8   1 1326.03   32.17
 -14   6   1 1341.58   34.53
   6   8   1 1300.25   27.42
   8 -14   4  346.05   19.91
 -14   6   4  358.52   17.14
   6   8   4  393.88   15.44
   6   8   4  345.62   10.99
   5   8 -12   12.32   15.54
   8 -13 -12   12.09   17.29
 -13   5 -12   28.59   18.79
   5   8 -12   44.87   18.15
 -13   5 -12   30.28   14.15
   5   8  -9  112.89   15.16
   5   8  -9  117.23   18.98
   8 -13  -9  127.78   22.04
   5   8  -9   96.77    8.27
   8 -13  -9  120.28   10.01
 -13   5  -9  124.23   14.85
 -13   5  -9  103.56   18.38
 -13   5  -6   92.51   15.65
 -13   5  -6  117.14    9.15
 -13   5  -6  108.12   10.99
   8 -13  -6  109.00    9.21
   5   8  -6   70.42    4.49
   5   8  -6   88.96   14.53
   5   8  -6   89.23   12.90
   8 -13  -6  115.29   16.77
 -13   5  -3  690.63   28.62
   5   8  -3  717.98   27.91
 -13   5  -3  697.05   25.65
 -13   5  -3  710.06   18.07
   5   8  -3  737.61   27.36
 -13   5  -3  724.20   22.84
   8 -13  -3  720.70   26.63
   5   8  -3  704.07   27.11
   8 -13  -3  687.35   27.58
   5   8   0 1334.71   32.18
   8 -13   0 1276.76   32.61
 -13   5   0 1255.71   29.99
   5   8   0 1291.65   28.46
 -13   5   0 1248.11   31.64
   5   8   0 1272.89   31.70
   8 -13   0 1248.69   24.77
 -13   5   0 1352.55   33.15
   8 -13   3  236.51   15.73
 -13   5   3  242.39   16.38
   5   8   3  229.24   16.24
 -13   5   3  233.63   16.32
   5   8   3  263.54    9.90
 -13   5   3  249.56   12.54
   5   8   3  238.39   12.85
   5   8   6  208.65    8.27
 -12   4 -10  151.57   17.15
   4   8 -10  222.11   24.54
 -12   4 -10  175.52   23.54
   8 -12 -10  131.40   22.13
   4   8 -10  192.84   19.18
 -12   4 -10  145.84   17.62
   8 -12  -7  414.00   28.33
   4   8  -7  379.74   22.68
   4   8  -7  310.21   12.32
 -12   4  -7  393.47   20.08
   8 -12  -7  328.73   15.05
   4   8  -7  359.00   25.22
 -12   4  -7  312.49    9.97
 -12   4  -7  358.44   25.87
 -12   4  -4  682.95   20.14
   8 -12  -4  679.32   28.22
   8 -12  -4  654.51   19.46
   4   8  -4  594.65   25.59
   4   8  -4  620.55   13.17
 -12   4  -4  681.26   19.68
   4   8  -4  702.58   26.94
 -12   4  -4  741.78   26.30
   4   8  -4  704.50   28.64
 -12   4  -4  633.51   27.98
   8 -12  -4  632.02   27.55
   8 -12  -1 2469.02   44.37
 -12   4  -1 2503.42   41.92
 -12   4  -1 2563.48   43.93
   4   8  -1 2580.45   44.78
   4   8  -1 2531.71   41.98
   4   8  -1 2380.62   41.97
 -12   4  -1 2503.62   43.00
   8 -12  -1 2503.55   37.49
 -12   4  -1 2488.59   34.91
   8 -12   2  117.36    6.69
 -12   4   2  128.51   12.47
   4   8   2  111.90   10.12
 -12   4   2  110.53   10.96
   4   8   2  114.40    7.30
   4   8   2  127.16   11.70
 -12   4   2  115.80    8.92
   8 -12   2  134.05   12.48
   4   8   5 1213.36   21.78
 -11   3 -11  140.37   19.08
   3   8 -11  175.67   18.35
   3   8 -11  114.67   19.72
 -11   3 -11  194.68   26.01
   8 -11 -11  148.98   24.06
   3   8 -11  159.73   22.95
 -11   3 -11  149.21   17.97
   3   8  -8   95.22   13.75
   3   8  -8  106.17    9.76
   8 -11  -8   78.49   17.88
 -11   3  -8   98.12   13.00
   3   8  -8  107.73   17.04
   8 -11  -8   78.07    9.95
 -11   3  -8  106.81   17.19
   3   8  -5  230.09   16.83
 -11   3  -5  239.09   10.70
   8 -11  -5  249.93   19.79
 -11   3  -5  250.28   14.20
   3   8  -5  218.47   17.66
 -11   3  -5  218.39   15.50
   8 -11  -5  233.63   12.13
 -11   3  -5  232.02   19.51
   3   8  -5  250.16    9.85
 -11   3  -2  698.40   22.62
   3   8  -2  669.29   23.70
   8 -11  -2  666.27   23.73
   3   8  -2  709.12   24.87
   3   8  -2  701.49   23.26
   8 -11  -2  692.02   23.01
 -11   3  -2  726.76   25.56
   8 -11  -2  675.06   20.41
 -11   3  -2  721.40   18.46
 -11   3  -2  714.63   21.51
   3   8  -2  682.29   17.34
   3   8   1  120.36    8.28
   3   8   1  134.95   11.03
 -11   3   1  130.97   11.56
 -11   3   1  128.30   11.70
   3   8   1  125.91   10.27
   8 -11   1  117.80   11.03
 -11   3   1  113.54    8.50
   8 -11   1  131.55    6.54
 -11   3   4  160.10   13.52
   3   8   4  174.64    9.35
   8 -11   4  153.04   13.67
 -11   3   4  150.61    9.65
 -11   3   4  168.12   14.03
 -10   2 -12   25.85   16.74
   2   8 -12   12.25   16.62
   2   8 -12    9.03   14.15
 -10   2 -12    9.93   13.90
   8 -10 -12    3.15   15.70
   8 -10  -9  207.11   14.71
 -10   2  -9  232.53   18.66
   2   8  -9  249.36   19.19
 -10   2  -9  247.41   25.16
   8 -10  -9  183.31   23.78
   2   8  -9  224.24   15.54
   2   8  -9  231.62   23.53
 -10   2  -9  222.71   18.92
 -10   2  -6  287.90   22.46
   2   8  -6  298.45   18.56
   8 -10  -6  269.95   14.02
   2   8  -6  287.57   12.58
   8 -10  -6  298.67   23.09
   2   8  -6  274.72   21.01
 -10   2  -6  285.88   16.62
 -10   2  -6  250.50   16.44
 -10   2  -6  239.12    7.76
   8 -10  -3  624.92   18.76
 -10   2  -3  623.99   18.11
   8 -10  -3  597.22   22.98
   2   8  -3  626.63   22.71
 -10   2  -3  631.19   20.97
   2   8  -3  615.78   14.98
 -10   2  -3  599.52   17.58
 -10   2  -3  637.84   25.70
   8 -10  -3  625.90   24.34
   2   8  -3  602.28   22.67
   2   8  -3  609.16   24.68
 -10   2   0 1366.88   29.31
   2   8   0 1406.25   26.85
   2   8   0 1282.56   29.68
 -10   2   0 1435.54   30.64
 -10   2   0 1381.17   27.63
   8 -10   0 1385.12   30.61
 -10   2   0 1365.67   28.11
   2   8   0 1404.14   29.58
   8 -10   0 1401.69   21.48
   2   8   0 1384.77   29.58
   8 -10   3  659.96   24.13
 -10   2   3  655.35   23.53
   2   8   3  626.49   17.87
 -10   2   3  642.75   15.10
   2   8   3  667.90   24.46
 -10   2   3  658.54   23.72
   2   8   6  138.30    6.04
   2   8   6  137.60    6.08
   1   8 -10  189.16   17.49
  -9   1 -10  204.23   20.59
  -9   1 -10  198.55   23.73
   1   8 -10  204.10   16.74
   8  -9 -10  144.66   22.21
   1   8 -10  176.53   20.89
   8  -9 -10  179.16   15.08
  -9   1 -10  146.92   15.99
  -9   1  -7  745.25   35.60
   1   8  -7  750.10   33.64
   1   8  -7  732.94   27.83
   8  -9  -7  689.91   22.94
  -9   1  -7  728.24   28.54
   1   8  -7  753.66   23.66
   8  -9  -7  729.86   24.38
   8  -9  -7  757.03   36.44
  -9   1  -4  361.41   16.07
   1   8  -4  352.28   18.58
   1   8  -4  379.54   20.84
  -9   1  -4  345.79   15.90
   8  -9  -4  371.67   14.95
   8  -9  -4  331.01   18.51
   8  -9  -4  393.55   21.01
  -9   1  -4  363.25   11.77
   8  -9  -4  352.74   16.39
   1   8  -4  369.88   12.64
   1   8  -4  357.43   18.17
   1   8  -1 1560.77   31.78
  -9   1  -1 1571.48   29.21
   8  -9  -1 1564.15   27.78
  -9   1  -1 1502.95   26.72
  -9   1  -1 1600.27   29.33
   1   8  -1 1600.42   28.29
  -9   1  -1 1553.88   31.47
   8  -9  -1 1501.79   30.87
   8  -9  -1 1498.96   29.43
   1   8  -1 1567.52   31.49
   1   8  -1 1541.23   29.50
   8  -9   2  186.07   12.95
   1   8   2  181.54   10.49
  -9   1   2  167.98   11.99
   1   8   2  163.65    6.21
   1   8   2  151.82   11.47
  -9   1   2  172.38    7.18
  -9   1   2  157.17   11.62
   1   8   5  603.13   14.53
   8  -9   5  581.42   26.08
  -9   1   5  623.30   24.20
   1   8   5  598.13   14.36
   0   8 -11   39.03   11.48
  -8   0 -11   56.24   18.59
  -8   0 -11   27.68   10.73
  -8   0 -11   35.79   14.84
   0   8 -11   46.41   14.91
   0   8 -11   48.25   14.99
   8  -8 -11   17.72   15.40
   8  -8 -11   32.92   10.52
  -8   0  -8  350.60   19.02
   8  -8  -8  374.40   19.01
   8  -8  -8  393.94   28.36
   8  -8  -8  365.62   17.93
   0   8  -8  437.88   27.15
  -8   0  -8  324.78   18.81
   0   8  -8  379.82   20.33
   0   8  -8  366.61   19.40
  -8   0  -8  389.62   23.30
   8  -8  -5   24.55   11.22
  -8   0  -5   10.68    2.42
   0   8  -5    1.26    8.53
   8  -8  -5   15.55    6.94
   0   8  -5    7.47    6.68
   0   8  -5   13.18    5.17
   8  -8  -5   12.47    5.99
   0   8  -5   15.14    8.01
  -8   0  -5    6.15    6.69
   8  -8  -5   13.54    7.11
  -8   0  -5    7.70    5.11
   8  -8  -2 2368.91   39.54
  -8   0  -2 2286.95   33.40
   0   8  -2 2388.41   39.24
   8  -8  -2 2317.91   38.26
   0   8  -2 2369.26   41.07
   8  -8  -2 2361.57   38.41
   0   8  -2 2354.79   30.84
   8  -8  -2 2340.66   34.85
  -8   0  -2 2344.76   34.10
   0   8  -2 2333.04   36.29
  -8   0  -2 2314.68   31.81
   0   8   1   -2.93    6.52
  -8   0   1   12.31    6.35
   0   8   1   10.74    5.28
   8  -8   1    7.46    6.19
  -8   0   1    9.23    5.61
  -8   0   1    9.39    3.86
   0   8   1    3.46    3.75
   0   8   4  820.70   28.76
  -8   0   4  902.37   28.76
   8  -8   4  879.60   29.12
  -8   0   4  865.28   26.45
  -8   0   7   17.47    8.25
   8  -7 -12   15.77   18.70
  -7  -1 -12    3.81   16.02
  -1   8 -12   12.66   16.53
  -1   8 -12   20.13   14.02
  -7  -1 -12    6.77   15.16
   8  -7  -9  226.88   16.83
   8  -7  -9  227.40   23.26
   8  -7  -9  190.81   14.43
  -7  -1  -9  197.84   19.96
  -1   8  -9  198.78   15.85
  -7  -1  -9  210.65   15.87
  -1   8  -9  188.08   20.96
  -1   8  -9  200.87   16.76
  -7  -1  -6  173.63   14.39
  -1   8  -6  139.93   12.55
   8  -7  -6  130.66   15.99
  -1   8  -6  159.42   11.67
  -7  -1  -6  168.49   11.46
   8  -7  -6  161.61   12.15
  -1   8  -6  175.11   16.68
   8  -7  -6  157.16   14.46
   8  -7  -6  159.68   12.53
  -1   8  -3  828.17   19.53
  -1   8  -3  772.80   23.12
  -7  -1  -3  818.17   16.49
   8  -7  -3  774.16   22.74
  -1   8  -3  831.04   22.78
   8  -7  -3  803.64   21.14
  -7  -1  -3  810.28   19.26
  -7  -1  -3  789.53   21.73
  -1   8  -3  777.89   26.23
   8  -7  -3  811.16   26.38
   8  -7  -3  797.65   23.11
  -7  -1   0   73.52    7.46
  -7  -1   0   73.13    8.14
  -1   8   0   72.63    7.04
   8  -7   0   74.52    8.70
   8  -7   0   74.68    8.52
   8  -7   0   72.62    5.62
  -7  -1   0   82.07    8.31
   8  -7   0   71.04    7.90
  -1   8   0   54.94    7.51
  -1   8   0   59.78    6.96
  -1   8   3 1213.88   31.69
   8  -7   3 1200.14   31.34
  -7  -1   3 1237.78   29.77
  -7  -1   3 1262.19   30.81
  -1   8   6  237.91    8.94
  -7  -1   6  272.29   16.48
  -2   8 -10  421.49   24.90
   8  -6 -10  420.71   19.99
  -6  -2 -10  416.50   28.50
  -6  -2 -10  438.99   21.52
  -2   8 -10  462.75   21.67
   8  -6 -10  503.47   35.89
   8  -6 -10  470.97   25.03
  -2   8 -10  450.81   30.94
  -2   8 -10  425.93   29.49
  -6  -2  -7  580.69   27.40
  -2   8  -7  517.08   22.23
  -2   8  -7  598.01   22.88
  -6  -2  -7  577.62   20.34
   8  -6  -7  587.07   22.34
   8  -6  -7  516.21   25.44
   8  -6  -7  609.08   23.74
  -6  -2  -7  623.18   21.05
   8  -6  -7  590.34   31.48
  -2   8  -7  609.73   29.57
  -2   8  -4  178.61   12.33
  -6  -2  -4  182.51    6.58
  -6  -2  -4  192.24    9.74
  -2   8  -4  195.64   15.23
   8  -6  -4  195.55   12.98
  -2   8  -4  176.28   10.86
  -2   8  -4  176.75   12.39
  -6  -2  -4  193.65   12.93
   8  -6  -4  173.72   11.66
   8  -6  -4  210.75   13.16
   8  -6  -1 1442.82   27.07
  -6  -2  -1 1452.29   23.87
  -2   8  -1 1463.18   25.90
  -6  -2  -1 1450.85   26.12
  -6  -2  -1 1458.95   24.83
   8  -6  -1 1391.59   28.00
  -2   8  -1 1456.62   23.75
   8  -6  -1 1470.59   26.60
  -2   8   2 1142.94   31.03
  -6  -2   2 1278.17   28.14
  -2   8   2 1246.22   28.50
  -2   8   2 1259.42   15.41
  -6  -2   2 1126.70   26.78
   8  -6   2 1338.87   30.11
  -2   8   5  214.08    9.55
  -6  -2   5  207.14   13.52
  -6  -2   5  210.36   15.92
  -2   8   8   87.78    4.23
  -3   8 -11   44.73   14.65
  -5  -3 -11   32.06   13.40
   8  -5 -11   24.41   18.64
  -3   8 -11   28.34   11.27
  -3   8 -11   43.32   15.17
   8  -5 -11   44.97   12.12
  -3   8  -8  322.06   17.22
   8  -5  -8  297.05   17.11
  -5  -3  -8  344.08   23.28
   8  -5  -8  303.93   19.05
  -3   8  -8  268.44   21.93
  -3   8  -8  298.46   22.38
  -5  -3  -8  305.80   15.57
   8  -5  -8  277.69   24.66
  -5  -3  -8  292.84   15.16
  -3   8  -8  308.26   19.65
  -3   8  -5  456.48   18.33
   8  -5  -5  484.08   19.07
  -5  -3  -5  465.71   14.23
  -5  -3  -5  484.41   21.68
   8  -5  -5  431.62   18.67
  -3   8  -5  442.11   18.56
   8  -5  -5  494.67   20.09
  -3   8  -5  481.99   23.77
  -3   8  -2  292.32   10.67
  -5  -3  -2  265.96   12.91
  -5  -3  -2  285.34    9.68
   8  -5  -2  266.49   12.69
   8  -5  -2  246.81   11.08
  -3   8  -2  266.10   12.22
   8  -5  -2  261.05   13.35
  -5  -3  -2  260.15   10.05
   8  -5   1  672.56   10.02
  -5  -3   1  653.85   20.31
  -5  -3   1  688.02   19.31
   8  -5   1  694.51   20.56
  -5  -3   1  669.44   19.30
  -3   8   1  709.03   19.00
   8  -5   1  680.50   18.40
  -3   8   1  660.03   21.53
   8  -5   1  686.24   20.09
  -5  -3   4 1025.91   30.16
  -3   8   4  979.05   21.00
  -5  -3   4  992.80   26.78
  -3   8   4 1039.43   32.22
  -3   8   7  250.93   10.36
  -5  -3   7  258.88   16.87
  -4   8 -12   14.53   13.21
   8  -4 -12   31.70   20.14
  -4   8 -12    7.08   11.65
  -4   8 -12   15.93   14.37
   8  -4 -12    9.60   11.74
  -4  -4 -12   29.39   16.19
  -4   8  -9  340.61   24.66
  -4  -4  -9  352.89   25.76
   8  -4  -9  361.15   19.44
  -4   8  -9  393.15   23.79
  -4   8  -9  321.82   16.75
  -4  -4  -9  359.08   16.51
  -4  -4  -9  311.76   15.93
   8  -4  -9  349.76   28.37
  -4   8  -9  320.25   24.71
   8  -4  -9  332.24   21.49
   8  -4  -6  117.10   11.94
  -4   8  -6  113.46   14.43
  -4  -4  -6  109.15    7.91
  -4  -4  -6  114.18    7.88
   8  -4  -6  115.67   11.55
  -4  -4  -6  122.69   13.46
   8  -4  -6  108.48   10.74
  -4   8  -6  109.51   11.67
  -4   8  -6  113.56    9.98
  -4   8  -3 1701.51   27.09
   8  -4  -3 1695.67   27.14
  -4  -4  -3 1712.68   19.14
  -4  -4  -3 1655.50   33.16
   8  -4  -3 1683.66   32.09
  -4   8  -3 1622.02   30.85
   8  -4  -3 1708.66   32.68
  -4   8   0 1822.59   30.81
   8  -4   0 1847.75   30.19
  -4  -4   0 1867.88   27.35
  -4   8   0 1831.33   24.84
   8  -4   0 1861.96   29.42
  -4  -4   0 1887.00   29.25
  -4  -4   0 1816.38   30.05
   8  -4   0 1825.10   23.90
  -4   8   3  962.84   21.85
  -4   8   3 1024.15   29.56
  -4  -4   3 1010.07   25.76
  -4  -4   3 1026.95   28.28
  -4   8   3 1003.61   30.11
  -4   8   3 1028.87   15.82
   8  -4   3 1011.24   19.40
  -4   8   6  207.70   10.34
  -4  -4   6  229.76   15.01
  -4   8   6  222.96   10.63
  -4   8   9  159.50    7.67
   8  -3 -10  125.18   15.73
  -5   8 -10  150.34   18.75
  -3  -5 -10  125.04   17.92
   8  -3 -10  100.47   19.89
  -3  -5 -10  110.74   10.30
  -5   8 -10  122.81   16.38
  -5   8 -10  123.90   17.70
  -5   8 -10  107.92   10.11
   8  -3 -10  119.70   13.41
  -3  -5  -7  202.21   18.18
   8  -3  -7  183.02   14.04
  -5   8  -7  174.88   15.44
  -3  -5  -7  162.69    9.02
   8  -3  -7  200.97   16.33
   8  -3  -7  194.45   14.73
  -5   8  -7  153.00   15.49
  -5   8  -7  174.64   12.25
  -5   8  -7  177.79   15.97
  -3  -5  -7  156.76    9.28
   8  -3  -4 1193.10   29.11
   8  -3  -4 1234.28   30.24
   8  -3  -4 1292.19   24.72
  -5   8  -4 1286.66   30.70
  -3  -5  -4 1270.68   32.86
  -3  -5  -1 1109.04   21.77
  -3  -5  -1 1078.52   17.79
  -5   8  -1 1064.78   23.85
   8  -3  -1 1114.02   20.38
   8  -3  -1 1144.35   24.75
   8  -3  -1 1085.54   23.95
  -5   8  -1 1095.81   15.73
  -3  -5  -1 1078.17   23.75
  -3  -5   2  404.28   16.05
  -3  -5   2  390.95   17.11
   8  -3   2  389.07   13.06
  -3  -5   2  389.72    8.27
  -5   8   2  369.53   16.34
   8  -3   2  394.92   15.74
   8  -3   2  410.47   11.36
  -5   8   2  401.28   11.88
  -3  -5   2  399.29   16.70
  -5   8   2  370.90   17.19
  -5   8   2  397.02   14.82
  -5   8   5  509.72   14.76
   8  -3   5  498.80   19.70
  -3  -5   5  487.71   23.58
  -3  -5   5  500.96   20.11
  -5   8   5  514.05   16.57
  -5   8   8  151.25    9.86
   8  -2 -11  140.38   14.67
  -6   8 -11  152.57   21.04
   8  -2 -11  126.79   16.53
   8  -2 -11  128.44   17.96
  -6   8 -11  138.39   18.80
  -6   8 -11  126.39   19.40
  -2  -6 -11  117.60   20.85
   8  -2 -11  126.40   22.57
   8  -2  -8  394.38   20.28
  -2  -6  -8  386.92   26.61
  -6   8  -8  434.81   24.81
  -2  -6  -8  421.24   13.67
   8  -2  -8  404.87   23.46
  -6   8  -8  406.65   17.27
   8  -2  -8  404.25   21.12
  -6   8  -8  388.66   22.45
  -6   8  -8  377.01   24.77
  -2  -6  -5   88.23   11.66
  -6   8  -5  100.25   11.30
   8  -2  -5   87.22   10.48
   8  -2  -5  107.24    8.40
   8  -2  -5  100.10   10.72
  -6   8  -2 1545.30   30.70
   8  -2  -2 1631.11   21.55
   8  -2  -2 1527.87   30.59
  -2  -6  -2 1483.04   15.73
  -2  -6  -2 1622.27   31.70
  -2  -6  -2 1574.66   35.16
  -6   8  -2 1558.57   16.50
   8  -2  -2 1584.88   30.68
  -6   8   1 1716.54   28.11
  -2  -6   1 1870.10   31.86
  -6   8   1 1757.25   32.65
  -2  -6   1 1885.34   31.74
   8  -2   1 1830.32   24.28
  -6   8   1 1788.85   30.60
  -6   8   1 1789.08   27.70
   8  -2   1 1804.83   30.11
   8  -2   1 1752.40   31.16
  -2  -6   1 1913.43   24.49
   8  -2   1 1825.07   28.47
   8  -2   4  148.43   10.71
  -6   8   4  173.57    9.31
  -6   8   4  162.11   14.18
  -2  -6   4  178.84   14.50
  -6   8   4  155.35   10.24
  -2  -6   4  176.76   12.53
  -6   8   7  858.83   22.99
  -6   8   7  909.06   25.31
  -7   8 -12   12.79   13.26
   8  -1 -12    5.95   17.09
  -7   8 -12   42.04   15.50
  -7   8 -12   18.10   13.13
   8  -1 -12   17.33   13.48
  -1  -7 -12   10.81   15.52
  -7   8  -9  685.29   20.72
   8  -1  -9  793.58   42.19
  -7   8  -9  717.77   34.74
  -1  -7  -9  798.15   39.06
  -7   8  -9  786.60   35.75
   8  -1  -9  814.11   34.53
  -7   8  -9  809.13   34.16
   8  -1  -9  814.79   30.08
  -1  -7  -9  719.83   17.56
   8  -1  -6   61.31    9.53
  -7   8  -6   59.33    9.09
  -1  -7  -6   67.01   12.39
  -7   8  -6   54.04   11.37
  -7   8  -6   54.11    7.38
   8  -1  -6   48.10    7.03
   8  -1  -6   65.24   11.21
  -1  -7  -6   46.04    3.24
   8  -1  -3 2003.49   36.95
  -7   8  -3 2060.32   38.75
  -1  -7  -3 2086.20   39.89
   8  -1  -3 2086.01   21.68
   8  -1  -3 2005.90   37.83
  -1  -7  -3 2055.39   45.55
   8  -1   0  168.10   10.83
   8  -1   0  169.84    9.84
  -1  -7   0  186.01   10.72
  -7   8   0  167.44   11.17
  -1  -7   0  166.53   10.28
  -1  -7   0  183.62    9.82
   8  -1   0  171.07   10.70
  -7   8   0  181.58   10.68
  -7   8   0  188.51    8.05
  -7   8   0  179.56   11.10
   8  -1   3  796.96   20.72
  -1  -7   3  816.25   16.67
  -1  -7   3  811.58   23.92
  -7   8   3  834.55   19.69
  -7   8   3  767.75   21.78
   8  -1   3  805.41   16.78
  -7   8   3  828.55   26.27
  -7   8   6  423.12   17.34
  -7   8   6  424.92   17.40
   8  -1   6  468.02   22.26
  -7   8   9  150.49   11.87
   8   0 -10   88.55   18.83
   8   0 -10  112.06   13.00
   8   0 -10  116.57   17.70
  -8   8 -10  112.23   16.81
   0  -8 -10  101.19   19.45
   8   0 -10  102.49   14.33
  -8   8 -10  127.33   16.48
  -8   8 -10   83.34   17.07
   0  -8  -7   11.31    2.42
  -8   8  -7   12.88    5.65
  -8   8  -7   16.43   10.20
   0  -8  -7   12.77    2.08
   0  -8  -7   37.56   11.86
   8   0  -7    7.65    7.66
   8   0  -7   15.72   10.20
  -8   8  -7    7.89    7.54
   8   0  -7   14.37    6.08
   8   0  -4  906.52   28.10
   8   0  -4  936.05   27.33
   8   0  -4  969.27   14.40
  -8   8  -4  998.84   30.22
   0  -8  -4 1010.64   31.27
  -8   8  -4  900.10   18.80
   0  -8  -4 1004.09   35.01
  -8   8  -1   -0.53    5.43
  -8   8  -1    2.86    6.42
   8   0  -1   18.11    5.73
   8   0  -1   10.04    6.47
   8   0  -1   12.76    6.36
  -8   8  -1    9.80    6.16
   0  -8  -1    5.77    6.01
   0  -8  -1    7.94    6.31
  -8   8   2 2164.54   38.20
   0  -8   2 2218.73   29.09
  -8   8   2 2160.04   32.82
  -8   8   2 2125.38   36.11
   8   0   2 2241.29   33.03
   0  -8   2 2142.58   36.72
   8   0   2 2195.13   33.45
   8   0   2 2073.17   29.55
  -8   8   5   10.87    6.05
  -8   8   5    8.66    5.49
   8   0   5    7.58    6.72
  -8   8   8  329.48   16.91
  -8   8   8  293.89   18.04
  -9   8 -11  267.73   25.06
   8   1 -11  219.24   19.35
   8   1 -11  266.37   30.46
   8   1 -11  257.60   24.83
   1  -9 -11  248.31   28.56
  -9   8 -11  312.95   28.42
  -9   8 -11  273.42   23.07
  -9   8  -8  581.65   30.50
   1  -9  -8  560.31   31.84
   8   1  -8  539.37   28.81
  -9   8  -8  504.43   17.53
   8   1  -8  535.09   19.28
   8   1  -8  554.99   25.45
   8   1  -8  523.35   20.09
  -9   8  -8  566.77   18.16
  -9   8  -8  564.43   25.52
  -9   8  -5  646.01   26.84
   8   1  -5  647.33   26.43
  -9   8  -5  605.65   19.40
   8   1  -5  602.04   23.90
  -9   8  -5  634.54   18.28
   1  -9  -5  611.31   27.59
   8   1  -5  602.95   12.06
  -9   8  -2   99.16   10.13
   8   1  -2   99.55    9.86
  -9   8  -2  113.48   10.06
  -9   8  -2  113.00   11.14
   1  -9  -2  100.33   11.29
   8   1  -2  100.84   10.50
   1  -9  -2  119.18   10.87
   8   1  -2   95.49   10.09
  -9   8   1 1093.58   25.16
  -9   8   1 1060.89   26.40
   8   1   1 1059.68   23.49
   8   1   1 1131.12   24.14
  -9   8   1 1049.41   25.83
   8   1   1 1054.44   23.74
   1  -9   1 1032.94   23.98
   1  -9   1 1099.63   23.31
   8   1   4   63.77    5.52
   1  -9   4   71.30    7.54
   8   1   4   73.51    8.93
  -9   8   4   72.00   10.44
  -9   8   4   63.70    8.25
  -9   8   4   74.00    8.50
  -9   8   7  841.58   28.20
  -9   8   7  879.89   27.59
 -10   8 -12   -9.33   14.14
   2 -10 -12   13.53   17.61
 -10   8 -12   38.15   16.83
   8   2 -12   -8.14   13.44
 -10   8 -12  -13.05   12.52
   8   2 -12   10.51   19.36
 -10   8  -9  453.64   14.52
 -10   8  -9  588.02   27.29
   2 -10  -9  502.22   33.41
   8   2  -9  554.01   26.87
   8   2  -9  506.15   19.23
   8   2  -9  561.87   31.59
 -10   8  -9  508.95   29.76
 -10   8  -9  508.53   31.25
 -10   8  -6   87.99    8.82
   8   2  -6   71.72    5.01
 -10   8  -6   72.76    8.69
   2 -10  -6   81.12   14.41
   8   2  -6   77.45   10.91
   8   2  -6   92.48    5.55
   8   2  -6   82.20   12.92
 -10   8  -6   93.72   13.92
   2 -10  -3  750.37   29.09
   8   2  -3  774.87   26.19
 -10   8  -3  804.17   22.81
 -10   8  -3  760.79   26.60
 -10   8  -3  791.83   26.94
   8   2  -3  741.80   24.80
   2 -10  -3  784.35   26.76
 -10   8   0 1438.74   31.17
   8   2   0 1319.36   27.58
   2 -10   0 1426.55   29.88
   8   2   0 1379.95   29.08
 -10   8   0 1360.22   30.49
   8   2   0 1344.76   29.21
   2 -10   0 1412.12   28.10
 -10   8   0 1438.95   30.60
   2 -10   3  668.36   19.92
 -10   8   3  714.71   24.05
   8   2   3  693.11   22.53
 -10   8   3  712.38   22.11
 -10   8   3  698.84   23.11
   8   2   3  683.40   17.28
   8   2   3  662.29   19.24
 -10   8   6  301.88   16.94
 -10   8   6  304.81   17.21
 -11   8 -10  163.68   20.17
 -11   8 -10  178.99   23.39
 -11   8 -10  207.00   18.78
   8   3 -10  195.39   18.29
   3 -11 -10  220.86   25.36
   8   3 -10  225.34   23.76
 -11   8  -7  150.08   10.66
   8   3  -7  165.46   15.47
 -11   8  -7  133.20   11.66
   8   3  -7  123.54    6.63
 -11   8  -7  175.30   19.02
   8   3  -7  150.83    7.51
   8   3  -7  121.68   15.69
   3 -11  -7  168.18   19.30
   8   3  -4  157.22   14.96
 -11   8  -4  157.04   14.86
 -11   8  -4  141.43   10.81
   8   3  -4  137.44   13.03
 -11   8  -4  145.36   13.82
 -11   8  -4  152.60    7.17
   3 -11  -4  130.30   13.87
   3 -11  -1  285.80   15.86
 -11   8  -1  268.84   14.72
 -11   8  -1  312.43   16.33
 -11   8  -1  281.40   15.91
   8   3  -1  300.73   16.06
   3 -11  -1  318.90   15.04
   8   3  -1  330.94   15.98
   8   3  -1  291.42   15.62
   8   3   2  987.46   22.76
 -11   8   2  989.76   27.76
   3 -11   2  960.93   24.08
   8   3   2  979.09   22.96
   3 -11   2  985.94   24.69
 -11   8   2  931.61   25.53
 -11   8   2 1007.48   26.71
   8   3   2  984.34   26.68
 -11   8   5   78.49   10.13
 -11   8   5   96.93   10.90
   8   3   5   77.87   10.96
   3 -11   5   96.63   10.49
 -11   8   5   86.18   11.43
   8   3   5   85.78    5.46
   8   4 -11  180.28   19.20
 -12   8 -11  197.44   19.83
   4 -12 -11  189.00   25.93
 -12   8 -11  169.77   23.59
   8   4 -11  191.23   23.82
 -12   8 -11  179.65   21.26
   8   4  -8   71.72    5.47
 -12   8  -8   79.74   16.34
   4 -12  -8  105.91   18.64
   8   4  -8  106.47   14.70
 -12   8  -8   76.05    7.87
 -12   8  -8   82.01   10.96
   8   4  -8   81.79    6.03
   8   4  -8   88.42   15.75
 -12   8  -8   89.63    8.12
 -12   8  -5 1125.02   27.68
 -12   8  -5 1220.59   23.08
   8   4  -5 1224.69   38.40
   8   4  -5 1157.25   34.79
   4 -12  -5 1217.16   39.65
 -12   8  -5 1191.33   38.75
   8   4  -2  277.11   16.34
   8   4  -2  288.69   16.78
 -12   8  -2  271.08   16.57
   4 -12  -2  275.74   17.81
 -12   8  -2  297.41   15.46
 -12   8  -2  271.17   17.20
   8   4  -2  279.07   17.01
   4 -12  -2  281.34   16.25
 -12   8   1 2198.73   38.86
   8   4   1 2294.32   38.31
   4 -12   1 2326.82   39.96
 -12   8   1 2268.03   41.08
   4 -12   1 2171.13   34.45
   8   4   1 2311.60   40.45
   8   4   1 2176.86   34.99
 -12   8   1 2276.62   42.21
 -12   8   4  329.37   18.32
 -12   8   4  300.62   16.80
   4 -12   4  304.06   16.39
 -12   8   4  333.72   18.27
   8   4   4  319.56   12.39
   8   4   4  304.51   17.99
   5 -13 -12   43.36   19.39
 -13   8 -12   35.76   15.07
   8   5 -12   17.66   15.76
   8   5 -12   23.64   19.89
 -13   8 -12   42.39   18.27
   5 -13  -9  376.01   31.16
   8   5  -9  368.11   28.04
 -13   8  -9  350.33   29.01
 -13   8  -9  377.72   21.51
   8   5  -9  386.10   25.26
   8   5  -6  158.93   17.25
   8   5  -6  185.92   16.51
   5 -13  -6  219.61   19.92
 -13   8  -6  173.64   17.90
 -13   8  -6  195.14   11.63
 -13   8  -6  153.70   11.51
 -13   8  -3  159.98    6.21
 -13   8  -3  167.68   12.43
   5 -13  -3  197.10   14.94
   8   5  -3  181.64   15.40
 -13   8  -3  204.44   16.44
 -13   8  -3  171.53   14.70
   8   5  -3  173.36   15.36
   5 -13  -3  147.12   14.95
   8   5  -3  202.13   15.99
   5 -13   0 1262.23   27.63
   8   5   0 1248.55   31.29
   8   5   0 1240.84   29.27
   8   5   0 1263.34   31.55
 -13   8   0 1242.89   32.01
 -13   8   0 1271.33   32.52
 -13   8   0 1225.83   30.88
   5 -13   0 1238.57   31.79
   8   5   3  500.20   17.51
   8   5   3  503.20   22.15
 -13   8   3  522.04   20.85
 -13   8   3  486.59   21.34
   8   5   3  476.82   16.32
   5 -13   3  513.37   20.85
 -13   8   3  489.15   22.24
   8   5   6  282.55    8.22
   5 -13   6  290.40   18.88
   8   6 -10   31.60   15.99
 -14   8 -10   39.99   15.56
   8   6 -10   13.84   12.18
   6 -14 -10    5.11   14.29
 -14   8 -10   33.56   10.83
   8   6  -7  312.59   24.72
 -14   8  -7  328.53   15.64
   6 -14  -7  306.77   25.22
   8   6  -7  321.56   21.75
 -14   8  -7  348.41   16.93
 -14   8  -7  330.22   25.75
   8   6  -4  173.03   16.49
 -14   8  -4  163.73    7.97
   8   6  -4  147.87   15.18
   6 -14  -4  153.21   15.71
 -14   8  -4  149.96   15.45
 -14   8  -4  141.83   11.79
   8   6  -1 1702.80   38.86
 -14   8  -1 1702.85   39.10
   8   6  -1 1665.16   36.93
 -14   8  -1 1699.79   39.30
   6 -14  -1 1690.48   39.59
 -14   8  -1 1691.68   37.98
   8   6  -1 1688.02   38.48
   6 -14  -1 1743.24   35.35
   6 -14   2  299.33   16.64
   8   6   2  283.72   17.15
 -14   8   2  296.09   17.46
   8   6   2  314.13   15.52
   6 -14   2  307.06   14.55
 -14   8   2  319.09   16.33
   8   6   2  288.75   13.44
 -14   8   2  324.56   18.59
   6 -14   5  348.96   19.93
 -14   8   5  341.04   19.43
 -15   8 -11   71.92   14.61
   8   7 -11   56.64   15.94
 -15   8 -11   35.55   17.06
   8   7 -11   76.04   19.71
 -15   8 -11   91.96   17.95
   7 -15 -11   79.73   21.33
   8   7  -8   87.41   18.57
 -15   8  -8  111.13   12.33
 -15   8  -8   81.74   16.82
   8   7  -8   89.66   14.53
   7 -15  -8  116.89   18.90
 -15   8  -5  637.45   22.94
   7 -15  -5  675.05   32.19
 -15   8  -5  687.89   18.27
 -15   8  -5  701.72   32.42
   8   7  -5  644.90   28.93
   8   7  -5  672.36   31.32
   7 -15  -2  216.54   15.22
 -15   8  -2  204.42   16.17
 -15   8  -2  198.12   14.58
 -15   8  -2  192.27   15.12
   8   7  -2  217.68   16.39
   8   7  -2  219.85   16.40
   8   7   1 1230.82   33.89
   7 -15   1 1353.37   28.22
   8   7   1 1285.75   33.01
 -15   8   1 1317.20   32.25
 -15   8   1 1300.45   36.87
   7 -15   1 1266.93   34.08
 -15   8   1 1304.94   35.23
   8   7   1 1356.25   29.79
   8   7   4  225.46   12.52
 -15   8   4  239.94   15.54
   7 -15   4  227.05   16.62
   8   7   4  227.84   11.36
 -16   8  -9   36.81   14.44
   8   8  -9   37.72   13.00
   8 -16  -9   61.70   18.48
   8   8  -9   32.67   14.76
 -16   8  -9   51.92   11.16
   8   8  -6  247.64   20.66
   8 -16  -6  272.36   23.87
 -16   8  -6  271.57   23.97
 -16   8  -6  271.13   13.95
 -16   8  -6  256.12   15.50
   8   8  -6  297.51   23.96
   8   8  -3   24.60    8.25
 -16   8  -3   19.13    7.38
 -16   8  -3   18.96    8.94
   8 -16  -3   23.79    8.63
 -16   8  -3   23.72    4.67
   8   8  -3   38.12   10.64
   8   8   0    9.97    8.27
   8 -16   0   -8.84    7.29
 -16   8   0   -0.02    7.46
 -16   8   0   -7.47    7.63
   8   8   0    8.81    6.33
   8 -16   0    1.74    5.74
   8   8   3    3.46    6.06
   8   8   3    5.53    5.38
 -16   8   3   10.09    6.58
   8 -16   3   -0.59    5.66
 -16   8   6  331.83   19.97
   8   8   6  347.23   12.96
 -17   8 -10   33.97   15.51
   9 -17 -10   35.99   16.81
 -17   8 -10   29.41    9.88
   8   9 -10   36.91   14.18
   8   9 -10   34.29   15.80
   9 -17  -7  317.52   27.54
   8   9  -7  342.88   24.87
 -17   8  -7  293.29   16.44
 -17   8  -7  336.13   28.23
   8   9  -7  344.09   26.68
 -17   8  -7  364.42   17.71
 -17   8  -4   58.99    6.68
   8   9  -4   53.18   12.05
   8   9  -4   64.04   13.24
   9 -17  -4   71.35   12.77
 -17   8  -4   67.29   10.56
 -17   8  -4   61.73   13.78
   8   9  -1  846.13   31.71
 -17   8  -1  944.05   32.51
   9 -17  -1  902.12   27.59
   8   9  -1  915.07   29.98
   9 -17   2  354.43   15.30
 -17   8   2  356.20   18.02
   8   9   2  333.48   18.45
   8   9   2  336.22   15.32
   8   9   5 1036.62   25.95
 -17   8   5 1027.58   32.50
   7   9 -11   53.36   15.56
   7   9 -11   52.54   19.91
   9 -16 -11   40.91   19.26
 -16   7 -11   62.06   20.06
 -16   7 -11   60.28   16.54
   7   9  -8  117.45   16.86
   7   9  -8  135.68   19.71
   9 -16  -8  128.16   20.44
 -16   7  -8  151.70   13.59
 -16   7  -8  135.70   19.94
   7   9  -5  144.41   16.07
   9 -16  -5   94.14   15.35
 -16   7  -5  114.90    9.38
   7   9  -5   83.10   14.29
 -16   7  -5  113.85   16.45
 -16   7  -5  123.27   11.83
 -16   7  -2  425.87   20.88
   7   9  -2  454.30   23.07
 -16   7  -2  422.52   22.76
 -16   7  -2  386.53   14.77
   7   9  -2  434.31   23.12
   9 -16  -2  409.98   20.43
   7   9   1  331.65   18.24
   7   9   1  348.48   16.15
 -16   7   1  317.74   16.90
   9 -16   1  341.10   14.27
   7   9   4  830.44   24.34
   7   9   4  804.03   18.75
 -16   7   4  830.37   26.56
   7   9   7    8.20    2.83
 -15   6 -12   58.03   21.97
   9 -15 -12   39.79   19.89
   6   9 -12   29.48   17.80
   6   9  -9   42.09   12.76
   6   9  -9   48.00   14.89
   9 -15  -9   12.03   13.56
 -15   6  -9   48.06   11.00
 -15   6  -9   27.23   14.51
   6   9  -6  297.99   21.65
 -15   6  -6  284.13   14.84
   6   9  -6  300.12   23.12
 -15   6  -6  271.00   23.46
   9 -15  -6  257.50   13.16
 -15   6  -6  305.45   16.21
   9 -15  -6  301.64   23.33
   6   9  -3  129.18   14.31
   6   9  -3  153.34   15.05
   9 -15  -3  160.38   15.40
 -15   6  -3  121.62   14.02
 -15   6  -3  138.28   12.23
 -15   6  -3  140.35    9.06
 -15   6   0  404.78   18.97
   9 -15   0  340.65   19.11
 -15   6   0  339.50   18.93
   6   9   0  370.35   17.46
 -15   6   0  377.58   20.00
   6   9   0  366.98   19.26
   9 -15   0  408.66   15.88
   6   9   0  355.43   19.28
   6   9   3  307.17   15.65
 -15   6   3  278.03   14.64
   6   9   3  278.10   11.39
   9 -15   3  268.07   17.83
   6   9   6   46.39    5.93
 -14   5 -10   40.60   12.01
 -14   5 -10   33.64   17.85
   9 -14 -10    4.05   14.71
   5   9 -10   50.76   14.25
   5   9 -10   42.00   16.32
   9 -14  -7  446.11   29.47
   9 -14  -7  390.81   16.28
 -14   5  -7  398.54   29.23
 -14   5  -7  354.70   13.46
   5   9  -7  384.53   24.39
   5   9  -7  393.32   27.28
 -14   5  -7  376.49   19.93
 -14   5  -4   97.78   13.52
   5   9  -4   65.35   11.58
 -14   5  -4   94.21    8.82
 -14   5  -4   90.92    9.87
   5   9  -4   60.94    4.79
   9 -14  -4   79.25    9.23
 -14   5  -4   63.99   10.53
   5   9  -4   74.17   12.62
   9 -14  -4   83.41   12.84
   5   9  -1 1769.04   38.88
 -14   5  -1 1755.71   39.31
   5   9  -1 1778.91   37.84
   5   9  -1 1782.21   40.14
   9 -14  -1 1764.22   33.77
 -14   5  -1 1800.64   39.48
 -14   5  -1 1753.62   32.36
   9 -14  -1 1633.91   39.54
 -14   5  -1 1818.25   39.32
   5   9   2 1173.05   23.22
 -14   5   2 1227.88   34.92
   5   9   2 1219.46   29.84
   5   9   2 1239.13   34.68
 -14   5   2 1177.23   33.41
   9 -14   2 1185.53   21.16
   9 -14   2 1141.64   33.20
 -14   5   2 1166.39   26.85
   5   9   5  543.65   16.94
 -14   5   5  532.88   20.07
 -13   4 -11   13.06   15.54
   9 -13 -11   11.36   15.48
   4   9 -11   21.15   13.12
   4   9 -11    5.38   14.20
 -13   4 -11   18.87   11.66
 -13   4 -11   22.02   12.41
   4   9  -8  109.70   17.91
   9 -13  -8   72.33   16.58
 -13   4  -8  102.18   17.30
   4   9  -8   93.33    7.74
   4   9  -8   98.32   14.25
   9 -13  -8  100.45    9.84
 -13   4  -8  121.88   13.92
 -13   4  -5   14.33   10.45
   9 -13  -5    6.62    5.49
   4   9  -5    2.03    9.17
 -13   4  -5    9.80    6.02
   9 -13  -5   -3.82    9.51
   4   9  -5    6.64    3.10
 -13   4  -5   10.91    6.02
 -13   4  -5   -0.36    6.99
   4   9  -5   -0.19    7.94
   4   9  -2  577.08   17.71
 -13   4  -2  576.20   24.26
 -13   4  -2  621.22   21.95
   9 -13  -2  612.48   22.52
 -13   4  -2  606.29   17.94
 -13   4  -2  605.27   23.01
   4   9  -2  530.09   22.78
   9 -13  -2  587.98   24.36
   4   9  -2  577.37   23.04
   4   9  -2  599.57   24.31
 -13   4   1  336.86   18.33
   9 -13   1  306.24   17.30
 -13   4   1  289.37   16.68
   4   9   1  307.37   17.02
   4   9   1  278.68   12.87
   4   9   1  314.01   16.23
 -13   4   1  315.92   14.45
   9 -13   1  300.98   10.62
   4   9   4  362.06   14.88
 -13   4   4  353.62   14.87
   9 -13   4  352.22   20.46
   3   9 -12   76.09   19.67
   3   9 -12   69.95   19.50
 -12   3 -12   94.30   22.76
   9 -12 -12  105.77   24.08
 -12   3 -12   68.91   16.74
 -12   3  -9  -12.21   13.16
   3   9  -9    4.02   10.33
   3   9  -9   -9.78   14.00
   3   9  -9    1.95    6.14
   9 -12  -9   13.91   14.57
 -12   3  -9   19.10   10.34
   9 -12  -9    3.20    7.07
   9 -12  -6  431.12   26.87
   3   9  -6  419.40   26.13
 -12   3  -6  387.38   21.04
 -12   3  -6  383.55   12.77
   3   9  -6  360.16   13.14
 -12   3  -6  337.96   24.53
   3   9  -6  370.30   21.99
 -12   3  -6  369.34   18.83
   9 -12  -6  416.37   17.18
 -12   3  -3  115.78   11.64
   3   9  -3   98.27   12.41
   9 -12  -3  114.28   10.20
 -12   3  -3  111.48    8.58
   3   9  -3   94.99   11.15
 -12   3  -3   96.66   12.88
   9 -12  -3  139.60   13.22
   9 -12  -3  108.06   12.48
 -12   3  -3  128.13   10.30
   3   9  -3  104.97    7.64
   3   9  -3   99.32   11.98
 -12   3   0  370.20   17.51
   3   9   0  375.38   15.57
 -12   3   0  368.78   17.52
 -12   3   0  410.41   17.04
   3   9   0  370.10   17.52
   9 -12   0  367.72   12.63
   3   9   0  356.22   16.99
   9 -12   0  366.19   17.53
   9 -12   3    1.99    6.33
 -12   3   3   11.31    4.90
 -12   3   3    5.22    7.15
   3   9   3    9.15    2.82
 -12   3   3   -0.15    6.58
   3   9   3    8.40    5.57
   3   9   3    2.84    7.02
   3   9   6  220.26    8.98
   3   9   6  238.25    9.28
   9 -11 -10   19.33   17.25
   2   9 -10   27.06   11.17
   9 -11 -10   28.16    9.54
 -11   2 -10   30.41   15.62
 -11   2 -10   28.28   12.76
   2   9 -10   33.29   14.21
 -11   2 -10   15.36   11.27
   2   9 -10   35.90    9.23
   9 -11  -7  801.80   24.68
   2   9  -7  811.75   22.54
 -11   2  -7  823.55   38.12
 -11   2  -7  698.53   27.83
   2   9  -7  792.72   35.67
   2   9  -7  822.10   31.13
 -11   2  -7  810.42   29.66
   9 -11  -7  808.38   37.83
   2   9  -4  738.81   29.08
   2   9  -4  703.96   17.10
 -11   2  -4  680.00   18.75
 -11   2  -4  703.46   21.58
   2   9  -4  708.53   26.59
   2   9  -4  713.47   26.33
 -11   2  -4  745.80   24.32
   9 -11  -4  683.63   27.80
   9 -11  -4  624.91   26.17
   9 -11  -4  691.72   21.26
   9 -11  -1 1845.13   37.24
 -11   2  -1 1775.46   36.33
   2   9  -1 1869.17   37.26
   2   9  -1 1774.96   35.31
   2   9  -1 1857.61   35.38
   9 -11  -1 1782.20   30.54
 -11   2  -1 1841.12   34.96
   2   9  -1 1776.82   32.41
 -11   2  -1 1818.19   31.28
 -11   2  -1 1808.69   34.95
   2   9   2  542.03   21.74
 -11   2   2  576.14   22.20
   2   9   2  575.36   19.14
   9 -11   2  610.01   22.73
   2   9   2  573.55   13.23
 -11   2   2  581.71   15.00
 -11   2   2  584.07   22.43
   2   9   5  782.58   18.22
   1   9 -11   65.53   17.35
 -10   1 -11   74.80   16.07
 -10   1 -11   38.24   12.17
 -10   1 -11   63.42   18.32
   9 -10 -11   44.65   18.97
   1   9 -11   61.81   13.02
   1   9 -11   56.99   16.99
 -10   1  -8   32.28   12.47
   1   9  -8   38.04   13.24
   9 -10  -8   53.53   15.53
   1   9  -8   32.19   10.31
   1   9  -8   31.25    8.54
 -10   1  -8   27.95   10.61
   9 -10  -8   32.19    8.38
 -10   1  -8   11.16    8.14
   1   9  -5  281.93   18.95
   9 -10  -5  257.62   19.61
   9 -10  -5  224.64   17.04
   1   9  -5  282.04   12.31
 -10   1  -5  257.62    9.96
 -10   1  -5  274.02   20.89
 -10   1  -5  272.07   15.52
 -10   1  -5  265.19   15.11
   1   9  -5  247.91   18.81
   9 -10  -5  250.43   13.74
   1   9  -5  265.48   17.29
   9 -10  -5  236.78   15.29
   1   9  -2  562.17   22.08
   1   9  -2  545.95   19.65
 -10   1  -2  511.79   16.61
 -10   1  -2  531.78   22.28
   1   9  -2  523.05   16.67
   1   9  -2  512.90   20.51
   9 -10  -2  526.23   18.69
   9 -10  -2  533.18   20.53
 -10   1  -2  532.35   17.82
   9 -10  -2  547.32   21.16
 -10   1  -2  529.15   18.86
 -10   1   1  216.41    9.93
 -10   1   1  238.06   14.44
   1   9   1  186.98   12.12
   1   9   1  189.44   13.97
   1   9   1  197.86    9.59
   1   9   1  204.58   12.94
   9 -10   1  210.13   13.66
 -10   1   1  217.30   13.12
   9 -10   1  189.15    6.03
   9 -10   4  171.66   15.09
 -10   1   4  166.81   14.11
   1   9   4  169.12    9.88
 -10   1   4  171.44   13.78
   1   9   7   44.64    2.86
   1   9   7   37.63    2.84
   9  -9 -12   61.71   21.40
   0   9 -12   71.30   19.07
  -9   0 -12   68.18   21.98
   0   9 -12   59.16   16.99
  -9   0 -12   97.34   20.41
  -9   0  -9    7.52   12.17
  -9   0  -9   10.00    8.65
   9  -9  -9    9.35    7.90
   0   9  -9    6.55    7.22
   0   9  -9    5.25   11.05
   0   9  -9    7.24    8.95
   9  -9  -9   14.61   14.84
  -9   0  -9   16.66   10.73
   9  -9  -6  437.95   27.69
   0   9  -6  413.05   24.76
   0   9  -6  363.31   16.18
   9  -9  -6  364.67   18.70
  -9   0  -6  390.64   18.31
   9  -9  -6  371.73   17.18
   9  -9  -6  349.08   21.46
  -9   0  -6  386.66   20.08
   0   9  -6  329.47   18.78
   9  -9  -3   10.58    8.24
   0   9  -3    8.22    5.53
   9  -9  -3   12.82    7.08
   9  -9  -3   17.17    6.70
   9  -9  -3    7.27    6.98
   0   9  -3   13.28    7.53
  -9   0  -3   16.06    6.18
  -9   0  -3    7.86    4.45
  -9   0  -3   15.25    6.91
   0   9  -3   15.74    5.29
   0   9  -3    8.62    8.57
  -9   0   0  805.79   22.22
   0   9   0  765.97   20.30
   9  -9   0  791.22   23.29
  -9   0   0  776.68   20.20
   9  -9   0  762.81   15.62
   0   9   0  743.98   21.66
   0   9   0  740.33   22.93
  -9   0   0  829.17   22.80
  -9   0   0  848.50   23.42
   0   9   0  804.56   22.97
  -9   0   3   14.82    6.35
   9  -9   3   28.51    7.81
  -9   0   3    8.98    6.29
   0   9   3   19.00    7.31
  -9   0   3   16.39    2.69
   0   9   6  227.31    9.37
   0   9   6  218.70    8.97
  -1   9 -10   13.53    8.76
  -8  -1 -10   30.68   13.45
   9  -8 -10   15.52    9.71
  -1   9 -10   15.30    9.74
   9  -8 -10   27.39    8.94
   9  -8 -10   30.67   16.93
  -1   9 -10   15.75   12.50
  -8  -1 -10   21.97   14.05
  -8  -1 -10   12.60    9.17
  -1   9 -10   16.86   12.92
  -1   9  -7  911.33   30.58
  -1   9  -7  925.86   36.75
  -8  -1  -7  930.94   27.63
   9  -8  -7  854.86   27.28
   9  -8  -7  890.90   40.16
  -1   9  -7  905.34   27.72
   9  -8  -7  904.88   28.14
  -8  -1  -7  968.27   33.98
  -1   9  -4  102.42    8.49
   9  -8  -4   80.97   10.14
   9  -8  -4   84.92    9.74
   9  -8  -4   76.51   11.95
  -1   9  -4   75.71   10.05
  -8  -1  -4   89.06    6.17
  -1   9  -4  104.84   12.96
  -8  -1  -4  101.10    8.83
  -1   9  -4   83.60   10.02
  -8  -1  -4   91.44   10.04
   9  -8  -4   87.03   10.82
  -8  -1  -1 1112.86   24.64
   9  -8  -1 1073.60   23.77
  -1   9  -1 1068.90   23.50
  -1   9  -1 1063.31   26.14
  -8  -1  -1 1057.26   23.98
   9  -8  -1 1088.99   27.17
   9  -8  -1 1134.09   26.24
  -1   9  -1 1040.84   26.30
  -8  -1  -1 1142.50   24.42
   9  -8  -1 1089.98   25.90
  -1   9  -1 1114.46   25.06
  -1   9   2   80.46   12.16
  -8  -1   2   80.51    9.70
  -8  -1   2   81.09    4.00
  -1   9   2   70.92    8.93
   9  -8   2   85.98    9.61
  -1   9   2   77.94    4.97
  -8  -1   2   55.64    8.34
  -1   9   5  566.71   15.73
  -8  -1   5  572.01   23.40
  -2   9 -11  201.84   23.57
  -2   9 -11  206.39   24.06
  -7  -2 -11  236.87   28.83
   9  -7 -11  230.94   29.17
   9  -7 -11  221.92   19.57
  -2   9 -11  192.83   18.79
  -7  -2 -11  200.69   22.45
  -7  -2  -8  121.10   11.79
  -2   9  -8  165.48   14.40
  -7  -2  -8  137.67   11.84
   9  -7  -8  133.60   13.48
   9  -7  -8  172.99   14.39
  -2   9  -8  148.11   13.96
  -2   9  -8  176.60   19.26
  -7  -2  -8  170.67   16.84
   9  -7  -8  159.57   20.54
   9  -7  -5  633.82   21.96
  -2   9  -5  595.21   22.49
  -7  -2  -5  594.56   23.64
  -2   9  -5  621.55   24.20
  -2   9  -5  551.33   26.17
  -2   9  -5  578.73   20.05
   9  -7  -5  633.04   23.94
  -7  -2  -5  592.73   18.18
   9  -7  -5  610.82   22.40
   9  -7  -5  618.25   27.96
  -7  -2  -2  356.76   12.74
  -2   9  -2  315.45   13.58
   9  -7  -2  324.93   14.46
   9  -7  -2  328.08   15.79
  -7  -2  -2  334.01   12.63
  -2   9  -2  319.99   13.08
  -7  -2  -2  330.76   14.60
  -2   9  -2  322.90   15.37
   9  -7  -2  315.62   14.35
  -7  -2   1  765.14   23.08
  -7  -2   1  767.23   22.26
  -2   9   1  781.16   21.27
   9  -7   1  778.10   23.04
   9  -7   1  822.19   22.40
  -7  -2   1  821.01   22.79
  -7  -2   1  801.36   15.23
  -2   9   1  773.31   24.09
  -7  -2   4   25.33    7.52
  -2   9   4   21.74    8.35
  -2   9   4   30.12    5.81
   9  -7   4   35.48    9.18
  -7  -2   4   13.95    8.27
  -2   9   7  112.11    6.92
  -3   9 -12  162.65   23.59
   9  -6 -12  226.58   30.01
   9  -6 -12  152.76   18.76
  -3   9 -12  189.52   23.70
  -6  -3 -12  134.09   22.15
  -3   9 -12  141.21   18.59
  -6  -3 -12  201.15   28.21
  -6  -3  -9   91.00   10.28
  -3   9  -9   89.41   11.59
   9  -6  -9  121.33   13.24
  -3   9  -9   97.25   16.31
   9  -6  -9  101.23   13.89
  -3   9  -9  100.77   13.12
  -6  -3  -9  107.63   16.35
  -3   9  -9   79.67   15.25
   9  -6  -9  131.47   20.38
   9  -6  -6  523.47   21.48
   9  -6  -6  528.86   23.15
   9  -6  -6  473.78   20.74
  -3   9  -6  527.63   26.75
  -6  -3  -6  545.99   17.20
  -3   9  -6  528.32   21.78
   9  -6  -6  464.85   26.29
  -3   9  -6  526.98   21.52
  -6  -3  -6  519.46   24.47
   9  -6  -3  396.56   17.25
  -6  -3  -3  405.02   17.13
  -3   9  -3  375.72   14.52
   9  -6  -3  372.69   16.08
   9  -6  -3  388.19   15.46
  -3   9  -3  385.29   15.52
  -6  -3  -3  396.39   12.23
  -6  -3  -3  373.31   11.76
  -3   9  -3  380.59   16.99
  -6  -3   0 1991.79   33.66
  -3   9   0 2017.70   35.07
  -3   9   0 2053.37   30.19
   9  -6   0 2035.31   33.20
   9  -6   0 1978.00   34.47
  -6  -3   0 2080.71   31.83
  -6  -3   0 2015.76   32.60
   9  -6   0 1970.40   33.74
  -3   9   3  172.02   13.24
  -3   9   3  147.93    5.55
  -3   9   3  159.69   14.71
  -6  -3   3  152.96   11.85
   9  -6   3  128.49   12.24
  -6  -3   3  150.40   12.55
  -3   9   6  505.30   15.21
  -6  -3   6  480.40   21.86
  -4   9 -10    8.18    7.89
   9  -5 -10   11.78    9.60
  -4   9 -10   16.00   11.50
   9  -5 -10   32.38   16.21
   9  -5 -10   16.81    8.15
  -5  -4 -10    0.64   11.70
  -5  -4 -10   12.01    6.72
  -4   9 -10   26.18   11.38
  -4   9 -10   12.13   11.94
   9  -5  -7  923.10   39.54
  -4   9  -7  895.83   27.78
   9  -5  -7  933.68   29.28
  -5  -4  -7  976.20   35.70
   9  -5  -7  929.06   31.17
  -5  -4  -7  908.09   21.60
  -4   9  -7  917.53   31.09
  -5  -4  -7  983.87   23.10
  -4   9  -7  969.52   37.08
   9  -5  -7  912.47   30.97
  -4   9  -4   17.44    7.21
   9  -5  -4    9.54    5.11
   9  -5  -4    6.26    6.40
  -4   9  -4   16.88    5.65
   9  -5  -4   14.63    6.74
  -5  -4  -4   16.24    3.81
  -4   9  -4   23.24    7.08
  -5  -4  -4   26.84    8.31
  -4   9  -1 1277.31   20.88
  -5  -4  -1 1280.15   22.10
  -5  -4  -1 1260.73   26.18
   9  -5  -1 1265.96   24.37
   9  -5  -1 1243.75   27.55
  -5  -4  -1 1273.88   24.51
  -4   9  -1 1200.29   26.03
   9  -5   2  136.14    5.63
  -4   9   2  140.65   12.57
  -4   9   2  124.20   10.43
   9  -5   2  119.86   10.71
   9  -5   2  121.96    9.06
  -5  -4   2  114.31   10.09
  -5  -4   2  131.84   11.23
  -4   9   2  137.82    7.08
  -4   9   5  422.71   11.41
  -4   9   5  445.17   15.15
  -5  -4   5  420.12   19.19
  -4   9   8   74.92    6.87
  -5   9 -11  280.06   25.36
   9  -4 -11  225.84   27.34
  -5   9 -11  272.71   26.21
  -4  -5 -11  267.81   26.86
   9  -4 -11  223.06   20.70
  -5   9 -11  244.55   22.11
  -5   9  -8   13.67   11.10
  -5   9  -8   32.30    7.89
   9  -4  -8    8.15   11.35
   9  -4  -8   14.18    8.94
   9  -4  -8   21.54    8.72
  -4  -5  -8   20.67    5.50
  -5   9  -8   39.51   10.38
   9  -4  -8   22.99    9.58
  -5   9  -8   24.32   11.04
  -4  -5  -8    8.74    9.89
  -4  -5  -8   19.88    5.56
  -5   9  -5  858.73   27.33
  -4  -5  -5  868.29   30.04
  -5   9  -5  853.84   24.88
   9  -4  -5  838.55   26.83
   9  -4  -5  824.49   25.79
   9  -4  -5  829.66   23.13
  -4  -5  -5  823.03   14.54
  -4  -5  -2  102.89    7.69
  -5   9  -2   98.39    6.00
  -4  -5  -2  102.29   10.22
   9  -4  -2  107.95    7.63
  -4  -5  -2   92.52    5.96
  -5   9  -2   96.54    8.98
   9  -4  -2   97.92    9.90
   9  -4  -2  103.68    9.68
  -5   9   1  703.48   22.29
  -4  -5   1  751.10   21.36
   9  -4   1  725.51   19.66
  -4  -5   1  772.87   22.82
   9  -4   1  785.13   14.37
  -4  -5   1  750.40   21.00
   9  -4   1  781.08   22.05
  -5   9   1  738.78   19.61
   9  -4   1  802.14   22.70
  -5   9   1  736.39   17.69
  -4  -5   1  790.94   15.88
  -5   9   4   10.94    7.76
  -5   9   4   12.68    5.55
  -5   9   4   23.89    4.75
  -4  -5   4   22.19    8.17
  -4  -5   4   21.86    6.85
  -4  -5   7  697.77   26.74
  -5   9   7  715.26   19.86
   9  -3 -12  226.76   29.82
  -6   9 -12  239.53   25.17
  -3  -6 -12  242.92   29.20
  -6   9 -12  200.46   23.76
  -6   9 -12  229.89   23.79
   9  -3 -12  225.04   22.98
   9  -3  -9   40.90   16.34
  -6   9  -9   21.26   11.45
  -6   9  -9   13.98    6.78
  -6   9  -9    8.30    9.40
  -3  -6  -9   13.10    5.13
   9  -3  -9    6.80    8.49
   9  -3  -9   20.09   10.07
  -3  -6  -9    3.49   11.80
  -6   9  -9    6.05   10.36
   9  -3  -6  497.60   22.62
   9  -3  -6  576.36   20.47
   9  -3  -6  534.78   22.29
  -3  -6  -6  512.48   25.48
  -6   9  -6  495.61   23.03
  -3  -6  -6  480.23   10.65
  -6   9  -6  549.28   20.03
  -6   9  -3   82.90    9.53
  -3  -6  -3   68.56    3.54
   9  -3  -3   81.95    6.51
  -3  -6  -3   90.05   10.28
  -6   9  -3   82.59    6.12
   9  -3  -3   92.18   10.09
   9  -3  -3   89.50   10.11
  -3  -6   0 1163.62   25.22
   9  -3   0 1157.81   25.64
  -3  -6   0 1151.18   24.34
  -6   9   0 1173.19   19.85
  -6   9   0 1137.85   26.31
   9  -3   0 1141.82   21.66
   9  -3   0 1162.44   25.94
   9  -3   0 1132.12   24.07
  -3  -6   0 1202.54   25.82
  -3  -6   0 1135.24   23.20
  -6   9   3  754.00   26.22
  -6   9   3  814.03   17.55
  -3  -6   3  709.16   12.39
   9  -3   3  775.73   18.44
  -6   9   3  731.14   20.99
  -3  -6   3  817.33   26.56
   9  -3   3  798.92   18.45
  -3  -6   3  807.37   24.32
  -6   9   3  738.44   26.94
  -6   9   6  561.55   17.51
  -6   9   6  578.79   19.02
  -3  -6   6  583.06   23.92
  -6   9   9   15.79    6.13
   9  -2 -10   55.31   11.50
   9  -2 -10   78.35   19.06
  -7   9 -10   56.88   13.89
  -7   9 -10   66.72    8.67
  -7   9 -10   78.27   15.33
  -7   9 -10   80.66   16.44
  -2  -7 -10   72.34   17.52
   9  -2 -10   89.87   15.80
   9  -2  -7  195.31   14.90
  -7   9  -7  196.52   15.39
  -7   9  -7  200.22   17.34
  -7   9  -7  201.90   13.11
  -2  -7  -7  171.76   18.03
   9  -2  -7  201.32   13.57
  -2  -7  -7  158.70    6.11
   9  -2  -7  174.89   15.94
   9  -2  -4  182.89   13.55
   9  -2  -4  213.43    9.22
  -7   9  -4  213.00   14.47
   9  -2  -4  227.90   15.31
  -2  -7  -4  225.14   16.01
   9  -2  -1  371.09   15.53
  -7   9  -1  351.56    8.37
  -2  -7  -1  352.43   11.42
   9  -2  -1  352.47   15.36
   9  -2  -1  324.34   15.42
   9  -2  -1  352.40   12.19
  -2  -7  -1  325.51   14.66
  -2  -7  -1  328.69   15.87
  -7   9  -1  323.14   15.43
  -7   9   2  315.33   14.75
  -7   9   2  351.31   13.22
  -2  -7   2  328.56   16.25
  -7   9   2  304.56   15.51
  -2  -7   2  342.85   16.03
  -2  -7   2  357.21   16.81
  -2  -7   2  342.02   10.27
   9  -2   2  327.79   14.99
   9  -2   2  322.17   11.80
   9  -2   2  303.71   12.33
  -7   9   2  290.96   16.06
  -2  -7   5  791.49   26.47
  -7   9   5  758.90   22.45
  -7   9   5  757.06   19.93
   9  -2   5  778.68   25.00
  -7   9   8   35.01    7.61
  -7   9   8   48.35    9.20
   9  -1 -11  571.66   33.32
  -8   9 -11  582.29   33.17
  -1  -8 -11  606.22   38.74
  -8   9 -11  570.55   35.02
  -8   9 -11  622.96   36.24
   9  -1 -11  522.72   40.67
   9  -1 -11  605.09   28.43
  -1  -8  -8  148.59   18.41
  -8   9  -8  197.12   16.71
  -1  -8  -8  131.57    5.24
  -8   9  -8  182.47   12.41
   9  -1  -8  180.43   15.70
   9  -1  -8  177.37   17.81
   9  -1  -8  175.62   13.49
  -8   9  -8  221.60   19.91
  -8   9  -8  202.70   19.48
   9  -1  -5  655.39   24.37
  -8   9  -5  653.31   26.13
  -1  -8  -5  668.90   28.21
   9  -1  -5  665.56   15.70
   9  -1  -5  695.86   26.79
  -8   9  -5  647.55   19.40
   9  -1  -2  205.63   13.60
  -8   9  -2  187.00   13.24
   9  -1  -2  196.30   13.47
   9  -1  -2  199.18    8.03
  -1  -8  -2  190.79   14.52
   9  -1  -2  203.62   13.55
   9  -1   1 1387.48   27.63
  -8   9   1 1467.62   28.19
  -1  -8   1 1421.93   24.86
  -1  -8   1 1464.53   29.88
   9  -1   1 1419.54   28.25
  -8   9   1 1458.87   31.21
   9  -1   1 1467.47   25.70
  -8   9   1 1460.31   30.57
  -1  -8   4  309.11   11.90
   9  -1   4  278.25   14.45
  -8   9   4  299.96   14.97
  -8   9   4  301.92   13.26
  -8   9   4  335.84   19.52
   9  -1   4  294.84   10.43
  -8   9   7  682.31   23.27
  -8   9   7  656.97   22.71
  -9   9 -12  158.41   20.33
   0  -9 -12  143.91   24.52
   9   0 -12  189.33   30.46
   9   0 -12  155.24   21.04
  -9   9 -12  209.93   25.57
  -9   9 -12  156.45   21.49
  -9   9  -9   41.05   11.19
  -9   9  -9   37.50   12.14
   9   0  -9   44.14   12.94
  -9   9  -9   16.79   11.38
   9   0  -9   43.24   10.78
   9   0  -9   30.13    8.15
   0  -9  -9   18.60   12.46
  -9   9  -9   37.93    7.50
  -9   9  -6  231.79   13.61
   9   0  -6  211.13    9.72
  -9   9  -6  211.42   17.51
   0  -9  -6  204.15   18.11
   9   0  -6  216.35   17.57
   9   0  -6  216.08   16.26
   9   0  -3   15.34    7.59
   0  -9  -3    7.03    7.71
   9   0  -3   15.70    8.05
   0  -9  -3   25.85    8.29
  -9   9  -3   15.49    2.27
   9   0  -3   11.60    2.31
  -9   9  -3   28.21    8.34
  -9   9  -3    9.23    1.95
  -9   9  -3   18.38    6.25
  -9   9   0  565.37   20.14
   0  -9   0  633.22   19.99
   9   0   0  619.45   18.85
   9   0   0  599.43   19.72
   0  -9   0  591.14   19.01
   9   0   0  599.03   19.60
  -9   9   0  595.65   20.26
  -9   9   0  616.39   20.69
   0  -9   3    7.21    4.42
  -9   9   3    9.91    6.52
   9   0   3    9.59    5.84
  -9   9   3   19.82    7.95
  -9   9   3   16.52    6.15
   9   0   3   10.71    6.00
   9   0   3    7.70    4.47
   9   0   6  291.90   19.04
  -9   9   6  299.83   16.59
  -9   9   6  296.44   15.57
   1 -10 -10   71.15   17.77
   9   1 -10  100.36   14.83
 -10   9 -10   65.20   16.36
 -10   9 -10  101.50   15.25
 -10   9 -10  106.00   16.60
   9   1 -10   90.50   10.06
   9   1 -10   98.49   16.84
 -10   9  -7   16.87    7.02
 -10   9  -7   15.11    6.18
   9   1  -7   15.30    8.71
 -10   9  -7   16.72    5.87
   9   1  -7    7.75   10.69
   9   1  -7   13.37    4.09
 -10   9  -7   13.80    9.56
   9   1  -7   17.92    4.51
   1 -10  -7    4.35   10.88
   9   1  -4  301.68   18.40
   9   1  -4  318.07   17.90
 -10   9  -4  281.16    9.20
 -10   9  -4  292.82   18.93
   1 -10  -4  318.03   19.48
 -10   9  -4  324.48   15.53
 -10   9  -1  111.87   10.30
 -10   9  -1  109.83   10.78
   9   1  -1  108.92   10.49
   9   1  -1  109.95   10.70
 -10   9  -1   89.01   10.14
   1 -10  -1  106.29    9.62
   9   1  -1  125.37   10.84
   1 -10  -1  122.97   11.96
   9   1   2  254.61   12.77
   9   1   2  271.40   13.52
   1 -10   2  310.73   15.17
   9   1   2  282.55   13.64
 -10   9   2  283.41   14.49
 -10   9   2  271.56   14.90
   1 -10   2  278.86   12.56
 -10   9   2  285.89   15.84
 -10   9   5  456.51   24.01
 -10   9   5  458.57   20.11
   9   1   5  477.68   11.52
   1 -10   5  440.26   17.61
 -10   9   5  463.64   19.18
   9   1   5  451.89   21.16
 -10   9   8   19.25    8.43
   9   2 -11  393.00   25.80
 -11   9 -11  390.75   31.70
 -11   9 -11  403.99   26.99
   2 -11 -11  449.87   36.22
   9   2 -11  441.64   35.79
 -11   9 -11  377.71   29.26
   9   2 -11  398.98   31.03
 -11   9  -8   67.10    8.58
 -11   9  -8   52.42    7.79
   9   2  -8   56.52    6.04
 -11   9  -8   28.08   12.16
   9   2  -8   60.35   13.88
   2 -11  -8   47.66   13.68
 -11   9  -8   44.30    9.30
   9   2  -8   55.47    6.35
   9   2  -8   56.31   11.62
   9   2  -5 1127.73   33.78
 -11   9  -5 1080.31   21.61
 -11   9  -5 1050.56   27.44
   2 -11  -5 1131.17   37.79
 -11   9  -5 1080.38   36.36
   9   2  -5 1124.18   36.21
   9   2  -2  315.76   17.26
   9   2  -2  296.78   17.05
   9   2  -2  298.13   16.58
 -11   9  -2  335.34   17.84
   2 -11  -2  314.53   16.50
   2 -11  -2  303.62   18.20
 -11   9  -2  314.09   15.99
 -11   9  -2  264.38   16.70
 -11   9   1 1356.93   31.39
 -11   9   1 1395.08   31.49
 -11   9   1 1315.44   31.79
   9   2   1 1308.46   27.97
   2 -11   1 1352.42   28.68
   2 -11   1 1338.20   28.77
   9   2   1 1344.51   29.73
   9   2   1 1298.34   28.84
   9   2   4  921.44   19.40
 -11   9   4  819.91   26.81
 -11   9   4  892.43   25.97
   2 -11   4  880.56   24.38
   9   2   4  852.93   27.14
 -11   9   4  887.99   29.67
 -12   9 -12   96.30   20.86
   9   3 -12   73.87   22.02
 -12   9 -12   68.88   18.06
   9   3 -12   61.67   17.97
   3 -12 -12  122.90   24.30
 -12   9  -9   51.64    6.83
 -12   9  -9   69.59   11.42
   9   3  -9   80.01   13.17
   9   3  -9   48.94   14.28
   3 -12  -9   78.32   17.15
   9   3  -9   58.68    6.15
 -12   9  -9   60.69   15.19
 -12   9  -6  278.03   21.29
   3 -12  -6  257.34   21.61
 -12   9  -6  286.85   13.39
   9   3  -6  289.61   19.11
   9   3  -6  264.07   20.17
 -12   9  -6  287.20   15.04
 -12   9  -3   98.51   12.13
   3 -12  -3   89.61   11.59
   9   3  -3   95.99   12.21
 -12   9  -3   95.77   10.13
 -12   9  -3  113.26   13.21
   9   3  -3  110.54   12.68
   9   3  -3   84.80   11.02
   3 -12  -3   85.83   12.43
   9   3   0  248.88   14.59
 -12   9   0  228.46   14.49
   9   3   0  223.36   13.41
 -12   9   0  219.36   14.47
   9   3   0  240.53   14.20
 -12   9   0  245.99   14.99
   3 -12   0  232.11   13.83
   3 -12   0  240.82   13.19
 -12   9   3  220.52   14.50
   3 -12   3  218.71   14.00
 -12   9   3  217.33   14.98
   9   3   3  192.31   11.84
   3 -12   3  225.24   13.29
   9   3   3  214.11   11.75
   9   3   3  187.04   13.46
 -12   9   3  204.30   14.89
 -12   9   6  223.03   16.11
   9   3   6  229.41    6.17
   3 -12   6  242.67   16.01
 -13   9 -10  217.18   22.01
   9   4 -10  250.17   25.12
   9   4 -10  253.66   21.65
   4 -13 -10  219.36   26.87
 -13   9 -10  234.57   24.76
 -13   9 -10  268.70   20.21
   9   4  -7    0.01   10.73
   4 -13  -7   27.26   12.21
 -13   9  -7   -3.69   10.32
 -13   9  -7    5.42    6.12
   9   4  -7   11.02    9.86
 -13   9  -7    1.05    5.45
   9   4  -4  485.07   24.56
 -13   9  -4  527.69   20.48
 -13   9  -4  555.18   26.75
   4 -13  -4  535.88   25.45
   9   4  -4  496.71   23.69
 -13   9  -4  516.21   11.26
 -13   9  -1  102.17   11.00
 -13   9  -1  113.37   12.26
   4 -13  -1   91.98    9.96
 -13   9  -1   99.05   11.89
   9   4  -1   98.59   11.51
   9   4  -1  101.42   10.96
   4 -13  -1   92.54   11.38
   9   4  -1   97.89   11.40
 -13   9   2  876.57   28.58
   4 -13   2  914.55   25.96
   9   4   2  879.63   24.10
   9   4   2  912.72   23.65
 -13   9   2  865.34   26.36
 -13   9   2  868.45   26.93
   4 -13   2  849.32   23.92
   9   4   2  903.84   27.33
   4 -13   5   20.75    7.60
 -13   9   5   27.12    9.23
 -13   9   5   23.13    8.39
   9   4   5   32.27    5.18
 -14   9 -11  227.31   25.13
   9   5 -11  257.84   28.31
   9   5 -11  292.74   24.55
 -14   9 -11  261.67   28.63
 -14   9 -11  260.42   21.64
   5 -14 -11  227.88   28.82
 -14   9  -8  178.39   12.12
   9   5  -8  231.06   22.26
 -14   9  -8  234.52   15.66
 -14   9  -8  244.83   24.07
   5 -14  -8  201.80   22.44
   9   5  -8  215.09   19.59
   9   5  -5  818.82   31.63
 -14   9  -5  721.96   24.13
 -14   9  -5  773.26   33.60
   9   5  -5  763.88   32.51
 -14   9  -5  805.89   17.84
   5 -14  -5  804.90   33.41
 -14   9  -2  950.13   31.36
 -14   9  -2  920.62   28.36
   9   5  -2  971.41   30.98
   9   5  -2  989.07   31.60
   5 -14  -2  882.64   31.03
 -14   9  -2  906.21   30.93
   5 -14  -2  850.72   27.91
   9   5  -2  925.85   29.94
   5 -14   1 1222.15   27.87
   9   5   1 1263.75   28.65
   9   5   1 1167.60   30.08
   9   5   1 1203.90   31.88
   5 -14   1 1203.55   31.61
 -14   9   1 1173.44   30.89
 -14   9   1 1234.21   32.89
 -14   9   4  388.46   20.29
   5 -14   4  408.80   19.78
   9   5   4  430.02   15.89
   9   5   4  403.23   15.84
 -14   9   4  403.97   20.40
   6 -15 -12   27.43   19.52
 -15   9 -12   37.19   17.02
   9   6 -12   29.98   16.57
 -15   9 -12   72.81   21.12
   9   6  -9   11.65   11.15
   9   6  -9   13.66   13.67
   6 -15  -9   -3.94   13.68
 -15   9  -9   12.95   13.72
 -15   9  -9   23.79    8.47
 -15   9  -6   79.76    9.93
 -15   9  -6  107.30   15.83
   9   6  -6  107.11   14.61
   9   6  -6   84.36   15.09
 -15   9  -6  100.49    8.37
   6 -15  -6   88.34   16.73
   9   6  -3  329.46   20.42
 -15   9  -3  284.67    8.38
   6 -15  -3  351.00   20.37
 -15   9  -3  343.13   21.89
 -15   9  -3  332.93   17.90
   9   6  -3  351.00   21.48
   9   6   0  255.91   16.68
   9   6   0  250.79   15.15
   6 -15   0  263.70   14.50
 -15   9   0  243.53   17.17
   9   6   0  273.23   16.73
   6 -15   0  238.44   15.87
 -15   9   0  260.02   16.09
 -15   9   0  233.12   16.28
 -15   9   3  231.43   15.53
   9   6   3  242.95   12.92
   6 -15   3  200.59   13.04
   6 -15   3  207.34   15.40
   9   6   3  224.76   13.23
 -15   9   6  223.48   17.77
   9   6   6  225.05    9.67
   9   7 -10  116.65   18.53
 -16   9 -10  151.88   24.45
   7 -16 -10  112.59   22.47
   9   7 -10  138.88   21.35
 -16   9 -10  118.64   14.33
   7 -16  -7   29.54   14.93
 -16   9  -7   40.77    8.54
   9   7  -7   29.15   11.68
   9   7  -7   44.37   12.47
 -16   9  -7   42.64    7.92
 -16   9  -7   23.39   12.86
   7 -16  -4  878.03   33.37
 -16   9  -4  818.24   27.83
   9   7  -4  894.01   33.65
   9   7  -4  861.86   33.93
 -16   9  -4  851.78   34.42
 -16   9  -4  818.57   16.31
 -16   9  -1  325.99   19.31
   9   7  -1  331.86   20.16
   7 -16  -1  360.01   18.24
   9   7  -1  324.52   18.43
 -16   9  -1  380.17   20.52
   9   7   2  651.53   23.58
   9   7   2  605.84   20.25
   7 -16   2  670.10   25.87
   7 -16   2  600.64   20.49
 -16   9   2  634.06   24.00
 -16   9   5   76.04   11.35
   9   7   5   74.67    8.33
 -17   9 -11  226.25   27.83
   9   8 -11  194.34   23.49
   9   8 -11  250.47   29.31
   8 -17 -11  200.53   30.47
 -17   9  -8   28.12    8.20
   9   8  -8   54.78   14.68
   8 -17  -8   49.30   16.24
 -17   9  -8   51.98   16.28
   9   8  -8   40.99   14.09
 -17   9  -5  840.39   36.93
   8 -17  -5  815.27   36.35
   9   8  -5  824.16   34.71
   9   8  -5  889.04   37.35
 -17   9  -5  811.39   19.18
 -17   9  -5  829.74   28.01
   9   8  -2  368.10   21.87
   9   8  -2  392.90   21.81
 -17   9  -2  445.91   23.88
   8 -17  -2  388.10   20.06
   9   8   1  903.31   29.64
   8 -17   1  915.81   25.36
   9   8   1  860.92   26.25
 -17   9   1  827.49   27.78
 -17   9   4  130.46   13.46
   9   8   4  128.26   11.12
   9   8   4  139.49   10.38
   9   8   7  252.85    9.13
   9 -18  -9  153.21   23.37
   9   9  -9  139.44   19.40
   9   9  -9  156.62   22.57
 -18   9  -9  122.38   21.67
 -18   9  -9  138.86   14.24
   9   9  -6   43.16   13.06
   9   9  -6   55.93   14.50
 -18   9  -6   47.03    7.28
 -18   9  -6   48.92   15.14
   9 -18  -6   49.01   14.41
 -18   9  -6   36.54    9.36
   9   9  -3  331.64   22.12
 -18   9  -3  281.52   21.65
   9 -18  -3  296.90   20.47
   9   9  -3  295.46   21.22
   9 -18   0   -2.63    5.83
   9   9   0   -3.83    7.32
 -18   9   0    3.02    7.38
   9   9   3  343.57   18.25
 -18   9   3  318.93   17.99
   9   9   3  340.16   15.72
   9 -18   3  284.51   15.23
 -18   9   6  -10.76    8.69
   9   9   6   -1.47    5.52
   9  10 -10  210.03   26.96
  10 -19 -10  180.33   27.63
   9  10 -10  207.32   22.96
 -19   9 -10  235.34   28.62
 -19   9  -7  154.81   12.26
  10 -19  -7  187.30   23.28
 -19   9  -7  176.48   21.87
   9  10  -7  178.99   22.16
   9  10  -7  186.45   21.30
  10 -19  -4  578.11   28.98
   9  10  -4  631.35   31.50
 -19   9  -4  565.86   31.75
 -19   9  -4  564.15   16.92
   9  10  -4  633.88   31.53
   9  10  -1  162.57   16.51
   9  10  -1  153.03   14.85
  10 -19  -1  119.62   12.30
 -19   9  -1  158.31   15.74
   9  10   2  796.03   24.73
 -19   9   2  826.42   28.36
   9  10   2  825.44   29.51
  10 -19   2  788.68   23.89
 -19   9   5  168.12   15.44
   9  10   5  152.18   12.36
 -18   8 -11  -16.38   17.75
   8  10 -11   -0.05   16.45
  10 -18 -11   23.52   18.91
   8  10 -11   41.03   15.29
   8  10  -8  164.44   19.75
   8  10  -8  198.21   24.00
 -18   8  -8  147.35   20.68
  10 -18  -8  184.11   23.14
 -18   8  -8  171.76   14.60
 -18   8  -5  275.63   13.34
   8  10  -5  282.72   23.34
 -18   8  -5  252.84   16.80
   8  10  -5  306.97   23.00
  10 -18  -5  280.44   23.30
  10 -18  -2  133.28   13.48
   8  10  -2  129.71   15.15
   8  10  -2  126.83   14.51
 -18   8  -2  134.82   15.14
  10 -18   1  830.06   23.23
   8  10   1  796.03   28.96
   8  10   1  818.36   25.39
 -18   8   1  753.19   26.99
   8  10   4  259.16   12.66
 -18   8   4  281.88   17.47
   8  10   7  174.95    9.38
  10 -17  -9   86.72   18.30
 -17   7  -9   90.36   21.12
 -17   7  -9   64.33   11.83
   7  10  -9   65.96   16.60
   7  10  -9   59.57   14.85
   7  10  -6   39.12   12.92
 -17   7  -6   56.21   14.84
 -17   7  -6   59.75    8.43
 -17   7  -6   48.19    8.93
   7  10  -6   58.09   12.84
  10 -17  -6   77.79   14.73
 -17   7  -3   71.90   13.00
  10 -17  -3   61.36   11.34
   7  10  -3   58.02   12.24
   7  10  -3   67.59   12.43
 -17   7  -3   70.06    7.49
 -17   7  -3   71.55   10.49
  10 -17   0   37.32    6.72
 -17   7   0   37.23    8.99
   7  10   0   21.56    7.23
   7  10   0   26.66    9.27
   7  10   3   95.14   10.69
 -17   7   3   96.72   10.25
   7  10   3  108.25    9.02
 -17   7   6   32.97    9.03
   7  10   6   31.66    6.17
  10 -16 -10  422.68   36.92
   6  10 -10  434.15   33.79
   6  10 -10  483.06   30.72
 -16   6 -10  455.03   26.48
 -16   6 -10  393.62   33.72
   6  10  -7   17.67   12.06
  10 -16  -7   39.42    7.55
   6  10  -7   25.14   11.71
 -16   6  -7   43.11    7.93
 -16   6  -7   22.22   13.24
  10 -16  -7   13.04   11.68
 -16   6  -7   51.24    9.66
   6  10  -4 1404.44   42.20
  10 -16  -4 1368.09   41.74
   6  10  -4 1371.05   42.58
 -16   6  -4 1371.32   28.65
 -16   6  -4 1340.35   34.01
 -16   6  -4 1376.48   44.09
   6  10  -1  352.64   20.86
 -16   6  -1  406.28   21.06
 -16   6  -1  372.38   20.19
  10 -16  -1  338.52   16.44
   6  10  -1  383.17   19.79
 -16   6   2 1440.71   31.98
   6  10   2 1482.11   28.42
  10 -16   2 1487.44   26.15
   6  10   2 1406.18   34.41
 -16   6   5   39.14    8.23
   6  10   5   68.63    8.58
   5  10 -11   18.10   13.02
   5  10 -11   52.76   18.47
 -15   5 -11    9.55   12.84
 -15   5 -11   17.84   16.77
 -15   5 -11   25.48   12.66
  10 -15 -11   49.23   18.25
 -15   5  -8    6.00    7.72
   5  10  -8   14.94   12.60
   5  10  -8    6.31    9.95
  10 -15  -8   25.09   14.34
  10 -15  -8   14.53    6.87
 -15   5  -8   27.44   15.44
   5  10  -8    8.64    2.74
   5  10  -5  109.17   14.57
 -15   5  -5  133.89   11.02
  10 -15  -5  142.14   16.89
 -15   5  -5  129.67   16.44
   5  10  -5  125.85   16.41
 -15   5  -5  130.60   11.26
  10 -15  -5  114.91   10.41
   5  10  -5   83.72    5.18
  10 -15  -2  489.40   21.25
 -15   5  -2  517.95   22.17
   5  10  -2  511.27   23.59
 -15   5  -2  469.27   22.04
 -15   5  -2  497.40   17.64
 -15   5  -2  464.01   23.03
   5  10  -2  504.79   23.97
 -15   5   1  415.24   21.03
  10 -15   1  459.17   14.44
 -15   5   1  442.98   18.34
 -15   5   1  453.71   22.65
  10 -15   1  439.02   21.60
   5  10   1  450.06   17.29
   5  10   1  432.00   20.08
   5  10   1  368.82   19.56
   5  10   4  189.00    7.42
 -15   5   4  204.99   12.68
   5  10   7  141.82    6.93
   5  10   7  132.62    6.78
 -14   4 -12   13.03   16.45
 -14   4 -12   15.45   14.06
   4  10 -12  -12.82   15.79
   4  10 -12   11.30   16.57
  10 -14 -12   15.69   17.92
   4  10  -9  144.19   17.52
   4  10  -9   98.64    8.65
  10 -14  -9  179.26   23.53
  10 -14  -9  132.53   11.66
 -14   4  -9  145.77   15.78
   4  10  -9  157.34   22.14
 -14   4  -9  135.47   21.49
 -14   4  -6   43.27    7.04
   4  10  -6   50.65   13.78
  10 -14  -6   34.05   13.03
   4  10  -6   58.64   12.07
 -14   4  -6   28.97   12.40
 -14   4  -6   27.25    7.92
   4  10  -6   41.51    4.95
  10 -14  -6   43.36    8.22
 -14   4  -3  698.46   29.66
   4  10  -3  748.92   29.20
 -14   4  -3  696.07   25.97
   4  10  -3  679.28   18.28
   4  10  -3  653.18   27.13
 -14   4  -3  697.75   20.45
  10 -14  -3  666.90   26.37
 -14   4  -3  686.73   23.49
 -14   4   0   77.76   10.74
 -14   4   0   83.90    9.84
   4  10   0   76.53    9.50
 -14   4   0   83.56   10.76
  10 -14   0   61.84    9.53
   4  10   0   74.00   10.18
   4  10   0   78.97   10.86
  10 -14   0   86.30    7.82
   4  10   3  343.20   16.08
  10 -14   3  349.04   20.06
 -14   4   3  335.88   13.85
   4  10   3  338.97   10.73
   4  10   6   15.22    5.02
   3  10 -10  534.78   35.70
 -13   3 -10  432.71   26.54
   3  10 -10  564.89   30.36
  10 -13 -10  512.55   38.87
 -13   3 -10  535.01   37.87
 -13   3 -10  580.62   31.04
   3  10  -7   21.07   12.83
   3  10  -7   29.94   11.24
   3  10  -7   21.04    5.51
  10 -13  -7   10.37    6.79
  10 -13  -7   -9.68   11.69
 -13   3  -7   13.79   11.88
 -13   3  -7   15.17    8.35
 -13   3  -7   12.97    3.57
 -13   3  -4 2040.15   43.09
   3  10  -4 2030.57   46.74
 -13   3  -4 2047.38   36.00
 -13   3  -4 1982.34   50.58
   3  10  -4 2067.71   49.75
  10 -13  -4 2092.12   49.21
  10 -13  -4 1963.49   37.17
   3  10  -4 2029.95   29.33
 -13   3  -4 2022.24   36.28
   3  10  -1  251.24   14.74
 -13   3  -1  271.23   14.10
 -13   3  -1  252.78   15.43
 -13   3  -1  259.70   15.54
   3  10  -1  271.40   15.83
 -13   3  -1  279.78   16.24
  10 -13  -1  247.78   13.06
  10 -13  -1  242.67   15.85
   3  10  -1  224.53   15.65
   3  10  -1  270.10   15.81
 -13   3   2 2725.16   49.82
 -13   3   2 2716.06   36.15
   3  10   2 2737.56   43.56
  10 -13   2 2767.17   50.51
  10 -13   2 2476.57   23.78
   3  10   2 2441.81   47.21
   3  10   2 2692.66   31.89
 -13   3   2 2708.89   50.42
   3  10   5  204.43   11.06
   2  10 -11  126.58   16.85
 -12   2 -11   92.97   15.02
 -12   2 -11  102.60   22.36
  10 -12 -11   99.13   23.16
   2  10 -11  113.23   21.20
 -12   2 -11   97.39   16.92
 -12   2  -8   32.29   10.27
  10 -12  -8    3.07   11.93
   2  10  -8   20.96   13.39
   2  10  -8   17.28    6.17
 -12   2  -8   34.32   15.27
   2  10  -8    8.28    9.46
  10 -12  -8    2.51    7.09
  10 -12  -5  188.46   18.15
 -12   2  -5  170.65   18.68
 -12   2  -5  194.05   10.44
  10 -12  -5  185.65   12.73
   2  10  -5  190.09   10.19
 -12   2  -5  171.76   13.71
   2  10  -5  186.67   17.07
 -12   2  -5  183.74   13.18
   2  10  -5  173.91   15.70
   2  10  -2   36.91    6.88
   2  10  -2   44.13    9.99
 -12   2  -2   34.13    7.93
  10 -12  -2   19.09    7.33
  10 -12  -2   26.88    8.02
 -12   2  -2   43.86    7.07
 -12   2  -2   40.09    7.13
   2  10  -2   41.96    7.95
  10 -12  -2   37.26    8.03
 -12   2  -2   28.31    9.07
   2  10  -2   46.28    9.63
   2  10   1    8.59    7.04
   2  10   1    1.43    6.71
   2  10   1    0.07    4.85
 -12   2   1    2.97    4.83
  10 -12   1    3.10    2.83
  10 -12   1    4.80    6.44
 -12   2   1   -2.02    7.10
 -12   2   1    5.17    6.98
   2  10   4   64.96    7.85
 -12   2   4   48.33    5.61
   2  10   7  127.56    5.91
   2  10   7  145.77    6.35
   1  10 -12   44.16   18.88
  10 -11 -12   -6.65   17.65
   1  10 -12   46.27   17.75
 -11   1 -12   50.60   16.21
 -11   1 -12   15.43   17.38
   1  10  -9  144.56   13.01
   1  10  -9  171.61   21.51
  10 -11  -9  170.58   23.33
   1  10  -9  167.50   17.38
 -11   1  -9  155.85   18.03
 -11   1  -9  200.90   24.65
  10 -11  -9  159.32   14.90
 -11   1  -6   50.93    9.80
 -11   1  -6   74.80    5.46
   1  10  -6   79.17   14.07
 -11   1  -6   80.50   13.82
  10 -11  -6   82.31   15.79
   1  10  -6   97.32   12.73
  10 -11  -6   76.34   11.12
  10 -11  -6   67.47    9.24
   1  10  -6   73.10    7.98
 -11   1  -6   49.63    9.15
   1  10  -3  469.64   20.23
   1  10  -3  471.72   21.26
 -11   1  -3  466.15   17.70
   1  10  -3  489.43   23.37
 -11   1  -3  473.77   16.96
  10 -11  -3  493.32   21.22
 -11   1  -3  464.41   24.26
   1  10  -3  458.05   15.51
  10 -11  -3  458.95   20.78
  10 -11  -3  451.15   18.29
 -11   1  -3  482.66   19.11
  10 -11  -3  483.95   22.61
   1  10   0   26.28    8.09
  10 -11   0   12.50    6.30
   1  10   0   21.24    7.89
 -11   1   0   24.21    6.94
 -11   1   0   23.53    6.26
   1  10   0   22.07    6.41
 -11   1   0   22.67    6.68
  10 -11   0   21.55    4.51
   1  10   0   30.60    7.10
 -11   1   0   14.36    7.29
 -11   1   3  417.75   20.60
   1  10   3  350.21    7.37
 -11   1   3  416.93   11.43
 -11   1   3  419.25   20.50
  10 -11   3  414.07   20.91
   1  10   3  328.52   18.64
   1  10   3  421.87   16.44
   1  10   6   17.51    4.67
   1  10   6   18.64    4.77
 -10   0 -10  367.42   32.35
  10 -10 -10  343.25   31.08
   0  10 -10  340.55   20.80
 -10   0 -10  356.57   21.73
   0  10 -10  359.75   29.51
 -10   0 -10  400.68   27.64
   0  10 -10  308.69   21.75
  10 -10 -10  349.14   20.67
  10 -10  -7   23.64    8.24
   0  10  -7   26.57    9.32
   0  10  -7   32.23    7.67
  10 -10  -7   30.78    8.62
   0  10  -7   30.12   12.09
  10 -10  -7   60.03   14.03
 -10   0  -7   48.12    9.11
 -10   0  -7   28.01    9.92
   0  10  -4 1677.82   38.49
 -10   0  -4 1658.15   34.98
  10 -10  -4 1562.87   38.01
  10 -10  -4 1645.75   37.10
 -10   0  -4 1705.88   27.39
   0  10  -4 1689.03   29.76
   0  10  -4 1647.75   43.18
  10 -10  -4 1665.32   43.42
  10 -10  -4 1640.91   33.76
 -10   0  -4 1667.18   33.35
   0  10  -4 1631.19   37.75
  10 -10  -1   21.75    7.88
 -10   0  -1   34.67    7.01
   0  10  -1   31.93    7.96
  10 -10  -1   15.78    5.92
   0  10  -1   18.99    7.78
   0  10  -1   29.04    6.77
 -10   0  -1   33.28    6.67
 -10   0  -1   18.70    7.14
  10 -10  -1   22.15    7.74
  10 -10  -1   23.73    7.18
 -10   0  -1   26.91    6.73
   0  10  -1   18.56    7.01
   0  10   2 1217.85   31.77
   0  10   2 1248.18   18.59
 -10   0   2 1295.40   18.56
 -10   0   2 1317.36   33.14
  10 -10   2 1291.89   32.98
  10  -9 -11  214.68   27.77
  -1  10 -11  169.91   23.61
  -1  10 -11  168.70   22.16
  -9  -1 -11  156.08   21.26
  -9  -1 -11  226.86   27.72
  -1  10 -11  163.36   16.43
  10  -9 -11  131.19   16.27
  -1  10 -11  137.00   16.64
  -1  10  -8   23.42    9.69
  10  -9  -8   16.97    8.82
  -1  10  -8   19.51    8.12
  10  -9  -8   30.28   14.29
  -1  10  -8   24.99   12.41
  -9  -1  -8   23.61   10.92
  -9  -1  -8   18.06    8.04
  10  -9  -8   27.81    8.94
  -9  -1  -5  380.69   10.97
  -1  10  -5  399.12   22.98
  -1  10  -5  396.88   20.10
  10  -9  -5  414.91   18.54
  10  -9  -5  369.29   23.53
  -1  10  -5  451.23   21.44
  -1  10  -5  402.75   16.35
  10  -9  -5  406.19   19.18
  -9  -1  -5  402.73   19.48
  -9  -1  -5  406.28   16.98
  10  -9  -5  379.15   20.27
  10  -9  -2  301.33   16.11
  -9  -1  -2  303.45   13.65
  10  -9  -2  321.91   17.02
  -9  -1  -2  303.46   14.39
  -1  10  -2  313.40   13.91
  -1  10  -2  295.71   13.88
  10  -9  -2  308.97   15.36
  -1  10  -2  299.41   17.17
  10  -9  -2  324.00   15.70
  -9  -1  -2  307.54   13.69
  -1  10  -2  282.96   16.00
  10  -9   1   70.11    9.09
  -1  10   1   81.70    7.33
  -1  10   1   90.48   11.71
  -1  10   1   82.96    9.11
  -9  -1   1   75.19    9.85
  -9  -1   1   85.21   10.81
  -9  -1   1   69.68    6.22
  -9  -1   1   75.55    9.19
  -9  -1   4  303.19   17.64
  10  -9   4  306.09   19.31
  -9  -1   4  275.94   17.50
  -1  10   7   30.53    4.45
  -1  10   7   18.14    4.26
  10  -8 -12   53.87   20.04
  -2  10 -12   77.67   19.23
  -8  -2 -12   72.67   18.66
  -8  -2 -12  102.68   23.38
  -2  10 -12   80.36   19.08
  -8  -2  -9   49.07    9.20
  10  -8  -9   41.45   10.45
  -2  10  -9   61.33   15.23
  -2  10  -9   53.13   10.97
  10  -8  -9   40.64   10.08
  10  -8  -9   59.08   18.14
  -2  10  -9   56.93   10.51
  -8  -2  -9   68.75   14.21
  -2  10  -6  311.04   19.62
  -8  -2  -6  298.68   14.41
  -2  10  -6  301.70   17.87
  -2  10  -6  311.30   16.37
  10  -8  -6  259.75   16.21
  10  -8  -6  281.42   18.63
  -2  10  -6  286.73   21.22
  10  -8  -6  293.43   22.93
  10  -8  -6  311.86   17.12
  -8  -2  -6  344.72   19.81
  -8  -2  -3  758.31   23.34
  -2  10  -3  791.20   28.02
  -8  -2  -3  753.71   19.67
  -2  10  -3  777.63   24.63
  10  -8  -3  775.60   23.72
  -2  10  -3  763.15   22.18
  10  -8  -3  775.06   24.70
  -2  10  -3  767.47   21.19
  10  -8  -3  764.81   23.10
  -8  -2  -3  820.84   19.20
  10  -8  -3  776.84   27.06
  -8  -2   0 1495.88   31.03
  -8  -2   0 1564.98   30.36
  10  -8   0 1522.34   31.85
  10  -8   0 1561.10   32.63
  -2  10   0 1551.94   33.17
  10  -8   0 1559.22   33.28
  -2  10   0 1572.53   29.81
  -8  -2   0 1567.65   31.74
  -8  -2   3  834.17   27.48
  -2  10   3  758.81   26.65
  -8  -2   3  820.01   26.49
  10  -8   3  841.31   28.00
  -2  10   6   96.05    7.69
  -7  -3 -10  384.16   28.03
  -3  10 -10  391.67   29.04
  10  -7 -10  407.01   34.04
  -3  10 -10  321.05   20.00
  10  -7 -10  378.07   20.96
  -3  10 -10  388.92   28.82
  -3  10 -10  381.15   23.78
  10  -7 -10  358.35   23.20
  -7  -3 -10  329.11   17.43
  10  -7  -7   96.45   11.95
  10  -7  -7   78.00   14.54
  -3  10  -7  100.00   11.39
  -3  10  -7   86.58   11.49
  -7  -3  -7   88.62    8.92
  10  -7  -7   94.05   12.06
  10  -7  -7   62.51   11.13
  -3  10  -7   90.53   14.93
  -7  -3  -7   99.28   13.93
  -7  -3  -4 1343.16   21.32
  -7  -3  -4 1315.84   32.93
  -3  10  -4 1354.11   30.71
  -3  10  -4 1316.63   32.34
  10  -7  -4 1309.18   32.58
  10  -7  -4 1285.02   30.38
  10  -7  -4 1294.72   30.72
  -7  -3  -4 1300.72   23.59
  -3  10  -4 1310.75   29.22
  -3  10  -4 1332.78   37.40
  10  -7  -1  235.46   12.62
  -7  -3  -1  255.64   12.56
  -3  10  -1  260.36   11.72
  -7  -3  -1  239.30   12.99
  10  -7  -1  245.69   13.91
  -7  -3  -1  257.82   11.77
  -3  10  -1  247.12   13.22
  10  -7  -1  282.12   15.01
  -7  -3   2 1598.23   34.39
  -7  -3   2 1605.88   34.54
  -3  10   2 1594.40   33.54
  -3  10   2 1646.29   22.01
  -3  10   2 1623.87   39.28
  -3  10   5   46.87    6.67
  -7  -3   5   53.83    9.53
  -3  10   8  712.61   16.10
  -4  10 -11   67.68   15.65
  -4  10 -11   45.47   12.44
  -4  10 -11   77.25   17.02
  10  -6 -11   73.78   22.66
  10  -6 -11   51.51   13.13
  -6  -4 -11   44.87   15.20
  -6  -4  -8   65.80    8.58
  -4  10  -8   66.69   10.66
  -4  10  -8   43.78   13.07
  10  -6  -8   54.84   10.85
  -6  -4  -8   54.47    7.65
  -4  10  -8   60.66   12.16
  -6  -4  -8   91.35   15.04
  10  -6  -8   62.64   15.45
  10  -6  -8   63.50   10.77
  -6  -4  -5  490.46   22.95
  -6  -4  -5  529.27   14.42
  -4  10  -5  501.51   20.86
  10  -6  -5  540.02   21.57
  -4  10  -5  523.86   25.73
  -4  10  -5  516.34   20.81
  -4  10  -5  498.84   20.55
  10  -6  -5  508.64   20.09
  10  -6  -5  517.06   21.57
  -6  -4  -2  648.34   20.96
  -6  -4  -2  739.17   18.95
  -4  10  -2  672.88   16.77
  10  -6  -2  685.58   19.62
  10  -6  -2  679.88   22.62
  10  -6  -2  711.03   22.00
  -6  -4  -2  708.44   16.59
  -4  10  -2  665.58   20.51
  -6  -4   1   73.45    8.82
  -6  -4   1   81.77    9.42
  10  -6   1   77.61    9.00
  10  -6   1   82.85   10.14
  -4  10   1   72.84    8.11
  10  -6   1   76.90    4.75
  10  -6   1   76.35    9.17
  -6  -4   1   69.88    8.60
  -4  10   1   87.13   10.45
  -4  10   4  781.79   29.56
  -6  -4   4  746.91   25.65
  -4  10   4  702.95   20.21
  -4  10   4  648.34   12.05
  -6  -4   4  797.33   28.64
  -4  10   7   34.55    5.88
  10  -5 -12  101.26   17.38
  -5  10 -12  137.52   22.96
  -5  10 -12   89.00   16.25
  10  -5 -12   98.95   23.85
  -5  10 -12  161.80   22.55
  -5  -5 -12  116.83   22.47
  10  -5  -9  186.04   24.67
  10  -5  -9  207.55   17.18
  -5  -5  -9  182.20   10.85
  -5  10  -9  210.53   15.83
  10  -5  -9  196.63   18.15
  -5  10  -9  180.72   19.27
  -5  10  -9  202.63   18.97
  -5  -5  -9  220.70   21.07
  -5  10  -9  223.56   22.85
  -5  10  -6  339.87   22.28
  -5  10  -6  339.16   17.51
  -5  -5  -6  328.85   10.73
  10  -5  -6  318.02   17.98
  10  -5  -6  337.77   19.11
  10  -5  -6  334.99   17.35
  -5  -5  -6  318.85   20.48
  -5  10  -6  352.91   19.16
  -5  -5  -6  297.93   10.69
  -5  10  -3 1128.59   27.71
  -5  10  -3 1126.32   22.22
  10  -5  -3 1114.41   29.10
  10  -5  -3 1126.38   28.56
  10  -5  -3 1122.61   23.96
  -5  -5  -3 1077.42   29.06
  -5  -5  -3 1196.17   22.43
  -5  -5  -3 1154.42   18.03
  -5  -5   0   99.69    9.09
  -5  -5   0   88.96    8.05
  -5  10   0   77.68    6.89
  10  -5   0   89.65    8.71
  10  -5   0   96.12    9.71
  10  -5   0   77.38    9.27
  10  -5   0   87.57    7.17
  -5  -5   0   93.18    9.65
  -5  10   0   84.36    9.49
  -5  -5   3 1512.32   36.62
  -5  -5   3 1501.92   33.83
  -5  10   3 1441.62   29.49
  -5  10   3 1457.19   38.31
  -5  10   3 1575.55   21.87
  10  -5   3 1422.15   22.27
  -5  10   3 1491.97   35.80
  10  -5   3 1416.71   27.12
  -5  10   6  129.69    9.67
  -5  10   6  137.08    8.02
  -5  -5   6  106.23   11.81
  10  -4 -10  138.79   23.14
  10  -4 -10  116.66   14.09
  -6  10 -10  109.23   11.56
  -6  10 -10  119.78   17.07
  -6  10 -10  102.21   16.22
  -4  -6 -10  126.96   18.63
  -6  10 -10  118.02   18.76
  10  -4 -10  141.88   17.99
  10  -4  -7  114.68   12.82
  -4  -6  -7  120.30    6.52
  -6  10  -7  125.50   15.91
  -6  10  -7  149.96   12.48
  -4  -6  -7  124.95   16.12
  -4  -6  -7  143.11    7.04
  -6  10  -7  142.42   13.98
  10  -4  -7  150.26   15.78
  -6  10  -7  141.14   15.36
  10  -4  -7  136.10   12.48
  10  -4  -4  636.63   23.61
  10  -4  -4  633.18   18.09
  10  -4  -4  638.35   23.18
  -6  10  -4  655.22   23.69
  -6  10  -4  684.33   19.08
  10  -4  -1   78.84    9.41
  -4  -6  -1   72.37    6.56
  -6  10  -1   84.91    9.44
  -4  -6  -1   77.33    8.14
  10  -4  -1   88.41    8.09
  10  -4  -1   84.53    9.76
  -6  10  -1   71.80    5.69
  -4  -6  -1   74.40    8.43
  -6  10   2  416.40   20.36
  10  -4   2  445.24   16.03
  -4  -6   2  456.88   19.62
  -6  10   2  453.21   17.50
  -6  10   2  471.18   14.40
  -4  -6   2  473.98   10.46
  -4  -6   2  481.65   19.70
  10  -4   2  470.80   20.50
  -6  10   2  444.52   18.27
  10  -4   2  502.80   12.98
  -4  -6   2  462.98   18.62
  10  -4   2  462.48   18.73
  -6  10   5  223.34    9.96
  -6  10   5  240.89   12.92
  10  -4   5  230.57   13.79
  -4  -6   5  238.16   16.23
  -6  10   8  137.55   10.30
  10  -3 -11  131.34   23.11
  -7  10 -11   99.27   17.26
  -7  10 -11  111.61   18.10
  -7  10 -11  120.64   17.82
  10  -3 -11  127.83   17.58
  -3  -7 -11  113.68   21.02
  10  -3 -11  108.74   14.61
  10  -3  -8  745.79   31.73
  -7  10  -8  801.01   31.53
  -7  10  -8  780.65   25.52
  -3  -7  -8  776.97   35.69
  -7  10  -8  817.82   36.94
  10  -3  -8  745.32   29.20
  -7  10  -8  795.72   33.25
  10  -3  -8  735.08   26.91
  10  -3  -5   79.70   10.33
  -7  10  -5   58.92   10.43
  10  -3  -5   58.28    6.55
  -3  -7  -5   55.14   10.37
  10  -3  -5   63.33   10.73
  -7  10  -2 1132.19   15.95
  10  -3  -2 1143.32   28.92
  10  -3  -2 1171.07   21.58
  -7  10  -2 1141.90   28.29
  10  -3  -2 1149.28   28.38
  -3  -7  -2 1152.39   32.93
  -3  -7  -2 1143.64   17.75
  -3  -7  -2 1076.49   28.15
  -3  -7   1  688.75   22.08
  10  -3   1  721.36   16.58
  10  -3   1  692.23   21.87
  -7  10   1  700.68   23.41
  10  -3   1  694.53   20.12
  -7  10   1  727.76   22.20
  -7  10   1  685.31   19.66
  -3  -7   1  705.14   21.75
  10  -3   1  679.06   21.19
  -7  10   1  713.62   19.69
  -3  -7   1  715.79   17.32
  -3  -7   1  729.42   22.34
  10  -3   4 1476.22   29.62
  10  -3   4 1551.07   25.43
  -3  -7   4 1497.84   35.46
  -7  10   4 1519.21   25.87
  -3  -7   4 1554.05   39.98
  -7  10   4 1465.80   31.14
  -7  10   7   37.03    7.70
  -7  10   7   25.73    6.45
  10  -2 -12   99.32   25.01
  -8  10 -12   86.77   17.81
  10  -2 -12  118.77   19.90
  -8  10 -12   79.47   17.99
  -2  -8 -12   58.96   19.00
  -8  10 -12   95.29   19.53
  -8  10  -9  360.60   17.83
  10  -2  -9  397.57   25.76
  10  -2  -9  407.71   23.21
  -2  -8  -9  368.28   27.59
  -8  10  -9  394.80   26.76
  -8  10  -9  417.24   29.01
  -8  10  -9  406.07   24.88
  -8  10  -6  152.17   11.88
  -8  10  -6  140.30   14.73
  10  -2  -6  145.87   13.42
  -8  10  -6  156.48   12.03
  10  -2  -6  192.71   10.78
  10  -2  -6  166.00   15.18
  -2  -8  -6  177.54   17.61
  10  -2  -3  618.02   23.28
  -8  10  -3  609.46   23.41
  -2  -8  -3  625.10   26.98
  10  -2  -3  659.42   14.97
  -8  10  -3  608.40   12.20
  -2  -8  -3  600.53   23.80
  10  -2  -3  620.90   22.79
  10  -2   0 1307.13   25.81
  10  -2   0 1237.33   26.58
  10  -2   0 1322.03   29.11
  -8  10   0 1158.96   28.06
  -2  -8   0 1295.96   26.31
  10  -2   0 1226.65   28.07
  -2  -8   0 1204.79   27.80
  -8  10   0 1173.04   28.83
  -8  10   0 1230.01   21.39
  -8  10   0 1296.93   28.95
  -2  -8   0 1227.94   27.03
  10  -2   3  517.27   19.61
  10  -2   3  521.69   16.19
  -8  10   3  555.70   17.26
  10  -2   3  553.07   17.30
  -2  -8   3  546.39   13.61
  -2  -8   3  494.48   20.68
  -8  10   3  525.00   23.37
  -8  10   3  562.87   20.44
  -2  -8   3  542.08   23.35
  10  -2   6  258.90   17.61
  -8  10   6  259.83   14.71
  -8  10   6  274.89   13.78
  10  -1 -10   22.05    8.27
  10  -1 -10   13.05   10.41
  -9  10 -10    8.41   11.65
  -9  10 -10   15.44   10.60
  10  -1 -10   11.84   11.37
  -9  10 -10   27.25   12.25
  -1  -9 -10   11.30   13.98
  10  -1 -10   16.09   14.84
  -9  10  -7   55.17    8.27
  10  -1  -7   61.20    7.68
  -1  -9  -7   55.84   13.75
  10  -1  -7   45.67   10.18
  -9  10  -7   37.61   10.73
  10  -1  -7   44.04   11.86
  -9  10  -7   38.85    8.49
  -9  10  -4  155.84    7.94
  10  -1  -4  149.37    6.67
  10  -1  -4  169.97   14.10
  -1  -9  -4  175.36   14.77
  -9  10  -4  186.86   15.21
  10  -1  -4  184.59   15.04
  -9  10  -4  182.21    8.43
  10  -1  -1  265.17   14.67
  -9  10  -1  211.52    6.61
  10  -1  -1  263.23   15.14
  -1  -9  -1  245.76   14.06
  -9  10  -1  260.49   14.44
  -9  10  -1  264.83   15.18
  10  -1  -1  247.95   14.12
  10  -1  -1  252.86   11.32
  -1  -9  -1  266.72   15.55
  -9  10  -1  243.37   14.60
  10  -1   2  488.46   16.77
  -9  10   2  465.22   17.03
  -9  10   2  481.18   19.03
  10  -1   2  491.03   18.56
  -1  -9   2  558.36   15.60
  -1  -9   2  521.10   20.43
  -9  10   2  526.93   21.85
  10  -1   2  519.48   17.32
  10  -1   5  298.93   16.81
  -9  10   5  281.12   19.86
  -9  10   5  290.52   14.52
  -9  10   5  272.82   15.30
  -9  10   8   29.34    8.44
  -9  10   8   31.80    9.13
 -10  10 -11   61.49   16.35
 -10  10 -11   42.81   17.16
  10   0 -11   63.57   14.02
  10   0 -11   60.82   16.79
  10   0 -11   58.21   18.83
   0 -10 -11   65.80   18.56
 -10  10 -11   60.90   14.23
 -10  10  -8 1224.85   35.59
  10   0  -8 1253.15   39.41
 -10  10  -8 1036.97   28.51
   0 -10  -8 1142.92   45.41
 -10  10  -8 1185.61   29.35
 -10  10  -8 1224.55   43.70
  10   0  -8 1253.57   43.04
  10   0  -8 1118.31   25.20
  10   0  -8 1191.91   26.63
  10   0  -5   23.37    2.96
 -10  10  -5   20.37    6.78
  10   0  -5   11.77    8.34
 -10  10  -5   20.95    8.28
  10   0  -5   19.63    8.33
 -10  10  -5   21.98    5.44
   0 -10  -5   26.68    9.56
  10   0  -2 1334.17   33.57
 -10  10  -2 1334.77   31.26
   0 -10  -2 1343.02   36.33
  10   0  -2 1289.98   32.51
  10   0  -2 1285.10   32.39
 -10  10  -2 1330.80   33.17
   0 -10  -2 1427.72   33.32
 -10  10  -2 1318.88   33.74
  10   0   1   35.29    7.52
  10   0   1   20.73    6.62
   0 -10   1   34.15    7.49
 -10  10   1   25.88    7.79
 -10  10   1   20.51    6.78
   0 -10   1   45.93    7.00
 -10  10   1   31.43    7.33
  10   0   1   25.02    5.87
  10   0   4 1715.63   26.63
 -10  10   4 1682.71   33.58
 -10  10   4 1663.79   36.45
   0 -10   4 1700.55   29.97
  10   0   4 1709.58   35.82
 -10  10   4 1666.57   41.80
 -10  10   7   25.26    8.33
 -10  10   7   24.99    8.13
 -11  10 -12   24.14   15.57
 -11  10 -12   24.28   15.89
  10   1 -12   39.85   15.71
   1 -11 -12   49.75   19.44
  10   1 -12   55.63   23.23
 -11  10  -9   60.79    8.37
  10   1  -9   71.49    7.84
  10   1  -9   70.03   13.81
  10   1  -9   63.14   14.76
   1 -11  -9   63.71   16.17
 -11  10  -9   78.38   12.49
 -11  10  -9   98.93   18.09
  10   1  -6   92.21   13.18
  10   1  -6   61.85    3.63
 -11  10  -6   82.32    8.39
 -11  10  -6   88.11    9.72
   1 -11  -6   69.63   13.39
 -11  10  -6   80.02   13.11
  10   1  -6   70.32   11.98
  10   1  -3  560.77   25.22
 -11  10  -3  529.07   24.24
  10   1  -3  561.32   22.75
  10   1  -3  615.08   24.38
 -11  10  -3  555.94   21.05
   1 -11  -3  603.10   24.55
 -11  10  -3  600.24   24.50
   1 -11  -3  539.78   26.04
  10   1   0   -4.64    7.05
 -11  10   0    4.36    7.10
 -11  10   0   -0.75    6.23
   1 -11   0    2.96    5.89
   1 -11   0    5.94    6.05
  10   1   0    3.97    6.65
 -11  10   0   -0.88    6.55
  10   1   0   16.03    6.57
 -11  10   3  609.96   22.95
  10   1   3  649.32   18.88
  10   1   3  605.05   21.75
   1 -11   3  682.29   24.47
 -11  10   3  660.78   25.42
  10   1   3  671.02   21.45
 -11  10   3  640.79   21.91
   1 -11   3  653.11   20.03
 -11  10   6   18.60    7.27
 -11  10   6    7.81    6.56
  10   2 -10   24.71   12.81
  10   2 -10   32.37   14.21
 -12  10 -10   31.26   14.30
   2 -12 -10   21.65   13.83
 -12  10 -10   21.16    9.70
 -12  10 -10   12.03   12.41
  10   2  -7   79.51   14.44
 -12  10  -7   62.26    9.52
   2 -12  -7   76.21   16.13
  10   2  -7   75.18   13.27
 -12  10  -7   78.99    9.08
 -12  10  -7   96.43   15.82
 -12  10  -4  111.38   10.79
  10   2  -4  104.10   12.83
  10   2  -4  100.23   12.45
   2 -12  -4  125.50   14.09
 -12  10  -4  129.69   14.84
 -12  10  -4   91.85    4.40
 -12  10  -1    6.78    6.87
  10   2  -1   11.64    6.91
  10   2  -1   -2.85    6.37
  10   2  -1   24.25    8.63
 -12  10  -1    6.71    7.31
 -12  10  -1   19.96    8.23
   2 -12  -1   15.14    7.67
   2 -12  -1    4.95    6.49
  10   2   2   18.70    7.10
 -12  10   2   -1.32    6.29
   2 -12   2   12.89    5.77
 -12  10   2    8.50    6.41
  10   2   2   17.21    6.73
  10   2   2   24.01    6.90
   2 -12   2    0.21    6.52
 -12  10   2   11.21    7.17
  10   2   5  353.58   11.82
 -12  10   5  323.04   18.50
 -12  10   5  329.25   21.03
   2 -12   5  291.31   15.82
 -12  10   5  327.50   17.92
  10   2   5  327.48   19.35
 -13  10 -11    3.87   12.48
  10   3 -11   36.06   16.38
  10   3 -11   35.73   13.97
 -13  10 -11   17.28   15.07
 -13  10 -11   26.65   11.27
   3 -13 -11  -13.48   15.72
 -13  10  -8  430.33   17.93
 -13  10  -8  315.03   16.12
   3 -13  -8  396.13   28.70
 -13  10  -8  411.11   19.63
 -13  10  -8  412.22   28.17
  10   3  -8  426.21   25.49
  10   3  -8  406.04   27.85
  10   3  -5  216.27   17.53
 -13  10  -5  204.87   14.16
  10   3  -5  216.74   18.18
   3 -13  -5  237.95   19.42
 -13  10  -5  217.00    8.95
 -13  10  -5  184.51   17.02
  10   3  -2 2046.54   43.31
  10   3  -2 2043.87   43.18
 -13  10  -2 2030.01   40.93
 -13  10  -2 1991.41   44.58
 -13  10  -2 2038.83   45.00
   3 -13  -2 1885.31   40.87
   3 -13  -2 1965.60   46.23
  10   3  -2 1999.39   43.51
  10   3   1  410.14   17.24
 -13  10   1  472.35   21.33
   3 -13   1  458.68   18.44
 -13  10   1  423.64   19.92
 -13  10   1  473.09   20.42
   3 -13   1  458.12   19.03
  10   3   1  440.97   19.03
  10   3   1  428.70   18.66
 -13  10   4 1872.14   40.74
   3 -13   4 1939.55   38.27
  10   3   4 1935.56   43.08
  10   3   4 1855.72   30.93
 -13  10   4 1906.61   44.81
  10   3   4 1847.48   34.56
  10   4 -12   15.17   19.30
  10   4 -12    7.54   17.38
 -14  10 -12   24.04   18.91
   4 -14 -12   35.26   18.67
 -14  10 -12    4.88   13.75
  10   4  -9  131.57   20.07
 -14  10  -9  107.28    9.53
 -14  10  -9  162.14   21.99
  10   4  -9  147.82   17.87
 -14  10  -9  143.01   13.93
   4 -14  -9  108.33   18.95
 -14  10  -6   10.28    4.56
   4 -14  -6   22.65   11.11
  10   4  -6    0.66    9.24
  10   4  -6   -4.24   10.18
 -14  10  -6   24.17   11.16
 -14  10  -6    1.89    6.17
 -14  10  -3  226.56   17.88
  10   4  -3  238.67   17.46
   4 -14  -3  233.89   17.64
 -14  10  -3  230.14   15.10
  10   4  -3  216.08   16.88
  10   4   0   54.16   10.08
  10   4   0   62.17    9.04
  10   4   0   51.28    9.30
 -14  10   0   58.39    9.81
   4 -14   0   47.15    8.01
 -14  10   0   55.58    9.90
 -14  10   0   62.50    9.92
   4 -14   0   60.63    9.53
  10   4   3  614.90   24.57
  10   4   3  556.94   19.57
   4 -14   3  603.54   23.12
   4 -14   3  590.71   22.56
  10   4   3  595.50   20.05
 -14  10   3  565.62   23.77
 -14  10   3  582.75   23.99
 -14  10   6   49.36   11.54
  10   4   6   41.87    4.88
   4 -14   6   40.73    9.67
  10   5 -10  141.75   18.85
  10   5 -10   98.19   19.21
   5 -15 -10  120.71   21.45
 -15  10 -10  125.67   14.49
 -15  10 -10  111.25   20.62
  10   5  -7   63.63   13.74
  10   5  -7  101.99   16.71
 -15  10  -7   62.56    9.57
 -15  10  -7   78.29   15.84
   5 -15  -7   64.74   14.88
 -15  10  -7   74.25    8.42
   5 -15  -4  296.95   20.23
 -15  10  -4  264.28   19.90
  10   5  -4  276.30   20.28
  10   5  -4  283.04   19.56
 -15  10  -4  270.74   16.77
  10   5  -1  715.74   26.67
 -15  10  -1  746.69   27.34
  10   5  -1  760.93   26.47
 -15  10  -1  678.69   27.01
   5 -15  -1  752.40   25.37
   5 -15  -1  674.39   27.02
  10   5  -1  786.60   28.04
 -15  10  -1  805.92   28.59
   5 -15   2  506.72   21.55
  10   5   2  521.36   19.43
  10   5   2  539.31   20.84
 -15  10   2  512.08   22.90
 -15  10   2  515.47   21.99
   5 -15   2  510.15   20.24
  10   5   2  543.67   23.53
  10   5   5  136.45    9.54
   5 -15   5  134.05   13.48
 -15  10   5  122.00   13.96
  10   6 -11   56.94   18.39
   6 -16 -11   30.86   17.25
 -16  10 -11   55.50   19.72
 -16  10 -11   29.75   15.57
  10   6 -11   57.43   15.93
  10   6  -8  562.68   34.01
   6 -16  -8  466.76   32.17
 -16  10  -8  488.77   20.70
  10   6  -8  516.89   29.54
 -16  10  -5    0.20    2.95
 -16  10  -5   12.04   10.87
  10   6  -5    2.05    9.36
  10   6  -5   -9.63   10.95
 -16  10  -5   10.50    7.80
   6 -16  -5   14.78    9.81
 -16  10  -2 1551.82   41.82
  10   6  -2 1532.93   40.01
   6 -16  -2 1575.80   38.94
 -16  10  -2 1580.18   39.42
  10   6   1  261.70   15.40
   6 -16   1  252.37   14.56
   6 -16   1  279.83   17.57
 -16  10   1  267.78   17.02
  10   6   1  276.32   16.80
   6 -16   4 1303.73   36.77
  10   6   4 1315.39   29.59
  10   6   4 1350.98   30.28
 -16  10   4 1269.67   36.90
  10   6   7    8.92    1.93
  10   7  -9  121.26   20.98
 -17  10  -9  102.11   18.84
   7 -17  -9   50.35   17.46
  10   7  -9  103.88   17.49
 -17  10  -9   82.02   11.22
 -17  10  -6   47.67    9.68
 -17  10  -6   55.94   14.62
   7 -17  -6   95.78   16.18
  10   7  -6   65.20   14.66
 -17  10  -6   59.05    6.49
  10   7  -6   66.47   12.86
  10   7  -3  392.34   23.48
   7 -17  -3  365.09   21.56
 -17  10  -3  343.02   19.76
  10   7  -3  336.95   21.49
 -17  10  -3  360.78   23.27
  10   7   0  130.52   11.98
  10   7   0  116.09   13.33
   7 -17   0  122.31   11.36
 -17  10   0  135.80   13.63
   7 -17   3   43.73    8.29
  10   7   3   40.58    7.80
 -17  10   3   31.92    9.27
  10   7   3   34.94    7.65
  10   7   6  127.50    9.06
 -17  10   6  117.82   14.78
  10   8 -10  120.10   22.83
   8 -18 -10   92.20   21.46
 -18  10 -10  143.61   23.23
  10   8 -10  125.39   19.42
   8 -18  -7  232.43   24.20
  10   8  -7  182.02   21.60
 -18  10  -7  270.87   25.08
  10   8  -7  234.93   21.30
 -18  10  -7  219.84   12.81
 -18  10  -4  323.49   23.68
  10   8  -4  358.70   23.65
 -18  10  -4  310.50   10.49
  10   8  -4  328.08   23.89
   8 -18  -4  355.06   23.90
  10   8  -1  452.86   22.57
  10   8  -1  426.57   23.30
 -18  10  -1  455.51   23.39
   8 -18  -1  467.06   20.85
   8 -18   2   55.02    8.65
  10   8   2   72.23    9.27
 -18  10   2   60.72   10.69
  10   8   2   53.92    9.71
  10   8   5  377.26   16.75
 -18  10   5  334.05   21.39
   9 -19 -11   39.25   20.04
  10   9 -11   33.69   15.87
  10   9 -11   69.14   21.27
 -19  10 -11   48.87   20.14
  10   9  -8  251.83   23.11
  10   9  -8  234.74   25.51
 -19  10  -8  192.23   25.44
 -19  10  -8  176.73   13.12
   9 -19  -8  269.38   27.13
   9 -19  -5  136.93   18.21
  10   9  -5  120.58   16.90
 -19  10  -5  135.36    8.31
 -19  10  -5  160.60   19.87
  10   9  -5  181.31   18.73
  10   9  -2  851.31   33.60
   9 -19  -2  860.62   30.85
  10   9  -2  875.10   32.93
 -19  10  -2  909.65   35.43
  10   9   1  187.07   15.83
  10   9   1  222.15   15.27
   9 -19   1  226.05   14.16
 -19  10   1  182.33   15.31
 -19  10   4  484.36   24.01
  10   9   4  487.72   18.97
  10   9   4  527.56   22.12
  10   9   7   59.79    6.63
  10  10  -9   18.84   16.77
  10 -20  -9   18.80   15.34
 -20  10  -9   -2.98   13.70
  10  10  -9   45.69   16.95
  10  10  -6   57.37   14.86
 -20  10  -6   49.67   15.22
  10  10  -6   76.85   16.08
 -20  10  -6   67.80    7.71
  10 -20  -6   30.85   12.81
  10  10  -3   33.75   11.89
  10 -20  -3   43.57   10.60
 -20  10  -3   32.02   12.03
  10  10  -3   25.04   11.19
  10 -20   0  134.42   11.79
  10  10   0  174.83   16.37
 -20  10   0  145.43   14.69
  10  10   0  148.90   14.09
 -20  10   3   24.19    8.89
  10  10   3   24.55    7.65
  10  10   3   14.90    8.02
  10 -20   3   27.80    7.76
  10  10   6  122.23   10.77
 -20  10   6  130.27   15.56
  10  11 -10   74.71   19.58
  10  11 -10   19.02   19.78
  11 -21 -10   52.34   20.70
 -21  10 -10   62.79   20.95
  11 -21  -7   51.82   16.78
  10  11  -7   90.43   17.61
 -21  10  -7   34.80   16.50
  10  11  -7   63.70   15.83
 -21  10  -7   35.01    7.45
  10  11  -4  104.75   16.69
 -21  10  -4  137.44   19.57
  10  11  -4  133.69   17.45
  11 -21  -4  144.43   17.16
  10  11  -1  261.42   20.87
  10  11  -1  292.77   20.04
 -21  10  -1  277.58   20.66
  11 -21  -1  267.70   17.36
  11 -21   2  218.90   14.17
  10  11   2  262.19   18.81
  10  11   2  245.42   15.53
 -21  10   2  270.40   18.41
 -21  10   5  231.88   18.17
  10  11   5  261.17   16.63
  10  11   5  245.91   12.44
   9  11 -11   85.46   18.88
 -20   9 -11   99.16   25.35
  11 -20 -11   78.84   22.72
   9  11 -11   60.01   20.56
   9  11  -8   21.02   13.94
 -20   9  -8   68.41   17.52
   9  11  -8   37.91   15.16
  11 -20  -8   25.63   14.97
 -20   9  -8   45.93    9.53
 -20   9  -5  298.41   13.88
 -20   9  -5  321.76   26.68
   9  11  -5  346.46   25.96
  11 -20  -5  344.27   24.98
   9  11  -5  311.65   24.42
   9  11  -2  113.21   14.43
   9  11  -2  101.11   15.28
  11 -20  -2  115.34   12.91
 -20   9  -2  100.90   15.30
   9  11   1  540.33   22.53
  11 -20   1  610.96   21.69
   9  11   1  548.25   26.42
 -20   9   1  528.14   24.16
   9  11   4   51.30    7.63
   9  11   4   60.13   10.18
 -20   9   4   47.70    9.99
   9  11   7   57.05    7.93
 -19   8  -9  141.53   14.57
   8  11  -9  136.72   19.38
   8  11  -9  125.56   22.45
  11 -19  -9  134.79   24.06
 -19   8  -9  130.38   22.75
  11 -19  -6   55.59   14.85
 -19   8  -6   50.71    8.03
 -19   8  -6   26.88    9.46
 -19   8  -6   38.68   15.58
   8  11  -6   55.60   14.73
   8  11  -6   79.45   16.70
 -19   8  -3  204.72   12.19
 -19   8  -3  215.65   19.33
  11 -19  -3  217.82   17.88
   8  11  -3  256.51   20.67
   8  11  -3  216.13   18.83
  11 -19   0  286.76   15.71
 -19   8   0  293.17   18.58
   8  11   0  295.18   19.67
   8  11   0  262.25   16.79
  11 -19   3  118.27    9.76
   8  11   3  129.99   12.85
 -19   8   3  140.21   12.92
   8  11   3  140.91   10.64
   8  11   6  155.04   11.66
 -19   8   6  133.01   14.43
   7  11 -10  207.03   25.92
  11 -18 -10  178.40   26.13
   7  11 -10  165.21   22.12
 -18   7 -10  186.87   26.20
 -18   7 -10  173.35   17.57
  11 -18  -7   75.63   16.52
 -18   7  -7   56.84    9.52
   7  11  -7   68.24   16.21
   7  11  -7   65.86   14.06
 -18   7  -7   67.71    9.92
 -18   7  -7   90.00   18.22
   7  11  -4  798.44   34.50
   7  11  -4  781.75   34.05
  11 -18  -4  792.83   33.69
 -18   7  -4  708.29   27.29
 -18   7  -4  731.96   21.66
 -18   7  -4  733.32   34.97
   7  11  -1 1123.78   36.50
 -18   7  -1 1120.77   35.78
  11 -18  -1 1114.07   30.01
   7  11  -1 1131.21   34.76
   7  11   2  386.31   16.63
  11 -18   2  363.75   14.62
 -18   7   2  355.88   17.59
   7  11   2  363.08   19.64
   7  11   5 1291.70   31.02
 -18   7   5 1188.27   33.11
   6  11 -11   54.53   19.42
   6  11 -11   31.29   14.46
  11 -17 -11   52.88   19.36
 -17   6 -11   44.71   18.62
  11 -17  -8    3.65    6.21
 -17   6  -8   15.04   13.19
   6  11  -8   -1.40   13.02
 -17   6  -8   21.05    9.12
  11 -17  -8   23.04   14.15
   6  11  -8   -0.31   11.08
 -17   6  -5  181.09   14.44
 -17   6  -5  196.58   12.87
   6  11  -5  196.74   18.76
 -17   6  -5  191.20   19.98
   6  11  -5  189.09   19.34
  11 -17  -5  208.02   20.70
 -17   6  -2    9.72    5.87
   6  11  -2    7.70    8.26
   6  11  -2   -6.25    8.79
  11 -17  -2    9.44    7.61
 -17   6  -2    8.89    8.59
 -17   6  -2    9.07    7.57
   6  11   1  737.07   27.59
 -17   6   1  753.38   25.33
  11 -17   1  777.05   20.27
   6  11   1  730.55   23.00
   6  11   4   82.85    9.93
   6  11   4   72.24    6.26
 -17   6   4   70.46    9.35
   6  11   7  136.39    8.39
   5  11  -9    2.95   13.22
   5  11  -9   58.01   14.12
 -16   5  -9   50.97   17.62
 -16   5  -9   23.86   10.84
  11 -16  -9    6.63   13.95
  11 -16  -9   15.89    6.94
 -16   5  -6  286.58   15.23
   5  11  -6  317.07   24.48
 -16   5  -6  302.55   25.69
   5  11  -6  298.08   22.47
  11 -16  -6  365.23   26.58
  11 -16  -6  292.73   16.15
 -16   5  -6  324.79   17.31
   5  11  -3    1.72    8.19
 -16   5  -3    6.20    5.44
 -16   5  -3   -4.68    6.45
   5  11  -3   -3.04    9.11
 -16   5  -3   10.41    9.15
  11 -16  -3   11.14    8.46
   5  11   0  362.46   20.40
 -16   5   0  398.01   19.43
   5  11   0  428.64   19.39
  11 -16   0  418.06   15.86
   5  11   3   95.84   10.70
   5  11   3   97.87    7.41
 -16   5   3  117.30   10.04
   5  11   6   45.28    6.78
 -15   4 -10  248.12   21.42
 -15   4 -10  261.28   29.23
   4  11 -10  282.37   24.13
   4  11 -10  209.47   25.66
  11 -15 -10  205.98   27.21
 -15   4  -7  399.57   14.74
   4  11  -7  439.14   26.65
  11 -15  -7  452.56   31.56
  11 -15  -7  401.38   18.71
 -15   4  -7  454.38   30.34
   4  11  -7  355.00   12.23
 -15   4  -7  455.44   22.41
   4  11  -7  443.39   29.62
   4  11  -4 1042.54   37.00
 -15   4  -4 1049.92   29.00
  11 -15  -4 1065.34   36.69
 -15   4  -4 1039.24   26.81
 -15   4  -4 1078.36   38.69
   4  11  -4  999.32   21.52
  11 -15  -4  992.63   28.21
   4  11  -4 1098.11   37.11
 -15   4  -1 1383.86   32.01
   4  11  -1 1287.24   35.00
 -15   4  -1 1481.57   37.31
 -15   4  -1 1322.72   35.31
  11 -15  -1 1452.06   30.71
 -15   4  -1 1426.48   36.81
   4  11  -1 1444.41   35.84
   4  11  -1 1494.34   38.85
 -15   4   2  302.14   14.11
   4  11   2  333.57   17.77
   4  11   2  309.29   12.67
  11 -15   2  283.68    9.60
   4  11   5 1283.07   28.45
 -15   4   5 1190.21   26.78
 -14   3 -11   80.05   16.16
 -14   3 -11   78.58   15.30
   3  11 -11  115.22   21.10
  11 -14 -11   93.71   21.99
 -14   3 -11   83.76   21.68
   3  11 -11   52.33   14.04
 -14   3  -8   56.46   17.28
 -14   3  -8   62.79   11.70
   3  11  -8   76.11   16.08
  11 -14  -8   60.40   16.45
   3  11  -8   66.47   14.35
   3  11  -8   56.40    7.21
  11 -14  -8   68.89    9.75
  11 -14  -5   83.80    9.72
   3  11  -5   97.22   13.41
 -14   3  -5  105.09   10.50
 -14   3  -5  123.66   17.31
   3  11  -5   91.26    7.44
 -14   3  -5  114.18    9.92
   3  11  -5   98.11   15.44
  11 -14  -5   99.74   15.36
 -14   3  -5   85.31   11.96
   3  11  -2  123.07   13.46
   3  11  -2  120.47   13.26
 -14   3  -2  125.67   13.53
 -14   3  -2  114.22    9.88
   3  11  -2  116.29   12.10
  11 -14  -2  146.22   12.54
 -14   3  -2  114.85   11.90
  11 -14  -2  121.41   12.85
 -14   3  -2  121.39   11.72
   3  11  -2  129.35   10.69
   3  11   1  217.78   12.11
 -14   3   1  204.86   12.61
 -14   3   1  190.39   15.01
   3  11   1  226.75   14.81
  11 -14   1  197.71   15.72
   3  11   1  199.78   14.77
 -14   3   1  210.44   15.74
  11 -14   1  217.73    8.94
 -14   3   4   42.42    6.30
   3  11   4   51.37    7.66
   3  11   7  145.52    7.85
   3  11   7  158.35    7.95
 -13   2 -12  -12.74   13.97
  11 -13 -12   -7.29   18.87
   2  11 -12   -5.72   15.49
 -13   2 -12    2.50   17.69
   2  11 -12   10.81   15.34
  11 -13  -9  222.21   25.94
   2  11  -9  165.83   22.38
 -13   2  -9  159.26   17.66
  11 -13  -9  146.87   13.92
 -13   2  -9  197.15   24.53
   2  11  -9  166.08   12.72
   2  11  -9  160.93   18.22
   2  11  -6  259.98   19.62
 -13   2  -6  254.23   17.33
   2  11  -6  252.74   12.53
  11 -13  -6  244.21   14.75
  11 -13  -6  277.38   23.77
 -13   2  -6  257.58   11.43
 -13   2  -6  268.34   17.04
   2  11  -6  278.76   22.48
 -13   2  -6  273.47   22.80
 -13   2  -3  158.91   16.02
  11 -13  -3  169.18   14.89
   2  11  -3  173.19   15.46
 -13   2  -3  155.25   11.30
 -13   2  -3  160.83   11.73
 -13   2  -3  142.60   12.02
   2  11  -3  155.34   14.89
   2  11  -3  156.81   10.41
  11 -13  -3  155.91   14.58
   2  11  -3  139.51   13.23
  11 -13  -3  173.93   13.38
 -13   2   0   25.23    8.22
   2  11   0   33.22    7.37
   2  11   0   25.51    7.17
   2  11   0   23.39    8.99
 -13   2   0   25.30    7.21
 -13   2   0   25.47    8.39
  11 -13   0   36.49    8.24
   2  11   0   22.99    8.41
  11 -13   0   24.01    5.06
 -13   2   0   25.58    6.62
   2  11   3    7.24    5.81
 -13   2   3   13.71    4.52
   2  11   3   13.93    3.01
   2  11   6  173.94   10.11
   1  11 -10  426.65   26.22
 -12   1 -10  398.68   23.80
  11 -12 -10  347.59   31.00
 -12   1 -10  423.89   27.92
   1  11 -10  415.35   32.24
   1  11 -10  381.94   20.25
 -12   1 -10  350.58   33.61
  11 -12 -10  396.79   21.93
   1  11  -7  526.86   26.68
  11 -12  -7  586.47   33.52
  11 -12  -7  547.19   22.68
   1  11  -7  537.77   19.73
 -12   1  -7  468.66   32.08
 -12   1  -7  558.16   25.76
 -12   1  -7  440.47   22.35
   1  11  -7  538.92   31.10
   1  11  -4  751.93   27.67
 -12   1  -4  797.81   21.79
  11 -12  -4  776.35   24.57
  11 -12  -4  674.99   27.32
 -12   1  -4  801.60   33.18
  11 -12  -4  748.25   30.08
   1  11  -4  753.97   20.40
  11 -12  -4  775.09   27.89
 -12   1  -4  723.07   24.41
   1  11  -4  733.22   30.27
   1  11  -4  752.19   28.45
 -12   1  -4  736.32   23.76
   1  11  -1 1940.62   38.34
 -12   1  -1 2100.99   40.95
 -12   1  -1 2046.00   39.35
 -12   1  -1 2031.54   37.21
 -12   1  -1 2045.83   39.21
  11 -12  -1 2004.02   41.01
   1  11  -1 2100.75   40.61
   1  11  -1 2064.89   42.08
  11 -12  -1 2008.76   34.55
   1  11  -1 2023.76   38.66
  11 -12  -1 2018.25   40.36
   1  11   2  336.07   18.42
  11 -12   2  357.17   19.07
   1  11   2  334.41   11.19
 -12   1   2  356.81   19.41
   1  11   2  306.51   15.82
 -12   1   2  337.44   11.59
   1  11   5  917.18   22.62
   0  11 -11    7.26   11.31
   0  11 -11   -3.69   13.32
  11 -11 -11   35.39   18.99
   0  11 -11   34.24   15.99
 -11   0 -11    5.27   15.29
 -11   0 -11   -5.97   12.99
 -11   0  -8   23.41   10.00
   0  11  -8   39.36   13.51
  11 -11  -8   31.01    9.67
 -11   0  -8   18.91    8.31
  11 -11  -8   54.12   14.87
  11 -11  -8   23.74    8.93
 -11   0  -8   40.74   14.02
   0  11  -8   34.71    7.95
   0  11  -8   26.26   10.24
  11 -11  -5   25.23    8.50
   0  11  -5   10.56    8.28
   0  11  -5   32.48   11.06
  11 -11  -5   22.71   11.12
 -11   0  -5   15.68    7.40
 -11   0  -5   18.90    4.79
   0  11  -5   12.27    5.24
  11 -11  -5   13.72    6.74
 -11   0  -5   17.09    6.57
  11 -11  -5   14.29    8.22
   0  11  -2   40.71    7.47
 -11   0  -2   41.25    7.75
   0  11  -2   29.10    8.90
 -11   0  -2   41.11    7.82
  11 -11  -2   30.96    9.23
   0  11  -2   42.61    7.59
 -11   0  -2   53.29    7.94
   0  11  -2   36.61    8.64
  11 -11  -2   41.17    8.65
 -11   0  -2   54.61   10.46
  11 -11  -2   46.38    8.84
  11 -11  -2   33.15    7.84
  11 -11   1    9.39    2.28
   0  11   1   14.57    7.26
   0  11   1    9.01    8.09
   0  11   1   10.03    5.19
 -11   0   1   16.64    8.23
 -11   0   1   19.56    7.58
   0  11   1   15.90    7.27
  11 -11   1   12.34    7.32
 -11   0   1   16.17    5.03
   0  11   4  215.96   12.67
   0  11   7    1.83    3.57
   0  11   7    0.98    3.50
  -1  11 -12  -11.52   15.17
  11 -10 -12  -12.99   18.45
 -10  -1 -12    5.94   19.20
 -10  -1 -12    6.86   13.86
  -1  11 -12    1.05   13.19
 -10  -1  -9  292.13   23.17
  11 -10  -9  304.33   19.98
 -10  -1  -9  254.37   17.27
  11 -10  -9  293.56   28.29
  -1  11  -9  278.31   18.22
  11 -10  -9  254.84   18.56
 -10  -1  -9  345.14   29.34
  -1  11  -9  249.07   24.28
  -1  11  -9  270.68   20.27
  11 -10  -6   15.81    8.28
 -10  -1  -6   18.22    8.42
  11 -10  -6   37.41   11.74
  -1  11  -6   19.97   10.98
  -1  11  -6   20.31    8.10
 -10  -1  -6   11.23    2.49
  11 -10  -6   35.84    8.23
  -1  11  -6   26.75    6.75
 -10  -1  -6   21.38    7.06
  -1  11  -3  612.69   24.33
  11 -10  -3  702.52   26.02
  11 -10  -3  622.16   23.42
  -1  11  -3  713.18   21.19
  11 -10  -3  636.60   22.30
  11 -10  -3  638.79   24.42
 -10  -1  -3  665.61   22.04
 -10  -1  -3  638.80   20.46
 -10  -1  -3  641.34   19.24
  -1  11  -3  624.80   26.09
  -1  11  -3  671.32   22.58
  -1  11   0   12.00    6.46
  -1  11   0    0.73    5.72
 -10  -1   0    2.58    5.40
  11 -10   0   -2.39    6.44
 -10  -1   0   16.44    6.50
  11 -10   0   -0.52    7.48
  -1  11   0   -3.18    7.47
  11 -10   0   10.07    7.94
  11 -10   0    2.51    4.01
 -10  -1   0   -0.34    6.63
 -10  -1   0    4.74    6.43
  -1  11   3  489.82    9.45
 -10  -1   3  602.98   24.47
  11 -10   3  584.57   25.23
  -1  11   3  540.16   23.77
 -10  -1   3  586.30   24.94
  -1  11   6   76.53    7.36
  -2  11 -10  210.37   22.59
  -9  -2 -10  170.61   14.67
  -9  -2 -10  187.99   21.00
  -2  11 -10  203.06   18.03
  -2  11 -10  173.05   16.22
  -9  -2 -10  217.99   26.84
  11  -9 -10  180.48   17.06
  -2  11 -10  197.33   23.26
  11  -9 -10  203.13   17.14
  11  -9 -10  221.85   26.69
  -9  -2  -7  398.10   23.53
  11  -9  -7  423.89   28.43
  -2  11  -7  399.22   26.48
  -2  11  -7  362.51   18.86
  -9  -2  -7  349.54   16.76
  -2  11  -7  340.13   20.21
  11  -9  -7  357.30   20.11
  11  -9  -7  357.88   19.33
  -9  -2  -4  960.69   20.66
  -2  11  -4  931.03   27.30
  11  -9  -4  942.29   29.20
  -9  -2  -4  991.97   23.83
  11  -9  -4  947.29   33.73
  11  -9  -4  910.84   26.82
  -2  11  -4  956.37   25.05
  -9  -2  -4  962.87   28.42
  -2  11  -4  926.17   29.28
  11  -9  -4  908.44   27.72
  -2  11  -4  883.82   32.02
  11  -9  -1 1470.55   28.43
  -2  11  -1 1531.05   33.27
  -9  -2  -1 1518.76   31.28
  11  -9  -1 1517.78   35.30
  -9  -2  -1 1452.90   31.14
  -2  11  -1 1525.98   29.84
  -9  -2  -1 1516.99   30.40
  11  -9  -1 1461.41   31.97
  11  -9  -1 1492.84   33.58
  -2  11  -1 1432.46   31.50
  -9  -2   2  359.70    8.91
  -9  -2   2  339.85   17.96
  -9  -2   2  341.45   17.73
  11  -9   2  351.73   18.91
  -2  11   2  345.34   17.45
  -2  11   2  346.10   20.71
  -2  11   5 1104.24   24.98
  -2  11   8   33.24    4.47
  -2  11   8   41.49    4.77
  11  -8 -11   50.50   20.09
  -3  11 -11   23.94   12.51
  11  -8 -11   50.75   13.07
  -8  -3 -11   28.32   16.75
  -3  11 -11   48.85   12.60
  -3  11 -11   23.19   14.60
  -8  -3 -11   34.29   15.68
  -8  -3  -8  141.09   11.44
  11  -8  -8  138.67   14.15
  -3  11  -8  131.30   18.17
  -3  11  -8  138.32   14.27
  11  -8  -8  144.72   15.17
  -8  -3  -8  100.48   15.39
  -3  11  -8  127.11   13.31
  -8  -3  -8  135.24   11.35
  11  -8  -8  127.98   20.71
  -3  11  -5  102.61   10.74
  11  -8  -5   86.02   10.20
  -3  11  -5   77.80   10.78
  11  -8  -5   92.46   11.51
  11  -8  -5   93.97   11.53
  -8  -3  -5  110.67    8.80
  -8  -3  -5   84.26   11.19
  -3  11  -5   99.59   10.21
  11  -8  -5   79.75   13.74
  -3  11  -5   91.07   12.68
  -8  -3  -2  993.11   23.67
  -3  11  -2  978.51   22.97
  -8  -3  -2  924.93   25.46
  11  -8  -2  940.01   25.19
  11  -8  -2  972.80   28.12
  11  -8  -2  931.58   26.26
  -3  11  -2 1006.10   25.51
  -8  -3  -2  965.79   22.49
  -3  11   1  304.87   14.97
  11  -8   1  305.92   15.80
  -8  -3   1  314.91   16.24
  11  -8   1  283.48   16.32
  11  -8   1  323.29   17.21
  11  -8   1  287.42    7.42
  -8  -3   1  293.95   15.40
  -3  11   1  331.50   18.23
  -8  -3   1  309.16   17.28
  -8  -3   4  167.19   13.90
  -3  11   4  134.48   10.08
  -3  11   7  133.43    9.11
  -4  11 -12   14.67   14.28
  11  -7 -12    5.28   17.81
  -4  11 -12   -1.80   11.34
  11  -7 -12    3.31   11.59
  -7  -4 -12    4.17   17.83
  -7  -4 -12   30.30   16.89
  -4  11 -12   -7.31   13.85
  -7  -4  -9  214.17   12.77
  -4  11  -9  229.38   17.68
  -4  11  -9  244.80   21.76
  11  -7  -9  261.55   19.74
  11  -7  -9  235.32   17.93
  -4  11  -9  260.67   23.50
  -7  -4  -9  244.58   22.97
  -4  11  -9  254.33   19.08
  11  -7  -9  214.92   24.71
  -4  11  -6   -5.78    9.76
  -7  -4  -6    6.05    5.07
  -4  11  -6   -3.35    7.12
  11  -7  -6   -6.18    7.95
  11  -7  -6   -8.21    8.45
  -4  11  -6    4.59    6.82
  11  -7  -6   -0.52   10.46
  -4  11  -6   -2.82    6.22
  11  -7  -6   -0.68    6.82
  -7  -4  -6   10.56    8.42
  -4  11  -3  219.68   13.24
  11  -7  -3  246.01   15.37
  11  -7  -3  230.75   14.33
  -7  -4  -3  256.31   11.15
  11  -7  -3  257.22   13.70
  -4  11  -3  249.68   12.28
  -7  -4  -3  250.83   11.55
  -7  -4  -3  261.77   14.98
  -7  -4   0  429.54   17.96
  11  -7   0  439.90   17.82
  11  -7   0  441.97   18.51
  -4  11   0  423.31   15.33
  11  -7   0  431.52   18.79
  -7  -4   0  437.99   17.54
  -4  11   0  436.24   19.04
  -7  -4   0  456.69   17.16
  -4  11   3  296.77   19.91
  -7  -4   3  329.13   17.92
  -4  11   3  313.42    9.56
  -4  11   3  371.86   19.37
  11  -7   3  357.73   19.80
  -7  -4   3  315.29   18.32
  11  -7   3  290.73    8.76
  -4  11   6  131.82   10.09
  -5  11 -10  276.46   24.20
  -5  11 -10  256.29   24.94
  11  -6 -10  231.04   18.47
  -5  11 -10  272.39   18.30
  11  -6 -10  274.23   21.95
  -5  11 -10  264.85   21.41
  -6  -5 -10  294.51   26.35
  11  -6 -10  302.33   29.89
  11  -6  -7  397.58   28.17
  -5  11  -7  371.21   24.95
  11  -6  -7  363.90   20.65
  11  -6  -7  372.08   21.53
  -6  -5  -7  321.15   12.40
  -6  -5  -7  352.98   12.42
  -5  11  -7  342.96   20.56
  11  -6  -7  361.06   20.00
  -6  -5  -7  426.97   25.45
  -5  11  -7  367.63   19.62
  11  -6  -4 1025.71   30.05
  -5  11  -4 1040.07   25.06
  -6  -5  -4 1050.97   18.53
  11  -6  -4 1048.40   29.76
  11  -6  -4 1070.61   26.07
  -5  11  -4 1077.74   29.15
  -6  -5  -4 1102.45   31.71
  -5  11  -1  750.05   18.05
  -6  -5  -1  713.10   19.07
  -6  -5  -1  718.62   22.22
  11  -6  -1  709.24   23.32
  11  -6  -1  729.89   21.14
  11  -6  -1  665.07   22.23
  -5  11  -1  663.43   22.06
  -6  -5  -1  731.60   21.17
  11  -6   2  902.47   27.28
  -5  11   2  902.22   26.14
  11  -6   2  868.42   23.42
  11  -6   2  867.69   27.28
  -6  -5   2  955.43   29.42
  -6  -5   2  866.66   26.61
  11  -6   2  872.81   14.27
  -5  11   2  908.51   19.30
  -6  -5   2  849.05   13.04
  -6  -5   2  936.45   27.14
  -5  11   2  916.11   30.41
  -6  -5   5  673.19   25.99
  -5  11   5  685.50   21.23
  -5  11   5  620.83   13.26
  -5  11   8  336.39   14.13
  11  -5 -11  155.71   16.48
  11  -5 -11  204.62   28.22
  -6  11 -11  139.25   21.80
  -6  11 -11  137.86   17.76
  -5  -6 -11  154.43   22.26
  11  -5 -11  126.33   17.99
  -6  11 -11  171.18   21.35
  11  -5  -8  664.17   36.87
  11  -5  -8  639.82   27.45
  -6  11  -8  548.25   31.34
  11  -5  -8  557.65   24.93
  11  -5  -8  615.37   28.53
  -5  -6  -8  609.00   32.12
  -5  -6  -8  549.53   14.03
  -6  11  -8  621.68   28.93
  -6  11  -8  613.78   28.59
  -6  11  -8  681.75   26.04
  -6  11  -5  500.73   19.55
  11  -5  -5  474.50   17.78
  -5  -6  -5  463.45   23.06
  -6  11  -5  476.50   20.39
  11  -5  -5  469.72   21.67
  11  -5  -5  474.31   21.94
  -6  11  -5  444.68   21.09
  -5  -6  -5  413.65    9.76
  11  -5  -2 1023.38   27.66
  -6  11  -2  950.48   18.46
  -5  -6  -2  989.43   19.18
  -5  -6  -2 1026.74   27.91
  -5  -6  -2 1037.12   23.99
  -6  11  -2  989.23   26.72
  11  -5  -2 1060.50   23.42
  11  -5  -2 1020.04   28.09
  11  -5   1  644.25   22.33
  11  -5   1  645.69   20.60
  -6  11   1  619.76   19.25
  -5  -6   1  605.48   21.19
  -6  11   1  646.24   18.76
  11  -5   1  661.95   14.69
  -5  -6   1  648.33   21.45
  -5  -6   1  663.44   22.71
  11  -5   1  645.85   22.33
  -6  11   1  666.18   24.25
  -5  -6   1  617.19   16.19
  -6  11   4  805.75   31.51
  -5  -6   4  721.63   26.22
  11  -5   4  750.60   19.52
  -6  11   4  728.72   22.29
  -6  11   4  726.28   16.31
  -6  11   4  740.35   29.03
  -6  11   7  770.71   19.95
  -6  11   7  748.58   22.44
  -7  11 -12   11.12   14.24
  -7  11 -12    3.39   12.55
  -7  11 -12    6.16   12.25
  11  -4 -12   -2.85   12.54
  11  -4 -12   14.82   17.54
  -4  -7 -12   -7.93   17.12
  11  -4  -9  443.79   26.31
  11  -4  -9  508.92   34.75
  -7  11  -9  421.44   20.83
  11  -4  -9  460.96   24.47
  -4  -7  -9  457.48   29.99
  -7  11  -9  474.46   28.01
  -7  11  -9  487.26   27.40
  -7  11  -9  475.69   30.74
  -7  11  -6   68.73   10.25
  -7  11  -6   53.47    9.95
  -4  -7  -6   53.50   10.85
  11  -4  -6   35.41    9.34
  11  -4  -6   51.36    9.67
  11  -4  -6   50.52    7.60
  11  -4  -3  491.22   20.63
  11  -4  -3  509.17   20.96
  -4  -7  -3  465.90   10.61
  11  -4  -3  530.54   15.86
  -7  11  -3  497.38   20.82
  -7  11  -3  523.09   13.31
  -4  -7  -3  489.24   21.00
  11  -4   0  260.49   12.00
  -4  -7   0  264.24   14.27
  -4  -7   0  239.88   12.39
  -4  -7   0  247.85   14.66
  -7  11   0  261.08   10.98
  11  -4   0  252.86   14.46
  11  -4   0  242.10   13.07
  11  -4   0  243.62   14.26
  -7  11   0  245.49   14.64
  -4  -7   0  247.88   13.43
  -7  11   3  177.16   12.31
  -4  -7   3  226.82   14.95
  11  -4   3  198.50   11.29
  -7  11   3  221.91   10.62
  -4  -7   3  183.97    6.67
  11  -4   3  202.57   10.16
  -7  11   3  220.06   17.22
  -4  -7   3  204.01   15.00
  -7  11   3  199.65   14.88
  11  -4   6   72.94    9.71
  -7  11   6   83.75    9.24
  -7  11   6   81.82    7.77
  -8  11 -10  375.21   28.91
  11  -3 -10  357.49   32.43
  -3  -8 -10  389.22   30.49
  -8  11 -10  340.77   26.10
  -8  11 -10  412.93   27.62
  11  -3 -10  373.43   23.38
  11  -3 -10  384.94   26.90
  -8  11 -10  365.84   18.54
  11  -3  -7   60.07   11.33
  -8  11  -7   74.61    9.69
  11  -3  -7   61.18   10.60
  11  -3  -7   74.35    9.19
  -3  -8  -7   88.69   14.58
  -8  11  -7   73.83   12.45
  -8  11  -7   78.83   10.73
  -8  11  -4  149.45   13.48
  11  -3  -4  164.11    8.84
  11  -3  -4  149.24   13.22
  -8  11  -4  147.03    8.24
  11  -3  -4  148.95   13.48
  -3  -8  -4  148.08   14.04
  11  -3  -1  136.74   10.74
  11  -3  -1  155.23   10.05
  -8  11  -1  132.57   11.75
  -8  11  -1  142.25    6.98
  -3  -8  -1  119.74   10.89
  11  -3  -1  119.29   11.34
  11  -3  -1  147.38   11.95
  -3  -8  -1  138.78    8.80
  -3  -8  -1  117.23   11.29
  -8  11   2  697.01   22.91
  -3  -8   2  705.68   24.66
  -3  -8   2  692.30   15.65
  -8  11   2  684.76   19.40
  11  -3   2  670.61   23.03
  11  -3   2  688.16   20.24
  -8  11   2  689.62   26.07
  11  -3   2  711.54   18.37
  -8  11   2  669.98   22.94
  -3  -8   2  678.31   24.24
  -3  -8   2  697.74   24.14
  -3  -8   5  212.80   15.86
  -8  11   5  223.69   11.70
  11  -3   5  218.65   13.89
  -8  11   5  230.15   14.20
  -8  11   8   67.41    9.36
  -8  11   8   78.75    9.76
  -2  -9 -11  177.63   24.13
  11  -2 -11  152.72   17.62
  -9  11 -11  171.76   19.96
  11  -2 -11  121.94   18.76
  -9  11 -11  128.47   19.29
  -9  11 -11  127.59   20.04
  11  -2 -11  186.43   28.17
  -9  11  -8  353.99   20.77
  -9  11  -8  328.83   24.79
  -9  11  -8  334.73   17.85
  11  -2  -8  394.11   22.89
  11  -2  -8  337.82   23.38
  -2  -9  -8  353.27   26.16
  -9  11  -8  371.91   24.93
  11  -2  -8  350.76   16.73
  11  -2  -5  763.35   28.97
  -9  11  -5  798.11   21.18
  -9  11  -5  751.58   28.89
  11  -2  -5  744.20   27.63
  11  -2  -5  747.18   17.05
  -2  -9  -5  763.13   30.95
  -9  11  -5  747.80   19.87
  11  -2  -2  559.29   15.29
  11  -2  -2  546.92   21.41
  -9  11  -2  574.02   22.03
  11  -2  -2  596.18   22.97
  11  -2  -2  589.77   22.77
  -2  -9  -2  551.64   24.04
  -2  -9  -2  535.68   20.88
  -2  -9   1 1616.54   34.36
  -2  -9   1 1662.26   34.62
  -9  11   1 1594.08   36.27
  -9  11   1 1626.23   34.88
  11  -2   1 1604.54   33.38
  11  -2   1 1611.11   28.46
  -9  11   1 1597.24   31.75
  -2  -9   1 1643.37   29.14
  11  -2   1 1624.25   32.25
  -9  11   1 1590.29   29.97
  -2  -9   4  642.64   25.30
  11  -2   4  671.85   21.54
  -9  11   4  616.12   22.19
  -9  11   4  633.07   19.53
  -2  -9   4  626.92   16.03
  11  -2   4  652.29   17.98
  -9  11   4  648.15   27.94
  -9  11   7  723.05   23.69
  -9  11   7  778.24   25.97
 -10  11 -12    3.07   12.91
 -10  11 -12    0.48   13.37
 -10  11 -12    8.35   15.20
  11  -1 -12    4.24   14.67
  -1 -10 -12   29.05   16.79
  11  -1 -12    0.11   20.44
  11  -1  -9  170.02   18.79
  11  -1  -9  189.53   17.97
 -10  11  -9  145.70   12.30
  11  -1  -9  172.13   12.46
 -10  11  -9  178.79   19.92
  -1 -10  -9  164.20   21.21
 -10  11  -9  150.58   15.21
 -10  11  -9  161.84   19.90
  11  -1  -6   24.75   10.01
 -10  11  -6   14.36    9.69
  -1 -10  -6   17.94    9.92
  11  -1  -6   21.15    4.29
  11  -1  -6   30.18   10.97
 -10  11  -6   31.15    6.82
  11  -1  -3  435.04   20.42
  11  -1  -3  372.74   10.67
 -10  11  -3  413.87   21.10
  -1 -10  -3  427.03   20.85
  11  -1  -3  415.96   20.57
  -1 -10  -3  426.48   23.62
 -10  11   0   33.26    8.56
  -1 -10   0   31.63    7.35
 -10  11   0   32.57    7.76
 -10  11   0   29.86    7.92
  11  -1   0   30.68    6.87
  11  -1   0   17.01    7.22
  -1 -10   0   32.04    7.36
  11  -1   0   26.27    7.63
  11  -1   3  461.52   17.65
  -1 -10   3  466.28   15.03
 -10  11   3  446.81   19.60
 -10  11   3  404.24   16.76
  11  -1   3  409.68   15.64
 -10  11   3  433.40   21.94
  11  -1   3  427.69   18.87
 -10  11   6   41.76    8.48
  11  -1   6   38.07    9.17
 -10  11   6   38.80    7.64
 -11  11 -10   60.13   14.42
  11   0 -10   48.55   12.98
 -11  11 -10   37.33   14.79
  11   0 -10   28.55   13.37
 -11  11 -10   37.49   11.57
   0 -11 -10   27.02   13.72
  11   0  -7    2.88    3.12
 -11  11  -7   -0.24    6.73
 -11  11  -7   -0.13    9.29
  11   0  -7   12.04   10.07
  11   0  -7    9.83    3.39
  11   0  -7    1.22    8.94
 -11  11  -7    8.01    6.95
   0 -11  -7    6.89   12.41
  11   0  -4  211.14   16.44
 -11  11  -4  211.08    6.74
 -11  11  -4  231.24   14.86
 -11  11  -4  217.31   17.10
  11   0  -4  216.39   16.77
   0 -11  -4  250.94   18.41
 -11  11  -1    9.28    7.16
   0 -11  -1    9.97    6.94
   0 -11  -1    5.20    6.28
  11   0  -1    6.41    7.83
 -11  11  -1   16.98    6.92
  11   0  -1    4.90    6.43
  11   0  -1   12.46    7.49
 -11  11  -1   23.96    8.10
   0 -11   2   24.37    7.48
 -11  11   2   53.01   10.43
 -11  11   2   34.18    7.85
   0 -11   2   40.53    6.31
 -11  11   2   35.69    7.75
  11   0   2   37.70    8.24
  11   0   2   37.95    7.61
  11   0   2   50.68    7.97
 -11  11   5   25.79    7.43
 -11  11   5   10.62    9.14
   0 -11   5   20.60    6.03
  11   0   5   19.64    7.58
  11   0   5   11.49    4.41
 -11  11   5   25.73    8.06
   1 -12 -11  318.86   30.96
  11   1 -11  376.50   34.86
 -12  11 -11  347.81   29.05
  11   1 -11  323.78   25.44
 -12  11 -11  344.89   24.60
 -12  11 -11  305.40   28.98
  11   1 -11  290.96   27.42
 -12  11  -8  433.32   18.93
 -12  11  -8  439.26   20.48
 -12  11  -8  471.30   29.28
 -12  11  -8  348.18   18.28
   1 -12  -8  404.74   29.09
  11   1  -8  316.75   10.00
  11   1  -8  422.37   27.45
  11   1  -8  468.23   26.23
  11   1  -5  519.58   24.65
 -12  11  -5  549.23   22.21
 -12  11  -5  495.40   13.23
   1 -12  -5  565.91   27.65
 -12  11  -5  510.66   26.10
  11   1  -5  573.75   27.20
 -12  11  -2  797.98   28.67
 -12  11  -2  792.18   28.95
  11   1  -2  808.45   27.67
   1 -12  -2  793.52   29.39
  11   1  -2  868.79   28.74
 -12  11  -2  776.27   25.75
   1 -12  -2  810.00   27.71
  11   1  -2  788.74   27.26
   1 -12   1 2292.35   39.13
  11   1   1 2251.09   39.55
 -12  11   1 2191.62   43.02
  11   1   1 2297.07   40.25
  11   1   1 2165.94   39.18
   1 -12   1 2285.96   40.95
 -12  11   1 2284.20   42.21
 -12  11   1 2315.26   44.50
  11   1   4  384.03   14.68
 -12  11   4  384.81   19.63
 -12  11   4  373.79   18.20
  11   1   4  417.42   19.85
   1 -12   4  356.09   16.16
 -12  11   4  394.56   22.11
 -13  11 -12   17.01   14.73
 -13  11 -12    6.10   15.18
  11   2 -12   19.62   18.76
  11   2 -12   17.62   16.09
   2 -13 -12   16.84   17.46
 -13  11  -9  110.37   13.18
 -13  11  -9   83.93   10.01
  11   2  -9   87.62   15.82
 -13  11  -9  105.83   17.54
  11   2  -9   91.04   15.44
   2 -13  -9  103.47   19.06
  11   2  -6  122.68   14.77
 -13  11  -6   75.34   10.16
 -13  11  -6  111.71   15.33
 -13  11  -6   77.84    7.22
   2 -13  -6  105.59   16.39
  11   2  -6   95.82   15.02
   2 -13  -3   45.59    9.89
  11   2  -3   65.74   11.41
 -13  11  -3   49.93   11.32
 -13  11  -3   59.51    9.36
  11   2  -3   34.27    9.88
  11   2   0   -6.43    5.83
  11   2   0    5.53    7.43
  11   2   0   -3.23    6.95
   2 -13   0   -3.72    6.14
   2 -13   0    0.90    6.41
 -13  11   0    4.01    7.29
 -13  11   0    8.75    7.89
 -13  11   0    4.84    6.60
  11   2   3  114.01   11.64
   2 -13   3  104.87   10.02
 -13  11   3   85.33   11.38
  11   2   3   87.67    9.40
   2 -13   3   83.10   11.33
 -13  11   3   90.33   10.65
  11   2   3   85.47    9.92
 -13  11   3  101.44   11.55
 -13  11   6  377.35   23.56
   2 -13   6  404.07   19.89
  11   2   6  384.30   11.19
 -14  11 -10   66.28   12.10
  11   3 -10   73.58   16.95
 -14  11 -10   85.90   19.19
   3 -14 -10   54.06   17.01
  11   3 -10   71.28   15.38
  11   3  -7  175.21   18.17
  11   3  -7  134.51   17.41
 -14  11  -7  171.12   11.15
   3 -14  -7  155.26   19.33
 -14  11  -7  118.96   17.60
 -14  11  -7  115.97   11.83
  11   3  -4   17.10    8.79
 -14  11  -4   25.94    8.24
 -14  11  -4   13.15    9.11
  11   3  -4   20.30   10.20
   3 -14  -4   20.96    8.93
   3 -14  -1   83.74   10.22
  11   3  -1   90.44   11.59
  11   3  -1   83.05   11.61
 -14  11  -1   90.41   12.24
 -14  11  -1  124.20   13.03
 -14  11  -1   96.52   11.73
   3 -14  -1   73.47   10.59
  11   3  -1   91.26   10.97
  11   3   2  136.36   12.01
   3 -14   2  149.51   12.76
   3 -14   2  153.90   12.14
 -14  11   2  141.94   12.83
  11   3   2  129.02   11.38
 -14  11   2  126.33   12.50
  11   3   2  134.21   12.06
 -14  11   2  143.52   13.57
  11   3   5  121.46    8.71
   3 -14   5  107.49   11.35
 -14  11   5  108.76   14.24
 -15  11 -11  194.38   25.71
  11   4 -11  193.70   21.76
  11   4 -11  188.65   25.69
 -15  11 -11  186.38   23.09
   4 -15 -11  171.03   25.49
  11   4  -8  159.61   18.49
  11   4  -8  122.01   18.40
   4 -15  -8  150.88   20.81
 -15  11  -8  120.94   11.37
 -15  11  -8  147.09   20.53
 -15  11  -5  814.66   14.11
  11   4  -5  995.59   37.26
 -15  11  -5  889.90   29.03
 -15  11  -5  917.30   37.48
  11   4  -5  900.25   34.31
   4 -15  -5  977.79   38.24
  11   4  -2  378.25   21.39
 -15  11  -2  400.67   20.63
 -15  11  -2  433.61   22.44
  11   4  -2  391.69   21.10
   4 -15  -2  408.95   21.14
   4 -15   1 1278.09   31.36
  11   4   1 1124.56   31.55
 -15  11   1 1244.85   34.80
 -15  11   1 1276.84   34.76
   4 -15   1 1265.80   33.17
  11   4   1 1203.77   30.27
  11   4   1 1180.37   32.81
   4 -15   4  587.33   23.69
  11   4   4  609.84   21.80
  11   4   4  620.28   20.33
 -15  11   4  657.06   27.98
  11   5  -9   61.71   17.39
 -16  11  -9   25.60    8.54
 -16  11  -9   55.51   16.62
 -16  11  -9   20.15    7.08
  11   5  -9   47.07   13.74
   5 -16  -9   34.32   15.20
 -16  11  -6   64.80    5.89
  11   5  -6   77.09   14.01
 -16  11  -6   46.90    9.55
 -16  11  -6   83.78   15.03
   5 -16  -6   77.02   15.21
  11   5  -6   56.04   14.73
 -16  11  -3  100.56   11.79
 -16  11  -3   95.80   14.31
  11   5  -3   80.99   12.49
  11   5  -3  115.24   13.96
   5 -16  -3  103.06   13.21
  11   5   0  458.20   22.25
   5 -16   0  415.17   19.41
  11   5   0  434.41   20.55
   5 -16   0  413.55   21.24
 -16  11   0  453.96   21.96
  11   5   3   12.58    6.59
   5 -16   3   12.02    6.67
  11   5   3   22.89    7.18
 -16  11   3   16.30    8.05
   5 -16   3   17.21    8.29
  11   5   6  378.09   13.31
 -16  11   6  351.70   23.76
  11   6 -10   48.10   17.72
  11   6 -10   11.29   12.64
   6 -17 -10    4.21   14.80
 -17  11 -10   -3.46   15.39
 -17  11  -7  219.47   11.67
  11   6  -7  208.62   20.40
   6 -17  -7  197.73   22.14
 -17  11  -7  231.68   23.19
  11   6  -7  192.72   22.18
 -17  11  -7  145.37   13.95
  11   6  -4  118.35   15.93
 -17  11  -4  122.59   16.18
  11   6  -4  130.30   15.56
   6 -17  -4   96.79   14.87
   6 -17  -1 1141.49   32.10
  11   6  -1 1180.94   34.43
  11   6  -1 1140.01   35.75
 -17  11  -1 1125.72   35.84
   6 -17   2   68.48    9.34
  11   6   2   73.59   10.01
   6 -17   2   59.24   10.21
  11   6   2   65.23    9.00
 -17  11   2   73.39   10.81
  11   6   5  154.38   11.10
 -17  11   5  151.22   16.35
  11   7 -11   67.41   19.06
 -18  11 -11   98.36   23.52
   7 -18 -11  114.92   23.30
  11   7 -11   50.20   16.75
   7 -18  -8  244.95   25.01
  11   7  -8  233.84   25.67
 -18  11  -8  225.82   13.72
  11   7  -8  219.86   22.17
 -18  11  -8  233.88   26.32
  11   7  -5  863.38   37.97
  11   7  -5  937.75   37.66
 -18  11  -5  937.44   39.69
   7 -18  -5  907.57   38.38
  11   7  -2  452.93   24.78
  11   7  -2  427.53   23.39
 -18  11  -2  519.68   26.30
   7 -18  -2  488.24   23.17
   7 -18   1  886.99   27.15
  11   7   1  883.74   27.95
 -18  11   1  875.07   30.34
  11   7   1  904.05   30.83
  11   7   4  379.66   17.69
 -18  11   4  379.86   22.09
  11   7   4  415.98   19.07
  11   7   7  199.08    9.03
  11   8  -9   49.88   15.02
 -19  11  -9   48.79   17.42
   8 -19  -9   57.75   18.52
  11   8  -9   50.75   17.91
  11   8  -6  188.11   19.63
 -19  11  -6  141.78    8.25
   8 -19  -6  174.49   20.22
  11   8  -6  182.23   21.64
 -19  11  -6  212.09   22.84
 -19  11  -3   89.66   15.03
  11   8  -3   72.88   13.48
   8 -19  -3   95.21   13.46
  11   8  -3   79.18   13.41
 -19  11   0  328.49   20.27
  11   8   0  289.37   17.98
   8 -19   0  292.88   17.09
  11   8   0  273.78   19.14
 -19  11   3  287.31   18.88
  11   8   3  284.10   15.93
  11   8   3  272.29   17.29
   8 -19   3  246.37   15.90
 -19  11   6   65.24   13.78
  11   8   6   70.49    8.44
  11   9 -10    4.80   16.15
  11   9 -10    8.86   14.97
   9 -20 -10    9.99   16.11
 -20  11 -10    8.82   16.41
  11   9  -7   74.32   17.56
  11   9  -7   87.36   17.02
 -20  11  -7   91.40    8.17
 -20  11  -7  101.32   19.54
   9 -20  -7  110.73   18.56
  11   9  -4   66.03   14.80
  11   9  -4   79.90   15.15
 -20  11  -4   77.79   15.23
   9 -20  -4   59.89   12.82
   9 -20  -1  640.82   25.89
  11   9  -1  638.81   27.61
  11   9  -1  652.95   30.10
 -20  11  -1  634.53   28.99
   9 -20   2   98.82   11.06
 -20  11   2  105.32   13.17
  11   9   2   98.57   11.01
  11   9   2  117.46   13.79
  11   9   5  269.50   15.96
 -20  11   5  285.93   20.87
  11   9   5  221.22   13.33
 -21  11  -8  207.77   24.90
  11  10  -8  255.47   27.01
  10 -21  -8  252.66   29.04
  11  10  -8  208.02   23.56
 -21  11  -5   85.46    6.75
  11  10  -5  123.50   19.05
  11  10  -5  138.93   17.94
  10 -21  -5  111.88   18.26
 -21  11  -5  129.18   18.68
 -21  11  -2  257.59   21.22
  11  10  -2  258.27   20.60
  11  10  -2  249.46   21.20
  10 -21  -2  244.58   18.77
  11  10   1  299.30   20.73
  11  10   1  271.93   17.53
 -21  11   1  243.68   18.46
  10 -21   1  271.64   16.08
  11  10   4  101.03   10.65
 -21  11   4   87.37   12.57
  11  10   4  108.45   12.43
  11  10   7   98.15    9.46
 -21  11   7  100.88   15.60
  11  11  -9  197.83   26.29
  11  11  -9  168.42   23.38
 -22  11  -9  235.95   28.42
  11 -22  -9  248.41   29.06
  11  11  -6   58.73   14.32
  11  11  -6   51.03   15.26
  11 -22  -6   93.19   17.39
 -22  11  -6   46.59   15.81
 -22  11  -6   40.41    5.79
  11  11  -3  368.47   25.84
  11 -22  -3  370.53   23.89
  11  11  -3  378.88   25.89
 -22  11  -3  389.13   26.72
 -22  11   0   37.55   11.29
  11  11   0   23.84   10.07
  11  11   0   35.40    9.40
  11 -22   0   21.09    8.13
 -22  11   3  305.93   20.33
  11  11   3  307.93   20.27
  11  11   3  301.43   17.25
  11 -22   3  293.76   17.03
 -22  11   6   35.53   12.08
  11  11   6   35.90    8.58
  11  12 -10   11.31   15.77
  11  12 -10   20.88   16.12
 -23  11 -10   29.34   17.29
  12 -23 -10    1.81   16.51
 -23  11  -7  201.07   25.58
  11  12  -7  203.79   24.58
  11  12  -7  182.30   22.82
  12 -23  -7  188.46   25.20
 -23  11  -4   97.32   16.77
  11  12  -4  107.74   18.30
  12 -23  -4   85.30   15.05
  11  12  -4  129.03   18.37
  12 -23  -1  302.59   19.91
  11  12  -1  314.35   23.88
  11  12  -1  278.25   20.85
 -23  11  -1  273.64   21.42
  12 -23   2  192.12   14.56
 -23  11   2  192.95   17.10
  11  12   2  193.02   15.38
  11  12   2  233.95   19.35
  11  12   5  211.86   16.48
  11  12   5  191.05   12.75
 -23  11   5  196.00   18.44
  10  12  -8   34.42   14.82
 -22  10  -8   19.89   16.03
  12 -22  -8   18.09   15.56
  10  12  -8   56.81   18.06
  10  12  -5  185.21   21.07
  10  12  -5  140.74   20.33
 -22  10  -5  171.57   21.93
 -22  10  -5  166.97   10.94
  12 -22  -5  193.20   20.81
  10  12  -2  343.60   23.46
  10  12  -2  308.45   23.58
 -22  10  -2  343.77   24.69
  12 -22  -2  344.07   21.32
  10  12   1   80.24   13.77
  12 -22   1   83.03   10.06
 -22  10   1   85.20   12.55
  10  12   1   83.42   11.41
 -22  10   4  128.21   14.76
  10  12   4  167.85   15.17
  10  12   4  131.27   11.87
  10  12   7   -3.16    6.68
   9  12  -9  139.70   20.45
   9  12  -9  172.75   24.95
 -21   9  -9  176.85   27.68
  12 -21  -9  205.24   26.55
   9  12  -6   62.49   16.79
 -21   9  -6   66.41   17.17
   9  12  -6   95.05   15.92
  12 -21  -6   60.19   15.21
 -21   9  -6   70.97    9.07
   9  12  -3  402.91   26.47
  12 -21  -3  407.69   23.86
   9  12  -3  423.48   26.35
 -21   9  -3  400.24   26.28
   9  12   0   58.03   12.52
 -21   9   0   48.84   11.05
  12 -21   0   76.71    9.87
   9  12   0   82.41   11.74
   9  12   3  141.02   11.44
   9  12   3  162.45   15.39
 -21   9   3  155.97   14.27
  12 -21   3  140.99   10.95
 -21   9   6   48.60   11.10
   9  12   6   43.98    8.66
   8  12 -10   44.82   16.99
 -20   8 -10   38.19   18.94
   8  12 -10   28.54   17.92
  12 -20 -10   -5.23   17.19
   8  12  -7  361.46   27.58
  12 -20  -7  421.50   32.54
   8  12  -7  401.98   31.19
 -20   8  -7  365.00   31.26
 -20   8  -7  390.24   19.03
   8  12  -4   63.53   13.67
 -20   8  -4   67.83    8.45
 -20   8  -4   77.63   15.41
   8  12  -4   49.58   13.28
  12 -20  -4   55.80   13.28
   8  12  -1  852.64   34.54
 -20   8  -1  853.20   33.31
   8  12  -1  864.30   31.63
  12 -20  -1  852.84   27.87
  12 -20   2  292.91   14.52
   8  12   2  365.56   21.47
   8  12   2  342.50   16.93
 -20   8   2  328.19   18.53
   8  12   5  383.87   19.23
 -20   8   5  372.26   21.00
   7  12 -11   11.56   14.36
   7  12 -11   19.40   17.30
 -19   7 -11   10.37   16.70
  12 -19 -11   46.99   20.09
   7  12  -8   72.62   18.23
   7  12  -8   53.35   15.69
  12 -19  -8   48.33   16.69
 -19   7  -8   67.40   10.91
 -19   7  -8   78.94   18.59
   7  12  -5   48.50   13.53
   7  12  -5   60.98   14.33
 -19   7  -5   44.66    7.77
 -19   7  -5   41.24   13.60
  12 -19  -5   36.72   11.95
 -19   7  -5   39.00    9.58
   7  12  -2  159.18   17.33
   7  12  -2  172.54   16.82
 -19   7  -2  160.72   16.48
  12 -19  -2  161.41   14.29
   7  12   1   90.22   13.11
 -19   7   1   88.57   10.86
  12 -19   1   97.95    9.13
   7  12   1  107.98   10.96
   7  12   4  148.65   13.11
 -19   7   4  133.26   12.71
   7  12   4  130.29    8.83
   7  12   7  150.89   10.26
 -18   6  -9  153.79   16.07
   6  12  -9  127.44   18.62
 -18   6  -9  143.99   22.58
  12 -18  -9  133.49   23.40
   6  12  -9  130.51   22.09
   6  12  -6   17.50   11.25
   6  12  -6   25.73   12.91
 -18   6  -6   31.01    9.27
 -18   6  -6    8.68   10.97
  12 -18  -6   12.87   12.27
 -18   6  -6   24.68    7.78
  12 -18  -3  306.29   20.33
   6  12  -3  317.54   21.95
 -18   6  -3  334.33   23.28
 -18   6  -3  292.39   15.09
   6  12  -3  340.85   23.22
   6  12   0    7.20    8.74
 -18   6   0   10.73    7.72
   6  12   0   17.09    7.33
  12 -18   0   13.53    6.06
   6  12   3  420.46   20.65
   6  12   3  455.61   15.82
 -18   6   3  398.07   18.02
   6  12   6    5.47    5.87
  12 -17 -10   22.53   16.98
   5  12 -10    9.02   15.77
 -17   5 -10   34.92   19.02
   5  12 -10   15.08   11.73
 -17   5 -10   29.52   11.89
 -17   5  -7  384.41   17.08
 -17   5  -7  484.00   32.60
   5  12  -7  455.20   28.11
  12 -17  -7  449.71   30.91
   5  12  -7  447.07   30.44
 -17   5  -7  466.50   22.37
  12 -17  -7  385.99   18.70
   5  12  -4  167.60   17.75
   5  12  -4  140.33   16.50
 -17   5  -4  175.80   13.92
  12 -17  -4  180.75   17.48
 -17   5  -4  175.55   18.36
 -17   5  -4  167.71   12.58
 -17   5  -1 1090.25   34.09
   5  12  -1 1063.52   32.29
   5  12  -1 1144.84   36.17
  12 -17  -1 1075.72   28.34
  12 -17   2  341.65   11.75
   5  12   2  343.82   14.60
 -17   5   2  334.73   16.29
   5  12   2  350.34   19.14
 -17   5   5  738.70   23.01
   5  12   5  816.97   24.89
   4  12 -11   -6.17   17.82
 -16   4 -11   14.71   12.02
   4  12 -11   13.07   13.50
  12 -16 -11   27.12   19.01
 -16   4 -11  -15.18   17.18
 -16   4  -8   46.56   15.28
 -16   4  -8   16.09    9.26
   4  12  -8   17.00   13.21
   4  12  -8   22.57   11.51
  12 -16  -8   28.87   14.81
   4  12  -8   11.29    4.18
  12 -16  -8   24.36    8.78
   4  12  -5   24.68    5.03
  12 -16  -5   34.49    8.70
  12 -16  -5   17.67   10.07
 -16   4  -5   19.81    7.12
 -16   4  -5   26.69    6.92
   4  12  -5   43.48   11.90
 -16   4  -5   23.66   11.81
   4  12  -5   20.69   11.34
   4  12  -2  209.28   13.54
   4  12  -2  210.93   17.41
 -16   4  -2  249.29   16.66
 -16   4  -2  215.53   13.96
  12 -16  -2  233.78   15.70
 -16   4  -2  271.68   19.31
   4  12  -2  227.33   16.86
   4  12   1   11.43    7.24
   4  12   1   -3.14    6.15
  12 -16   1   15.59    4.39
 -16   4   1   20.33    6.74
   4  12   4   80.03    9.69
 -16   4   4   77.36    8.81
   4  12   4   49.87    4.02
   4  12   7  200.35   10.31
   4  12   7  207.97   10.38
  12 -15  -9   27.51   14.64
   3  12  -9   65.54   14.47
 -15   3  -9   43.10   11.90
   3  12  -9   63.84   17.07
 -15   3  -9   38.23   16.12
  12 -15  -9   42.89    9.18
 -15   3  -6  203.19   14.99
 -15   3  -6  197.39   12.05
 -15   3  -6  162.48   19.91
   3  12  -6  225.52   19.85
  12 -15  -6  227.62   21.63
   3  12  -6  189.31   10.69
  12 -15  -6  181.14   13.86
   3  12  -6  186.40   19.77
  12 -15  -3  104.57   11.76
  12 -15  -3  125.32   13.60
   3  12  -3  112.75   13.78
 -15   3  -3  112.12   11.56
 -15   3  -3  101.23   13.24
 -15   3  -3  115.54   12.33
 -15   3  -3  121.06   10.63
   3  12  -3  113.08   13.51
   3  12  -3   92.36    9.38
   3  12   0  117.52   11.73
  12 -15   0  100.11    8.21
   3  12   0   84.41   10.92
 -15   3   0   84.88   11.07
 -15   3   0  104.35   11.00
 -15   3   0   99.93   11.64
   3  12   0   63.77   10.39
   3  12   3   88.91    6.26
   3  12   3   94.82   10.89
 -15   3   3   84.45    7.92
   3  12   6  137.57    9.87
 -14   2 -10   27.11   12.49
  12 -14 -10   37.84   17.66
 -14   2 -10   21.10   15.87
   2  12 -10   14.78   13.57
   2  12 -10   56.91   18.37
   2  12  -7  727.87   32.75
 -14   2  -7  551.50   14.67
   2  12  -7  624.97   20.11
   2  12  -7  657.63   35.33
  12 -14  -7  647.32   37.27
 -14   2  -7  713.28   37.69
  12 -14  -7  560.65   23.18
 -14   2  -7  691.39   28.26
 -14   2  -4  115.83   10.72
   2  12  -4  115.57   15.30
   2  12  -4  103.03   13.70
 -14   2  -4  127.47   11.46
 -14   2  -4   89.03   11.28
 -14   2  -4  111.29   15.08
   2  12  -4  108.78    9.31
  12 -14  -4  106.85   11.46
  12 -14  -4   98.50   13.33
  12 -14  -1 1074.55   26.19
   2  12  -1 1019.51   31.97
   2  12  -1  999.98   30.22
 -14   2  -1 1054.45   30.87
 -14   2  -1 1101.14   32.01
   2  12  -1 1104.36   31.40
  12 -14  -1 1064.68   32.69
 -14   2  -1 1069.42   31.44
 -14   2  -1 1036.48   28.63
   2  12  -1 1096.58   30.70
 -14   2   2  846.13   20.51
   2  12   2  839.85   26.76
   2  12   2  808.60   19.00
   2  12   5  721.68   21.72
   2  12   8  184.16    5.49
   2  12   8  168.76    5.18
 -13   1 -11    2.69   12.37
   1  12 -11    6.42   14.56
 -13   1 -11    0.17   16.49
  12 -13 -11   -6.58   17.16
   1  12 -11   14.85   12.32
 -13   1  -8   11.37   12.76
  12 -13  -8  -20.29   13.62
 -13   1  -8    6.61    8.92
   1  12  -8    4.28   11.98
   1  12  -8   19.66    6.99
  12 -13  -8    9.56    8.56
   1  12  -8    2.74    9.70
   1  12  -5   41.73   10.77
 -13   1  -5   28.93    8.19
 -13   1  -5   44.65    7.01
  12 -13  -5   38.61   12.74
   1  12  -5   34.88    6.63
   1  12  -5   40.44   12.59
 -13   1  -5   41.37    8.26
  12 -13  -5   32.69    8.66
 -13   1  -5   23.87   11.35
   1  12  -2   36.29    7.99
   1  12  -2   22.23    7.54
 -13   1  -2   30.41    7.37
   1  12  -2   41.63   10.06
  12 -13  -2   29.90    8.37
 -13   1  -2   32.92    9.99
 -13   1  -2   32.44    7.41
 -13   1  -2   40.53    8.39
   1  12  -2   37.97    9.91
  12 -13  -2   24.72    7.87
  12 -13  -2   48.21    9.63
   1  12   1  257.33   18.37
 -13   1   1  255.86   17.10
 -13   1   1  266.11   17.88
  12 -13   1  227.52   16.15
   1  12   1  301.43   16.94
  12 -13   1  267.12    8.39
 -13   1   1  293.16   13.68
   1  12   1  267.28   16.82
   1  12   1  263.25   13.01
   1  12   4   92.88    9.28
 -13   1   4   76.75    5.37
   1  12   7   37.86    5.57
   1  12   7   35.63    5.52
   0  12 -12   45.71   18.94
 -12   0 -12   16.17   14.51
 -12   0 -12   14.70   17.99
   0  12 -12   25.26   17.48
  12 -12 -12    3.62   19.64
   0  12  -9   23.71   12.30
   0  12  -9   30.19    8.47
  12 -12  -9   40.39   15.96
 -12   0  -9   47.81   16.92
   0  12  -9   43.59   12.56
 -12   0  -9   38.77   12.29
  12 -12  -9   23.64    9.89
   0  12  -6  258.25   19.11
  12 -12  -6  270.30   22.23
   0  12  -6  305.31   23.43
 -12   0  -6  288.44   24.37
 -12   0  -6  240.54   15.53
   0  12  -6  271.61   14.65
  12 -12  -6  275.38   18.77
 -12   0  -6  247.94   10.37
  12 -12  -6  249.36   16.16
 -12   0  -6  279.43   18.59
   0  12  -3   21.01    9.29
   0  12  -3   30.14    9.29
 -12   0  -3   26.59    6.81
 -12   0  -3   24.93    6.80
 -12   0  -3   25.84    7.00
  12 -12  -3   13.67    8.38
  12 -12  -3   24.45    7.95
   0  12  -3   26.57    7.13
 -12   0  -3   19.63   10.08
  12 -12  -3   27.71    9.35
   0  12  -3   32.36    7.28
  12 -12  -3   19.38    8.32
  12 -12   0   40.45    8.34
 -12   0   0   60.75    9.23
  12 -12   0   65.30    6.61
 -12   0   0   46.42    8.93
 -12   0   0   57.78    8.45
 -12   0   0   50.38    8.86
   0  12   0   63.08   10.44
   0  12   0   56.21    9.74
   0  12   0   61.20    9.13
   0  12   0   59.64    8.78
   0  12   3    1.95    6.03
   0  12   3    4.04    2.39
 -12   0   3    3.43    2.65
   0  12   6  322.16   14.17
   0  12   6  297.85   13.60
  -1  12 -10  104.98   20.21
 -11  -1 -10   44.81   18.03
  -1  12 -10   76.88   14.55
 -11  -1 -10   76.90   12.04
  12 -11 -10   87.21   21.18
  -1  12 -10   71.64   11.50
  12 -11 -10   82.95   13.63
 -11  -1 -10  104.33   18.07
  -1  12  -7  804.80   32.24
  12 -11  -7  752.53   37.95
  -1  12  -7  729.93   25.00
  -1  12  -7  775.00   36.92
  12 -11  -7  712.73   28.53
  12 -11  -7  703.69   26.95
 -11  -1  -7  659.20   24.28
 -11  -1  -7  725.22   30.07
 -11  -1  -4  380.00   15.20
  -1  12  -4  401.62   19.62
 -11  -1  -4  348.08   17.60
  -1  12  -4  362.62   20.42
  12 -11  -4  349.22   19.84
  12 -11  -4  371.74   22.03
  12 -11  -4  375.20   18.18
 -11  -1  -4  414.41   17.55
  -1  12  -4  347.41   15.89
  12 -11  -4  357.10   19.47
  -1  12  -4  344.53   21.81
 -11  -1  -1 2300.34   41.13
  -1  12  -1 2333.90   43.73
 -11  -1  -1 2334.03   43.41
 -11  -1  -1 2356.57   41.18
  -1  12  -1 2384.30   40.77
 -11  -1  -1 2391.47   42.24
  12 -11  -1 2384.35   44.96
  12 -11  -1 2269.47   42.99
  -1  12  -1 2295.91   42.21
  12 -11  -1 2431.36   37.84
  -1  12  -1 2358.00   45.00
  12 -11  -1 2363.10   46.04
  -1  12   2  721.58   30.51
  -1  12   2  725.38   25.95
  -1  12   2  755.52   17.20
 -11  -1   2  809.88   28.14
 -11  -1   2  773.46   27.92
  12 -11   2  785.11   28.23
 -11  -1   2  769.68   15.77
  -1  12   8  311.04   10.20
  -1  12   8  334.78   10.68
  -2  12 -11  101.34   18.02
  12 -10 -11   86.96   21.79
  -2  12 -11   75.09   13.67
  -2  12 -11   96.55   20.27
  12 -10 -11   79.52   14.52
 -10  -2 -11  119.87   23.97
  -2  12 -11   73.45   12.96
 -10  -2 -11   98.15   18.22
 -10  -2  -8   26.71   10.85
  -2  12  -8   -1.68    8.97
  12 -10  -8   31.01   14.72
  12 -10  -8   18.69    9.64
  12 -10  -8   22.83    9.71
  -2  12  -8   24.73    8.13
 -10  -2  -8   26.56    8.14
  -2  12  -8   22.87   13.13
 -10  -2  -5  326.92   12.15
  12 -10  -5  306.65   18.44
  -2  12  -5  301.73   18.08
 -10  -2  -5  310.32   15.07
  12 -10  -5  280.16   16.65
  -2  12  -5  298.45   15.80
  -2  12  -5  303.33   18.95
  12 -10  -5  272.84   17.66
 -10  -2  -5  333.38   18.94
  12 -10  -5  298.13   21.58
  -2  12  -5  335.99   22.67
 -10  -2  -2    5.14    6.28
 -10  -2  -2    3.28    6.10
 -10  -2  -2   11.38    6.49
  -2  12  -2   -5.39    8.18
  -2  12  -2   12.05    8.13
  12 -10  -2   30.05    9.18
  12 -10  -2    3.46    6.64
  12 -10  -2   14.46    6.46
  -2  12  -2    9.67    6.57
  -2  12  -2    4.44    4.81
  12 -10  -2   16.30    8.18
  -2  12   1   18.76    9.12
  -2  12   1   16.35    5.90
 -10  -2   1   32.21    8.08
  12 -10   1   18.11    2.78
  12 -10   1   16.13    2.71
 -10  -2   1   20.07    5.14
 -10  -2   1   15.89    7.78
 -10  -2   1   36.22    7.84
  12 -10   1   24.39    7.87
  -2  12   1   18.44    7.05
  -2  12   7   66.45    7.32
  -3  12 -12   30.02   15.25
  12  -9 -12   28.58   21.18
  -9  -3 -12   57.30   17.50
  -3  12 -12   71.02   19.38
  -3  12  -9   70.23   12.11
  -9  -3  -9   52.20    9.37
  -3  12  -9   69.25   17.48
  12  -9  -9   54.91   12.06
  -3  12  -9   48.47   10.65
  12  -9  -9   34.84   15.98
  12  -9  -9   66.32   12.55
  -9  -3  -9   54.33   14.96
  -3  12  -6  304.41   22.82
  -3  12  -6  289.32   18.65
  12  -9  -6  268.41   17.73
  12  -9  -6  273.39   17.79
  12  -9  -6  276.57   23.51
  -3  12  -6  290.10   17.00
  -3  12  -6  250.92   17.93
  -9  -3  -6  280.30   19.08
  -9  -3  -6  272.75   13.68
  12  -9  -6  252.36   17.58
  -3  12  -3  190.97   14.49
  -3  12  -3  206.29   12.86
  12  -9  -3  180.35   13.85
  -9  -3  -3  186.62   11.10
  12  -9  -3  185.17   13.95
  12  -9  -3  192.58   13.06
  -3  12  -3  189.47   12.18
  -9  -3  -3  194.21   11.38
  -9  -3  -3  220.30   14.38
  -3  12  -3  164.05   15.35
  -9  -3   0  246.75   15.24
  12  -9   0  250.02   15.92
  -9  -3   0  225.85   14.41
  -9  -3   0  225.88   13.80
  12  -9   0  241.79   14.53
  -3  12   0  238.75   13.32
  12  -9   0  286.37   17.01
  -3  12   0  240.17   16.06
  -3  12   3   85.19   14.39
  -9  -3   3  106.36   12.04
  -3  12   3   88.02   10.87
  12  -9   3   95.61   12.48
  -3  12   3   99.30    5.68
  -9  -3   3  105.96   12.02
  -3  12   6  251.40   13.22
  -3  12   9   39.32    3.99
  -4  12 -10   -0.50   10.33
  12  -8 -10   25.81   18.16
  12  -8 -10   24.22   10.39
  -8  -4 -10   -3.23   11.27
  12  -8 -10   22.81   11.74
  -4  12 -10    0.02    8.65
  -4  12 -10    4.84   13.40
  -4  12 -10   20.72   10.57
  12  -8  -7  686.55   35.72
  -4  12  -7  663.68   33.41
  -4  12  -7  653.57   27.01
  12  -8  -7  556.13   25.58
  12  -8  -7  649.91   27.11
  -8  -4  -7  626.23   18.75
  -8  -4  -7  635.05   29.57
  12  -8  -7  667.97   27.34
  -4  12  -7  667.22   26.42
  -4  12  -4  262.46   19.30
  -8  -4  -4  280.32   17.02
  -8  -4  -4  286.45   12.11
  -4  12  -4  278.92   14.47
  -4  12  -4  284.96   17.19
  -8  -4  -4  287.90   12.11
  12  -8  -4  293.08   16.93
  -4  12  -4  268.66   15.35
  12  -8  -4  292.07   15.79
  12  -8  -4  289.86   17.79
  -4  12  -1 2332.96   41.92
  12  -8  -1 2360.95   43.87
  -8  -4  -1 2389.71   39.35
  12  -8  -1 2348.67   40.40
  12  -8  -1 2372.10   42.87
  -8  -4  -1 2340.62   36.99
  -8  -4  -1 2273.13   40.21
  -4  12  -1 2321.61   35.67
  -4  12   2  225.74   14.65
  12  -8   2  222.58   15.90
  12  -8   2  236.97   14.53
  -8  -4   2  210.27    7.25
  -8  -4   2  231.53   15.93
  -4  12   2  233.63   10.38
  -8  -4   2  240.04   15.53
  -4  12   2  243.49   18.41
  -8  -4   2  210.67    7.46
  -4  12   5 1046.50   26.24
  -4  12   8   64.68    7.30
  -5  12 -11  218.40   21.91
  -5  12 -11  249.80   25.50
  12  -7 -11  322.18   33.66
  12  -7 -11  253.22   22.37
  -5  12 -11  288.00   27.64
  -7  -5 -11  285.37   27.64
  -5  12  -8   14.86   11.99
  -7  -5  -8   23.58    5.58
  12  -7  -8   28.95   10.48
  12  -7  -8    9.88   12.35
  12  -7  -8   13.89    8.92
  -5  12  -8   29.05   10.12
  -5  12  -8   27.10    9.75
  -7  -5  -8   25.55    5.35
  -7  -5  -8   25.88   11.30
  -5  12  -5 1225.55   39.37
  -5  12  -5 1204.25   33.49
  12  -7  -5 1240.41   34.79
  -7  -5  -5 1130.32   20.64
  12  -7  -5 1137.52   32.95
  12  -7  -5 1183.94   30.42
  -7  -5  -5 1190.69   35.61
  -5  12  -5 1215.14   30.75
  -5  12  -5 1177.82   32.51
  -7  -5  -2  107.12    9.34
  12  -7  -2  119.80   11.60
  -5  12  -2  114.30    8.59
  -7  -5  -2  100.16   10.83
  -7  -5  -2   97.31    8.33
  12  -7  -2  101.01   11.56
  -5  12  -2   99.96   10.52
  12  -7  -2   93.59    9.25
  -7  -5   1  352.72   13.22
  -5  12   1  296.79   14.98
  -7  -5   1  328.06   17.91
  12  -7   1  319.79   16.13
  12  -7   1  352.96   17.85
  12  -7   1  336.87    9.92
  -5  12   1  358.29   19.52
  12  -7   1  313.23   17.50
  -7  -5   1  316.68   16.69
  -7  -5   1  337.26   16.62
  -5  12   4  387.81   24.27
  -7  -5   4  443.87   21.61
  -5  12   4  388.33   10.63
  -5  12   4  426.80   17.55
  12  -7   4  405.51   13.05
  -5  12   7  480.89   17.90
  -6  12 -12   61.41   20.38
  12  -6 -12   31.52   14.02
  -6  12 -12   69.83   17.34
  -6  12 -12   48.05   13.44
  12  -6 -12   79.06   24.25
  -6  -6 -12   45.75   17.07
  -6  12  -9   64.18   11.67
  12  -6  -9   89.05   20.59
  -6  -6  -9   43.48    4.99
  -6  12  -9   63.39   12.96
  -6  12  -9   65.16   13.94
  -6  12  -9   44.17   14.08
  12  -6  -9   74.71   12.83
  12  -6  -9   68.49   14.26
  -6  -6  -9   53.97   15.16
  -6  12  -6  401.26   20.49
  -6  12  -6  415.32   21.45
  -6  12  -6  405.71   19.87
  12  -6  -6  390.90   21.23
  -6  12  -6  372.47   24.25
  -6  -6  -6  339.71   10.12
  -6  -6  -6  384.40   22.62
  12  -6  -6  386.33   21.09
  12  -6  -6  391.08   18.46
  -6  -6  -3   73.76    7.81
  12  -6  -3   70.85    8.06
  12  -6  -3   64.65   10.57
  -6  12  -3   73.04    6.86
  -6  12  -3   58.45    9.03
  -6  -6  -3   66.19    6.14
  12  -6  -3   90.61   11.23
  -6  -6  -3   74.23   10.27
  -6  -6   0 1404.20   31.47
  -6  -6   0 1392.21   29.78
  12  -6   0 1316.74   31.76
  -6  12   0 1321.01   26.38
  12  -6   0 1408.24   31.74
  12  -6   0 1377.12   25.19
  -6  12   0 1277.75   32.69
  -6  -6   0 1341.01   31.73
  -6  12   3   41.27   10.62
  -6  -6   3   48.22    9.44
  12  -6   3   46.77   10.62
  -6  12   3   42.16    9.45
  12  -6   3   33.03    7.23
  12  -6   3   39.45    4.94
  -6  12   3   42.67    5.68
  -6  12   3   47.60    7.87
  -6  -6   3   58.49    9.65
  -6  12   6  397.09   17.30
  -6  12   6  397.99   12.27
  -7  12 -10  -12.28   13.24
  12  -5 -10   16.45   10.85
  -7  12 -10   24.80    9.34
  12  -5 -10    5.55    9.87
  -7  12 -10   12.73   10.13
  -5  -7 -10   13.98   12.65
  12  -5 -10   26.18   18.29
  -7  12 -10   22.51   10.57
  12  -5  -7  497.28   25.63
  -5  -7  -7  553.56   29.90
  12  -5  -7  502.70   24.91
  12  -5  -7  473.48   20.77
  -7  12  -7  548.32   26.53
  -7  12  -7  562.13   25.21
  -7  12  -7  558.12   23.84
  -7  12  -7  546.58   30.22
  -7  12  -4  109.24    8.16
  12  -5  -4  111.90   12.16
  -5  -7  -4   97.87    5.17
  12  -5  -4  119.50    9.07
  12  -5  -4  109.72   12.16
  -7  12  -4  103.76   11.78
  -5  -7  -4  105.35   12.40
  -5  -7  -1  321.23   17.74
  12  -5  -1  346.99   17.75
  12  -5  -1  309.37   16.36
  -7  12  -1  324.15   11.82
  12  -5  -1  309.22   15.35
  -7  12  -1  349.98   17.55
  12  -5  -1  328.84   15.09
  -5  -7  -1  331.19   16.46
  -5  -7  -1  329.83   13.60
  -5  -7  -1  330.36   15.45
  12  -5   2  136.71   12.76
  -5  -7   2  147.97   12.52
  -7  12   2  163.75   12.68
  -5  -7   2  159.82   12.91
  -7  12   2  137.98   12.08
  12  -5   2  143.32   10.69
  -5  -7   2  150.08   14.29
  -5  -7   2  169.68    7.67
  -7  12   2  154.49   10.03
  12  -5   2  164.86   13.89
  12  -5   2  158.96    8.33
  -7  12   2  104.46   13.36
  12  -5   5 1087.57   27.22
  -7  12   5 1093.12   21.53
  -7  12   5 1040.43   27.87
  -7  12   8   -3.89    6.67
  12  -4 -11  372.87   24.55
  -8  12 -11  391.91   28.44
  12  -4 -11  464.13   38.61
  -4  -8 -11  355.90   31.62
  -8  12 -11  390.00   28.92
  12  -4 -11  400.51   28.51
  -8  12 -11  360.87   30.98
  -8  12  -8   27.17   10.25
  -8  12  -8   16.37   11.54
  12  -4  -8   35.92   11.39
  -8  12  -8   34.54   10.58
  12  -4  -8   22.64   10.81
  -8  12  -8   15.82    8.92
  -4  -8  -8   20.24   12.25
  12  -4  -8   12.53    7.39
  -4  -8  -5 1263.21   38.44
  12  -4  -5 1218.61   35.59
  12  -4  -5 1206.33   35.95
  -8  12  -5 1139.70   34.65
  -8  12  -5 1222.19   26.84
  12  -4  -5 1222.78   25.67
  -4  -8  -2  117.43   13.53
  12  -4  -2  129.46    9.13
  -4  -8  -2  134.13    8.01
  -4  -8  -2  151.33   13.05
  12  -4  -2  136.71   12.28
  -8  12  -2  142.18   12.78
  -8  12  -2  150.67    7.24
  12  -4  -2  125.98   12.37
  -8  12   1 2438.81   38.88
  -4  -8   1 2416.10   44.26
  -8  12   1 2456.51   39.19
  -8  12   1 2413.32   43.07
  -4  -8   1 2399.74   41.86
  -8  12   1 2518.60   47.12
  12  -4   1 2508.54   33.26
  12  -4   1 2542.34   45.04
  12  -4   1 2388.20   40.17
  12  -4   1 2396.30   42.76
  -4  -8   1 2493.13   35.18
  -4  -8   1 2454.87   43.60
  -4  -8   4  679.18   26.64
  12  -4   4  704.65   20.42
  -8  12   4  685.25   23.43
  12  -4   4  715.98   20.11
  -8  12   4  723.53   19.42
  -8  12   4  694.10   30.30
  -8  12   7  294.57   16.27
  -8  12   7  298.64   14.28
  -9  12 -12   48.93   17.27
  -9  12 -12   97.85   18.68
  12  -3 -12  106.46   24.66
  12  -3 -12   90.06   18.88
  -9  12 -12   78.66   18.08
  -3  -9 -12   91.44   20.95
  -9  12  -9   44.54    8.98
  -9  12  -9   29.08    9.83
  -9  12  -9   18.96   13.27
  -9  12  -9   45.58   13.65
  12  -3  -9   32.77   12.73
  -3  -9  -9   32.91   15.32
  12  -3  -9   27.31   10.76
  -9  12  -6  274.55   14.70
  -9  12  -6  248.55   14.52
  12  -3  -6  215.16   17.82
  12  -3  -6  239.95   11.94
  12  -3  -6  278.47   18.85
  -9  12  -6  263.32   19.48
  -3  -9  -6  223.04   18.86
  -3  -9  -3    4.13    8.49
  -3  -9  -3    3.99    7.15
  -9  12  -3    8.38    2.62
  12  -3  -3   13.22    8.00
  12  -3  -3   16.51    4.77
  -9  12  -3   12.54    8.31
  12  -3  -3    7.53    7.51
  -9  12   0  357.23   13.19
  12  -3   0  362.53   15.25
  -3  -9   0  372.71   16.40
  -3  -9   0  380.97   18.00
  12  -3   0  330.15   16.81
  -9  12   0  307.10   16.58
  12  -3   0  362.00   16.56
  -3  -9   0  362.35   17.51
  -9  12   0  358.02   18.18
  12  -3   0  331.02   17.09
  -3  -9   0  362.17   16.78
  -9  12   0  348.93   17.06
  -9  12   3  105.42   12.00
  -3  -9   3  120.51   12.09
  -9  12   3  112.12   11.22
  -3  -9   3  132.73    7.55
  12  -3   3  123.69   10.22
  -3  -9   3  130.64   13.68
  12  -3   3  115.69    9.27
  -9  12   3  112.63    9.48
  -9  12   3  136.07   15.16
  12  -3   3  128.32   12.45
  12  -3   6  362.28   19.59
  -9  12   6  318.41   17.53
  -9  12   6  337.05   15.22
 -10  12 -10   14.55   10.92
  12  -2 -10   24.36   15.69
 -10  12 -10   17.70    7.39
  -2 -10 -10   41.07   16.09
 -10  12 -10   44.39   14.54
  12  -2 -10   35.07   12.09
  12  -2 -10   25.65   13.06
 -10  12 -10   39.64   14.92
 -10  12  -7  175.29   13.85
  12  -2  -7  188.95   16.72
  12  -2  -7  190.33   18.20
 -10  12  -7  177.62   17.30
  -2 -10  -7  167.26   19.20
  12  -2  -7  163.82   10.10
 -10  12  -7  177.81   13.40
  -2 -10  -4   46.43   10.47
 -10  12  -4   52.71    4.91
  12  -2  -4   50.70    5.09
 -10  12  -4   36.47    9.69
  12  -2  -4   57.31   10.62
  12  -2  -4   57.60   10.34
 -10  12  -4   50.35    4.55
  12  -2  -1   -3.69    7.84
  -2 -10  -1    8.74    7.41
 -10  12  -1    4.48    7.30
 -10  12  -1    9.11    3.28
 -10  12  -1    6.09    6.84
  12  -2  -1   19.11    5.99
  -2 -10  -1    9.02    7.75
 -10  12  -1   15.09    8.23
  12  -2  -1   16.27    6.94
  12  -2  -1    4.01    7.69
  -2 -10   2   30.20    9.03
  -2 -10   2   35.59    8.36
  -2 -10   2   28.58    5.30
  12  -2   2   21.12    6.98
 -10  12   2   34.54    8.42
 -10  12   2   37.45    7.87
 -10  12   2   26.66    9.18
  12  -2   2   33.31    6.47
  12  -2   2   39.51    8.24
 -10  12   5  210.51   18.44
 -10  12   5  185.73   13.82
  12  -2   5  227.67   10.99
  -2 -10   5  199.21   10.59
  12  -2   5  218.89   14.90
 -10  12   5  215.61   12.99
 -10  12   8    4.64    7.94
 -10  12   8   12.89    7.59
  12  -1 -11  499.61   29.87
  12  -1 -11  493.36   34.05
  12  -1 -11  478.38   39.35
 -11  12 -11  475.95   33.98
  -1 -11 -11  420.81   36.45
 -11  12 -11  482.11   29.17
 -11  12 -11  465.96   33.51
  12  -1  -8   60.28    6.92
 -11  12  -8   74.40   10.89
 -11  12  -8   72.88   15.40
  12  -1  -8   85.39   12.85
 -11  12  -8   47.94    9.28
  12  -1  -8   90.96   15.37
 -11  12  -8   70.46   10.28
  -1 -11  -8   68.34   16.31
  12  -1  -5  883.50   31.44
 -11  12  -5  900.35   18.98
  12  -1  -5  875.77   32.56
  12  -1  -5  763.58   14.38
 -11  12  -5  791.83   17.70
 -11  12  -5  837.46   32.25
  -1 -11  -5  903.87   34.70
 -11  12  -2  330.16   19.44
 -11  12  -2  331.94   17.80
  12  -1  -2  347.10   19.13
  12  -1  -2  334.78   18.80
  12  -1  -2  328.18   12.49
  -1 -11  -2  363.98   18.92
  12  -1  -2  359.19   19.13
 -11  12  -2  347.86   19.06
  -1 -11  -2  338.72   20.39
  12  -1   1 1946.05   34.84
 -11  12   1 1944.09   38.31
  12  -1   1 1950.66   38.45
  12  -1   1 1976.71   38.21
 -11  12   1 1895.59   40.46
 -11  12   1 2015.15   41.98
  -1 -11   1 1975.46   34.97
  -1 -11   1 1952.96   39.87
  12  -1   4  791.62   25.13
  12  -1   4  799.20   21.06
 -11  12   4  748.06   26.32
  -1 -11   4  816.75   20.68
 -11  12   4  743.68   30.85
 -11  12   4  782.68   24.12
 -11  12   7  416.35   20.17
  12   0 -12   29.77   16.53
 -12  12 -12   -6.16   13.93
  12   0 -12   28.41   17.14
   0 -12 -12   23.59   17.61
 -12  12 -12   20.47   14.60
 -12  12  -9   12.03    7.23
  12   0  -9    1.34   11.40
  12   0  -9   29.66   12.72
   0 -12  -9   12.90   12.96
 -12  12  -9   12.17    8.66
 -12  12  -9   38.60   13.38
 -12  12  -6  346.93   23.65
  12   0  -6  357.51   22.12
   0 -12  -6  373.10   24.97
  12   0  -6  375.15   23.14
 -12  12  -6  316.49   18.19
 -12  12  -6  362.81   13.99
   0 -12  -3   17.83    7.97
  12   0  -3    4.84    8.22
 -12  12  -3    7.55    6.70
  12   0  -3   10.63   10.01
 -12  12  -3    9.26    8.22
 -12  12   0   28.99    8.57
  12   0   0   25.17    7.94
  12   0   0   35.56    7.61
 -12  12   0   23.97    7.30
 -12  12   0   32.77    8.44
  12   0   0   29.02    8.26
   0 -12   0   18.60    7.48
   0 -12   0   42.26    8.65
   0 -12   3   33.61    9.60
  12   0   3   21.96    6.36
 -12  12   3   27.58    7.98
 -12  12   3   23.91    7.10
   0 -12   3   21.70    5.31
 -12  12   3   30.59   10.13
  12   0   3   24.50    7.24
  12   0   3   26.55    7.94
 -12  12   6  237.25   20.80
 -12  12   6  192.66   14.58
 -13  12 -10   32.07   12.48
 -13  12 -10   46.52   11.66
  12   1 -10   60.00   16.51
 -13  12 -10   53.12   15.64
  12   1 -10   64.21   14.42
   1 -13 -10   41.60   16.44
   1 -13  -7    1.13   11.04
  12   1  -7    4.27   10.32
 -13  12  -7   19.08   12.49
 -13  12  -7    7.14    7.44
  12   1  -7    9.83    9.87
 -13  12  -7   21.19    6.87
  12   1  -4   22.38   10.06
 -13  12  -4   30.54    8.18
  12   1  -4   23.38    9.90
 -13  12  -4   26.98    9.80
   1 -13  -4   34.54    9.94
  12   1  -1  185.63   13.96
 -13  12  -1  165.86   14.73
   1 -13  -1  140.86   12.77
   1 -13  -1  184.79   15.24
 -13  12  -1  168.26   14.05
  12   1  -1  162.44   13.88
 -13  12  -1  152.29   14.27
  12   1  -1  170.38   14.61
  12   1   2   25.73    7.20
 -13  12   2   34.25    8.85
  12   1   2   22.79    6.79
 -13  12   2   13.85    6.96
   1 -13   2   22.14    6.60
  12   1   2   27.57    8.18
   1 -13   2   27.95    8.04
 -13  12   2   21.84    9.10
  12   1   5   92.87    7.84
 -13  12   5   73.55   10.72
   1 -13   5   94.48    9.92
 -13  12   5   82.85   14.08
 -14  12 -11  470.36   34.09
  12   2 -11  507.99   31.54
  12   2 -11  518.47   35.59
 -14  12 -11  524.91   36.88
   2 -14 -11  548.97   40.42
  12   2  -8  113.82   15.92
   2 -14  -8  121.54   20.04
 -14  12  -8  133.37   11.39
 -14  12  -8  133.98   19.65
  12   2  -8  136.29   18.59
  12   2  -5  798.40   32.27
 -14  12  -5  728.19   27.05
 -14  12  -5  859.11   34.84
 -14  12  -5  674.59   11.45
   2 -14  -5  849.23   34.60
  12   2  -5  815.28   33.09
  12   2  -2  602.70   25.25
  12   2  -2  611.79   25.35
 -14  12  -2  604.95   24.54
 -14  12  -2  575.14   25.92
   2 -14  -2  638.55   25.46
  12   2   1  978.33   29.11
  12   2   1  947.66   28.24
 -14  12   1  897.96   30.44
  12   2   1  906.28   27.09
 -14  12   1  923.08   29.39
   2 -14   1  896.32   27.27
 -14  12   1  925.83   30.07
   2 -14   1  977.91   28.84
  12   2   4  295.61   14.31
  12   2   4  244.95   16.95
   2 -14   4  249.32   14.88
 -14  12   4  251.53   18.67
 -14  12   4  258.83   16.53
  12   2   4  251.26   15.24
 -15  12  -9   37.92    8.89
  12   3  -9   44.83   13.29
 -15  12  -9   11.33   12.12
  12   3  -9   30.67   13.99
   3 -15  -9    4.14   13.79
 -15  12  -9   37.83    8.66
 -15  12  -6  181.76   14.63
  12   3  -6  170.59   17.19
  12   3  -6  168.08   18.55
 -15  12  -6  189.10   19.43
   3 -15  -6  175.58   19.57
 -15  12  -6  191.00    8.66
   3 -15  -3   33.82    8.92
  12   3  -3   56.40   12.02
 -15  12  -3   49.59    9.67
 -15  12  -3   56.06   10.69
  12   3  -3   38.92   10.86
  12   3   0  102.18   11.88
 -15  12   0   95.21   11.32
   3 -15   0  108.17   11.66
  12   3   0  107.50   12.43
  12   3   0   87.20   10.59
 -15  12   0   97.11   12.23
   3 -15   0  104.44   11.65
   3 -15   3  254.19   17.08
  12   3   3  251.29   16.99
  12   3   3  275.48   15.44
 -15  12   3  247.73   17.07
  12   3   3  260.63   15.80
 -15  12   3  282.05   19.01
   3 -15   3  250.78   15.51
 -15  12   6   67.35   13.85
  12   3   6   80.83    7.01
   3 -15   6   43.24    9.49
  12   4 -10   42.44   16.91
  12   4 -10   17.23   13.06
 -16  12 -10   44.42   16.54
   4 -16 -10   40.07   15.62
 -16  12  -7  125.15   13.37
 -16  12  -7  160.95   20.52
   4 -16  -7  108.59   17.84
  12   4  -7  113.52   17.25
 -16  12  -7  151.03    9.55
  12   4  -7  168.50   19.10
 -16  12  -4   94.18   14.38
   4 -16  -4   96.66   13.46
  12   4  -4   78.86   12.74
  12   4  -4   85.85   13.81
 -16  12  -1    8.59    8.80
  12   4  -1   12.48    8.33
   4 -16  -1   14.99    7.14
  12   4  -1   24.18    9.60
   4 -16   2  201.05   14.61
  12   4   2  188.61   13.64
  12   4   2  225.43   14.67
   4 -16   2  203.45   14.94
 -16  12   2  184.07   15.33
 -16  12   5    2.84    9.19
   4 -16   5    3.46    7.29
  12   4   5   13.57    5.81
  12   5 -11  233.17   25.54
 -17  12 -11  223.91   25.41
   5 -17 -11  200.00   28.84
  12   5 -11  234.91   27.70
 -17  12 -11  262.41   30.29
  12   5  -8   97.95   17.15
  12   5  -8  100.91   18.90
 -17  12  -8  125.94   10.57
 -17  12  -8  146.91   20.60
   5 -17  -8  100.40   19.06
  12   5  -5 1202.52   41.19
 -17  12  -5 1176.18   43.22
   5 -17  -5 1283.06   44.34
  12   5  -5 1246.99   43.32
  12   5  -2  163.23   15.80
 -17  12  -2  158.55   16.09
  12   5  -2  157.19   15.01
   5 -17  -2  196.30   16.17
  12   5   1  662.70   25.72
   5 -17   1  628.82   25.93
  12   5   1  655.37   24.00
   5 -17   1  644.21   23.84
 -17  12   1  673.34   26.75
  12   5   4  471.89   19.55
   5 -17   4  417.40   21.76
  12   5   4  490.77   20.77
 -17  12   4  450.18   24.58
  12   5   7  129.70    6.97
 -18  12  -9   -8.29   15.33
   6 -18  -9   19.10   15.52
  12   6  -9   34.50   15.36
  12   6  -9   23.46   13.11
  12   6  -6   -8.28   12.15
 -18  12  -6    1.27    2.35
  12   6  -6   -1.48   11.18
 -18  12  -6   17.05   12.17
   6 -18  -6   -1.98   10.62
  12   6  -3  522.51   26.97
  12   6  -3  566.96   27.79
 -18  12  -3  579.77   29.42
   6 -18  -3  524.02   26.88
  12   6   0    4.28    8.14
  12   6   0    0.42    7.41
   6 -18   0   -3.81    7.04
 -18  12   0    2.44    7.98
 -18  12   3  295.76   19.40
  12   6   3  331.04   18.07
  12   6   3  286.69   16.58
   6 -18   3  297.32   17.69
 -18  12   6    6.25   10.41
  12   6   6   23.04    6.71
 -19  12 -10   90.34   21.18
  12   7 -10   63.92   18.19
   7 -19 -10   67.89   20.67
  12   7 -10   67.48   17.12
 -19  12  -7  110.40    7.77
  12   7  -7   86.92   17.38
  12   7  -7  124.06   18.58
   7 -19  -7   78.93   18.30
 -19  12  -7  116.10   19.73
  12   7  -4  162.69   18.03
 -19  12  -4  150.89   17.76
   7 -19  -4  154.28   17.10
  12   7  -4  191.12   18.89
   7 -19  -1   41.68    9.15
  12   7  -1   39.16   10.14
  12   7  -1   19.96    9.06
 -19  12  -1   30.57    9.55
   7 -19   2  335.23   18.40
 -19  12   2  336.50   20.59
  12   7   2  328.40   18.99
  12   7   2  287.26   16.95
 -19  12   5   25.08   10.88
  12   7   5   11.10    6.96
  12   7   5   19.56    6.89
  12   8 -11   90.60   21.42
 -20  12 -11   55.45   19.98
  12   8 -11   98.19   20.81
   8 -20 -11  124.22   26.07
 -20  12  -8   -9.68   14.11
  12   8  -8   23.30   13.88
   8 -20  -8   18.82   14.97
  12   8  -8   11.29   12.23
  12   8  -5  476.17   28.86
 -20  12  -5  454.07   30.49
  12   8  -5  476.13   29.60
  12   8  -2  185.81   17.20
 -20  12  -2  245.73   20.53
   8 -20  -2  255.70   19.00
  12   8  -2  210.49   19.09
   8 -20   1  512.18   22.24
  12   8   1  548.05   23.43
 -20  12   1  477.24   24.81
  12   8   1  556.09   26.58
  12   8   4  152.89   14.00
  12   8   4  178.88   13.56
 -20  12   4  157.31   16.41
 -20  12   7  457.09   28.44
  12   8   7  434.71   15.84
  12   9  -9  227.79   25.07
  12   9  -9  193.41   25.86
 -21  12  -9  245.36   28.44
  12   9  -6   29.98   12.07
 -21  12  -6   16.51    3.12
 -21  12  -6   30.56   13.50
   9 -21  -6   35.05   15.25
  12   9  -6   42.87   14.33
  12   9  -3  328.10   23.83
  12   9  -3  330.81   24.06
 -21  12  -3  259.90   21.73
   9 -21  -3  263.60   20.81
  12   9   0    1.61    9.02
  12   9   0   18.33    9.50
   9 -21   0    7.69    6.88
 -21  12   0   24.65    9.98
  12   9   3  403.12   19.86
 -21  12   3  398.91   22.55
   9 -21   3  373.27   19.99
  12   9   3  441.32   22.54
 -21  12   6   26.00   11.47
  12   9   6   59.12    9.36
  12  10 -10   53.69   20.00
  12  10 -10   31.57   15.38
 -22  12 -10   70.41   21.77
  10 -22 -10   44.69   19.41
  12  10  -7   10.45   13.08
 -22  12  -7   38.84   14.36
  12  10  -7   30.10   13.61
  10 -22  -7   15.81   14.37
  12  10  -4  174.55   20.26
  12  10  -4  184.00   21.21
 -22  12  -4  202.15   20.82
  10 -22  -4  156.09   18.65
  10 -22  -1  136.91   13.91
 -22  12  -1  124.11   15.29
  12  10  -1  144.28   17.37
  12  10  -1  140.62   15.42
  10 -22   2  300.87   17.93
  12  10   2  317.45   21.07
  12  10   2  347.40   19.44
 -22  12   2  349.10   21.71
  12  10   5  104.38   12.20
  12  10   5   76.29    9.56
 -22  12   5   83.84   14.48
  12  11  -8   22.70   14.06
  12  11  -8   33.69   18.24
 -23  12  -8    7.84   15.21
  11 -23  -8   56.77   18.49
  12  11  -5  159.74   20.91
  12  11  -5  153.49   21.01
 -23  12  -5  146.67   20.90
  11 -23  -5  189.03   21.16
  12  11  -2  179.03   19.49
  12  11  -2  134.41   16.97
 -23  12  -2  186.96   19.05
  11 -23  -2  176.17   17.31
  12  11   1  409.76   24.64
  12  11   1  404.74   21.99
  11 -23   1  383.97   20.28
 -23  12   1  362.72   22.97
  12  11   4  154.37   15.12
  12  11   4  136.55   12.68
 -23  12   4  145.27   16.32
 -23  12   7  119.29   16.90
  12  11   7  138.64   12.03
  12  12  -9  223.71   27.13
  12  12  -9  223.49   27.45
 -24  12  -9  188.99   27.85
  12 -24  -9  191.54   27.62
  12  12  -6   59.81   16.79
  12  12  -6   31.00   14.85
 -24  12  -6   47.94   16.53
  12 -24  -6   44.07   15.42
  12  12  -3  202.31   20.78
 -24  12  -3  212.37   21.98
  12 -24  -3  158.44   17.91
  12  12   0   89.55   13.98
 -24  12   0   93.23   15.01
  12  12   0   80.06   14.15
  12 -24   0  107.30   12.85
  12  12   3  142.94   13.81
 -24  12   3  127.72   15.31
  12 -24   3  139.07   13.38
  12  12   3  146.39   15.95
 -24  12   6   66.39   14.34
  12  12   6   90.20   11.65
  12  13  -7   35.02   15.59
  12  13  -7   27.07   16.50
 -25  12  -7   24.05   15.93
  13 -25  -7   14.63   14.44
  13 -25  -4   78.51   15.54
  12  13  -4   69.06   16.38
  12  13  -4   91.41   17.04
 -25  12  -4   93.06   18.24
  12  13  -1   -3.37   11.34
  13 -25  -1    4.63    8.38
 -25  12  -1    1.32    9.81
  12  13  -1    5.23    9.74
  12  13   2  104.45   15.38
  13 -25   2   81.77   11.51
 -25  12   2   93.57   13.95
  12  13   2   94.09   13.00
  12  13   5    0.20    8.46
 -25  12   5    0.85   10.06
  12  13   5    2.96    6.97
  11  13  -8   44.03   16.96
  11  13  -8   23.02   16.64
 -24  11  -8   26.90   18.27
  13 -24  -8   30.41   16.97
  11  13  -5   -5.53   12.07
  11  13  -5  -11.51   12.58
 -24  11  -5  -11.75   14.06
  13 -24  -5   25.30   13.44
  11  13  -2  142.51   18.40
 -24  11  -2  136.78   17.81
  13 -24  -2  150.95   16.00
  11  13  -2  166.10   18.21
  11  13   1   94.34   14.84
  11  13   1   87.54   12.44
  13 -24   1   80.15   11.30
 -24  11   1   79.26   13.15
  11  13   4   43.75   11.04
  11  13   4   26.25    8.16
 -24  11   4   21.22   10.13
 -24  11   7   62.90   14.11
  11  13   7  105.50   11.85
  10  13  -9   -9.09   13.44
 -23  10  -9   26.84   16.91
  10  13  -9   28.11   17.21
  13 -23  -9  -13.53   17.50
  13 -23  -6  296.96   26.50
 -23  10  -6  280.71   28.06
 -23  10  -6  252.02   13.74
  10  13  -6  325.44   27.54
  13 -23  -3   18.58    9.05
  10  13  -3   61.73   14.08
  10  13  -3   32.13   12.82
 -23  10  -3   40.00   13.34
  10  13   0  187.69   18.56
 -23  10   0  162.71   16.56
  10  13   0  201.54   17.16
  13 -23   0  173.62   14.27
  13 -23   3   55.32    9.13
  10  13   3   72.34   12.06
  10  13   3   51.06    9.15
 -23  10   3   57.24   10.76
  10  13   6  182.46   15.05
 -23  10   6  152.70   16.88
  13 -22 -10  172.79   27.49
 -22   9 -10  171.98   28.45
   9  13 -10  142.03   25.73
   9  13 -10  138.20   23.44
   9  13  -7   76.50   17.15
   9  13  -7  109.21   20.36
  13 -22  -7   85.47   18.29
 -22   9  -7   73.49   10.51
 -22   9  -7   88.03   19.47
 -22   9  -4  272.85   15.04
   9  13  -4  286.64   24.12
 -22   9  -4  330.62   26.19
  13 -22  -4  334.85   24.34
   9  13  -4  362.46   26.52
   9  13  -1   88.07   14.78
   9  13  -1   73.11   12.99
 -22   9  -1  111.59   14.70
  13 -22  -1   98.99   12.40
  13 -22   2  542.51   20.33
   9  13   2  594.44   28.13
   9  13   2  604.57   23.33
 -22   9   2  553.08   25.07
   9  13   5   23.64    8.77
   9  13   5   25.37    5.96
 -22   9   5   24.66    9.50
   8  13  -8   54.72   16.68
 -21   8  -8   69.94   19.63
  13 -21  -8   59.71   18.95
 -21   8  -8   61.35   10.78
   8  13  -8   51.06   15.15
 -21   8  -5   60.66    8.55
   8  13  -5   68.08   16.07
 -21   8  -5   80.11   15.73
  13 -21  -5   74.87   14.60
   8  13  -5   56.95   14.40
   8  13  -2  594.47   30.88
  13 -21  -2  635.03   26.48
   8  13  -2  641.49   29.84
 -21   8  -2  593.11   30.61
   8  13   1   48.52    9.54
  13 -21   1   51.27    7.76
 -21   8   1   47.53   10.20
   8  13   1   52.67   11.49
   8  13   4  144.61   10.20
   8  13   4  147.57   14.32
 -21   8   4  160.08   14.77
   8  13   7   99.43   10.14
  13 -20  -9   15.10   16.38
   7  13  -9   -0.69   13.21
   7  13  -9    0.49   15.42
 -20   7  -9   -5.74    9.56
 -20   7  -9   24.09   17.11
  13 -20  -6   66.98   15.53
   7  13  -6   39.73   14.48
 -20   7  -6   43.27   16.06
 -20   7  -6   47.84    8.92
   7  13  -6   77.16   16.54
   7  13  -3  141.33   16.79
 -20   7  -3  131.97   16.65
  13 -20  -3  149.71   15.87
 -20   7  -3  122.61   11.78
   7  13  -3  134.23   16.95
  13 -20   0  308.92   16.05
   7  13   0  334.02   19.27
   7  13   0  355.60   22.51
 -20   7   0  348.34   20.86
   7  13   3    5.83    7.36
   7  13   3   12.25    6.71
 -20   7   3   -0.10    6.48
   7  13   6  153.48   12.42
 -20   7   6  127.58   12.93
   6  13 -10  177.73   24.79
  13 -19 -10  192.88   27.62
 -19   6 -10  219.05   28.09
   6  13 -10  249.84   25.74
   6  13  -7  152.54   19.37
 -19   6  -7  130.40   13.18
  13 -19  -7  161.05   20.85
 -19   6  -7  193.04   24.21
   6  13  -7  157.02   20.84
  13 -19  -4 1410.57   44.64
 -19   6  -4 1320.34   32.21
   6  13  -4 1376.27   45.87
 -19   6  -4 1317.01   47.13
   6  13  -4 1283.42   43.80
   6  13  -1  176.29   16.17
 -19   6  -1  169.50   16.17
  13 -19  -1  176.32   13.16
   6  13  -1  194.04   17.53
  13 -19   2 1234.22   24.24
   6  13   2 1278.01   29.55
 -19   6   2 1232.85   32.59
 -19   6   5    8.90    7.12
   6  13   5   25.80    8.89
   5  13 -11   -5.59   13.26
   5  13 -11   -7.64   16.23
 -18   5 -11   25.82   19.50
  13 -18 -11    4.06   17.40
  13 -18  -8  161.27   23.88
   5  13  -8  166.19   22.15
 -18   5  -8  184.53   16.50
  13 -18  -8  161.70   13.85
   5  13  -8  174.59   21.25
 -18   5  -8  163.31   22.54
   5  13  -5   15.11   10.52
 -18   5  -5   11.82    7.48
 -18   5  -5   13.86    8.09
   5  13  -5    8.34   11.67
 -18   5  -5   35.13   12.91
   5  13  -5   15.11    4.78
  13 -18  -5   12.33   10.32
   5  13  -2  149.72   16.32
   5  13  -2  179.06   16.80
  13 -18  -2  188.25   15.04
 -18   5  -2  223.46   18.68
 -18   5  -2  195.44   13.71
   5  13   1  673.13   23.37
 -18   5   1  669.32   24.11
  13 -18   1  687.23   18.50
   5  13   1  686.55   28.26
   5  13   4  113.51   11.63
   5  13   4  127.98    7.46
   5  13   7  194.28   11.57
   4  13  -9   32.13   14.71
   4  13  -9   39.28   14.10
  13 -17  -9   48.33   17.52
 -17   4  -9   36.64   11.46
 -17   4  -9   28.73   17.05
  13 -17  -9   18.56    8.68
 -17   4  -6   94.85   11.56
 -17   4  -6   82.04   10.57
   4  13  -6   81.46   15.17
   4  13  -6   92.83   16.66
  13 -17  -6   91.28   17.37
 -17   4  -6   57.15   16.10
  13 -17  -6   73.91   11.09
   4  13  -6   63.83    6.57
 -17   4  -3   85.87   10.00
  13 -17  -3   83.06   12.04
 -17   4  -3   87.09   11.44
 -17   4  -3  114.59   14.66
   4  13  -3   98.99   14.12
   4  13  -3   78.51    9.68
   4  13  -3   87.91   13.74
   4  13   0  194.54   16.07
   4  13   0  160.27   12.92
  13 -17   0  176.59   10.86
 -17   4   0  167.09   13.50
   4  13   3  186.16   14.53
   4  13   3  205.18    9.97
 -17   4   3  194.47   11.96
   4  13   6   60.18    8.76
   3  13 -10  366.30   28.11
   3  13 -10  328.51   31.47
 -16   3 -10  309.33   31.13
  13 -16 -10  339.37   33.55
 -16   3 -10  340.91   25.32
  13 -16  -7   37.41   14.05
 -16   3  -7   19.23    6.34
   3  13  -7   31.76   13.34
   3  13  -7   19.50   11.03
 -16   3  -7   20.85    8.88
 -16   3  -7   22.09   13.47
   3  13  -7    8.45    5.33
  13 -16  -7   10.09    8.11
 -16   3  -4 1536.41   36.29
   3  13  -4 1638.03   46.24
 -16   3  -4 1528.06   48.30
   3  13  -4 1680.70   48.57
 -16   3  -4 1607.59   35.92
  13 -16  -4 1550.48   44.86
   3  13  -4 1517.44   30.97
  13 -16  -4 1460.17   37.03
   3  13  -1    8.24    8.22
   3  13  -1   32.04    8.88
  13 -16  -1   25.87    6.64
 -16   3  -1   26.19    9.19
 -16   3  -1   32.77    9.46
   3  13  -1   16.47    8.85
 -16   3  -1   18.94    7.46
   3  13   2 1283.90   34.31
 -16   3   2 1288.61   27.98
   3  13   2 1298.29   26.31
   3  13   5  190.59   13.15
 -16   3   5  149.98    9.52
   3  13   8  494.68   12.08
   2  13 -11   26.05   15.73
 -15   2 -11   34.29   14.03
  13 -15 -11   30.93   18.08
 -15   2 -11   67.34   21.23
   2  13 -11   62.74   15.79
 -15   2  -8    5.68    8.74
   2  13  -8    5.88   11.05
   2  13  -8   18.59   13.38
  13 -15  -8   -8.63   13.71
   2  13  -8    6.80    6.40
  13 -15  -8    2.44    8.41
 -15   2  -8    5.66   14.70
 -15   2  -5   50.19    8.43
   2  13  -5   28.06   11.28
   2  13  -5   43.92   11.59
 -15   2  -5   44.58   12.77
 -15   2  -5   21.06    7.80
  13 -15  -5   50.35   12.20
   2  13  -5   38.44    7.01
  13 -15  -5   51.20    9.92
 -15   2  -2  133.88   11.61
 -15   2  -2  137.82   12.94
 -15   2  -2  130.05   12.50
 -15   2  -2   92.04   12.84
   2  13  -2  118.51   14.33
   2  13  -2  168.45   15.54
   2  13  -2  114.54   11.83
  13 -15  -2  128.14   12.40
   2  13   1  229.62   13.21
 -15   2   1  238.40   13.54
  13 -15   1  220.01    8.68
   2  13   4    5.81    7.19
 -15   2   4    4.08    4.01
   2  13   7  117.95    9.42
   2  13   7  134.17    9.31
   1  13  -9  102.08   19.50
   1  13  -9   80.14   15.45
  13 -14  -9  131.42   21.03
   1  13  -9   74.15   10.31
  13 -14  -9  116.84   13.96
 -14   1  -9  100.04   15.28
 -14   1  -9  121.57   21.79
 -14   1  -6   32.89    6.63
   1  13  -6   25.88   11.61
  13 -14  -6   51.74   13.36
   1  13  -6   42.17   11.96
 -14   1  -6   46.89   13.62
 -14   1  -6   32.08    9.46
  13 -14  -6   39.34    9.49
 -14   1  -6   29.87    9.29
   1  13  -6   27.89    6.87
   1  13  -3  239.73   17.88
 -14   1  -3  255.90   15.45
  13 -14  -3  257.29   18.26
   1  13  -3  273.20   19.72
 -14   1  -3  243.48   18.85
 -14   1  -3  244.85   14.91
 -14   1  -3  238.78   15.69
   1  13  -3  205.03   15.34
  13 -14  -3  228.45   16.04
   1  13  -3  252.22   14.61
   1  13   0   72.34   11.12
   1  13   0   67.46   11.10
 -14   1   0   86.69   11.82
   1  13   0   62.71    9.07
  13 -14   0   84.53    7.29
 -14   1   0   96.03   11.71
 -14   1   0   77.46   11.03
 -14   1   0   86.71   10.28
  13 -14   0   83.25   11.23
   1  13   0   89.29   10.99
   1  13   3   89.82   10.86
   1  13   3   82.63    5.76
 -14   1   3   93.37    6.81
   1  13   6    0.23    5.39
   0  13 -10  946.32   39.81
 -13   0 -10  912.95   50.49
 -13   0 -10  784.66   31.47
   0  13 -10  858.76   45.05
  13 -13 -10  833.69   32.78
 -13   0 -10  860.35   39.18
  13 -13 -10  886.33   49.52
 -13   0  -7   32.43    3.46
 -13   0  -7   14.20    7.84
   0  13  -7   46.21   12.59
 -13   0  -7   16.40   12.35
  13 -13  -7   31.81   10.30
  13 -13  -7   34.16   13.73
 -13   0  -7   45.38   10.92
   0  13  -7   32.58    8.27
  13 -13  -7   35.95    9.80
   0  13  -7   41.38   13.56
  13 -13  -4 1487.83   42.60
   0  13  -4 1504.66   44.42
 -13   0  -4 1486.21   31.84
  13 -13  -4 1546.20   41.47
 -13   0  -4 1417.00   34.88
 -13   0  -4 1511.13   45.55
 -13   0  -4 1421.90   34.91
   0  13  -4 1463.03   40.63
  13 -13  -4 1456.78   36.16
   0  13  -4 1456.37   32.05
   0  13  -1    0.25    7.12
  13 -13  -1   10.92    8.68
   0  13  -1    2.41    7.98
 -13   0  -1   13.27    8.50
   0  13  -1    7.16    7.09
  13 -13  -1    8.21    5.74
 -13   0  -1    4.53    7.16
   0  13  -1   -2.67    6.20
 -13   0  -1    8.93    7.36
  13 -13  -1    2.51    7.59
 -13   0  -1    2.42    6.63
   0  13   2 2977.65   49.75
 -13   0   2 2961.93   34.66
   0  13   2 2917.33   35.50
   0  13   5   42.54    7.75
   0  13   8  681.26   15.81
   0  13   8  767.09   16.64
 -12  -1 -11   16.21   14.47
  13 -12 -11    3.41   15.57
  -1  13 -11   24.90   13.18
  -1  13 -11   21.79   16.59
 -12  -1 -11   30.93   18.97
  13 -12  -8   22.97   13.00
  13 -12  -8    4.98    8.94
 -12  -1  -8   15.82   13.08
  -1  13  -8   16.42    6.91
  13 -12  -8   16.45    9.20
  -1  13  -8   17.38   13.03
  -1  13  -8    5.23    9.71
 -12  -1  -8   27.75   10.89
  13 -12  -5   69.78   11.07
 -12  -1  -5   75.65   11.19
  -1  13  -5   71.36    9.11
  -1  13  -5   70.17   11.75
  -1  13  -5   43.01   11.73
  13 -12  -5   68.61   13.42
 -12  -1  -5   72.94    7.78
  13 -12  -5   66.69   10.04
 -12  -1  -5   75.66   10.02
 -12  -1  -2    5.91    6.12
  13 -12  -2   15.86    7.13
 -12  -1  -2   23.09    7.48
  -1  13  -2    7.31    8.15
  13 -12  -2   13.39    8.89
 -12  -1  -2   13.00    9.04
  -1  13  -2   22.80    6.53
 -12  -1  -2   18.32    6.97
  13 -12  -2   14.13    7.09
  -1  13  -2   14.34    7.68
  -1  13  -2    7.59    6.54
  13 -12  -2    1.17    7.30
  -1  13   1  186.36   11.72
 -12  -1   1  184.84   14.91
 -12  -1   1  152.06   12.97
  13 -12   1  156.04    5.89
 -12  -1   1  180.88   10.74
  13 -12   1  172.33   15.10
  -1  13   1  193.52   14.54
  -1  13   1  190.09   16.86
 -12  -1   1  168.45   14.31
  -1  13   7   20.09    6.00
  -1  13   7   24.95    6.10
 -11  -2 -12   11.82   15.46
  -2  13 -12   26.79   15.50
  -2  13 -12   35.51   17.61
  13 -11 -12   39.11   22.22
 -11  -2 -12   13.49   19.20
 -11  -2  -9  121.06   12.58
  13 -11  -9   96.07   13.77
  -2  13  -9   79.89   17.06
  13 -11  -9  101.77   19.87
  13 -11  -9  113.29   14.64
 -11  -2  -9   91.92   20.01
  -2  13  -9  120.32   15.63
  -2  13  -9   93.68   12.54
 -11  -2  -9   87.11   15.37
  13 -11  -6  495.51   29.03
 -11  -2  -6  419.24   12.35
  -2  13  -6  452.45   24.12
  -2  13  -6  470.29   27.87
 -11  -2  -6  367.44   17.39
  13 -11  -6  408.83   21.52
  -2  13  -6  430.36   20.00
  13 -11  -6  456.61   24.20
 -11  -2  -6  428.27   23.07
  -2  13  -3   82.62   11.92
  13 -11  -3   93.25   11.61
  -2  13  -3   83.57   11.95
 -11  -2  -3   98.64    9.48
  13 -11  -3   92.31   11.45
 -11  -2  -3   82.81   10.07
 -11  -2  -3  101.14   10.11
  -2  13  -3  108.70   10.61
  13 -11  -3   82.50   10.47
  -2  13  -3   86.11    9.87
  13 -11  -3   94.65   11.81
  -2  13   0    3.34    8.33
 -11  -2   0   13.33    6.64
 -11  -2   0   -4.11    7.32
 -11  -2   0    4.43    6.33
  -2  13   0    3.47    6.28
 -11  -2   0    3.61    6.98
  13 -11   0    9.46    4.83
  -2  13   0    3.69    6.09
  13 -11   0    5.08    8.31
  13 -11   0   15.18    7.66
  13 -11   0   -0.51    8.33
  -2  13   3   44.25    4.43
  -2  13   3   42.20    4.31
  -2  13   6   56.44    8.17
  13 -10 -10  475.19   26.57
  13 -10 -10  533.93   38.72
  -3  13 -10  607.50   29.71
  13 -10 -10  523.53   27.18
  -3  13 -10  516.14   26.62
  -3  13 -10  603.03   38.35
 -10  -3 -10  581.24   34.36
  13 -10  -7   29.51   13.84
  -3  13  -7   46.50    9.23
  -3  13  -7   48.28   13.43
  13 -10  -7   40.69   10.68
 -10  -3  -7   15.37    8.60
 -10  -3  -7   22.03    6.85
  13 -10  -7   34.51    9.98
  -3  13  -7   25.79    9.14
  13 -10  -4 1874.75   46.39
 -10  -3  -4 1862.92   41.21
  13 -10  -4 1806.60   40.70
  13 -10  -4 1909.15   41.45
  -3  13  -4 1816.00   38.49
  13 -10  -4 1933.07   44.84
  -3  13  -4 1827.00   42.85
 -10  -3  -4 1910.78   33.98
  -3  13  -4 1824.05   37.64
 -10  -3  -4 1973.43   33.07
  -3  13  -1  421.35   17.57
 -10  -3  -1  443.83   18.89
  13 -10  -1  463.32   20.51
 -10  -3  -1  458.82   18.46
 -10  -3  -1  453.43   19.87
  13 -10  -1  421.12   20.57
  13 -10  -1  449.88   21.11
  -3  13  -1  474.90   20.96
 -10  -3   2 2064.17   44.20
  -3  13   2 2108.67   43.36
 -10  -3   2 2177.59   45.36
  13 -10   2 2024.17   45.51
 -10  -3   2 2004.15   24.03
  -3  13   2 2117.33   49.79
  -3  13   5  229.29   13.59
  -3  13   8  319.44   13.33
  -4  13 -11   39.49   16.05
  -4  13 -11   31.11   15.69
  13  -9 -11   22.99   18.19
  -9  -4 -11   60.68   19.26
  13  -9 -11   39.01   11.89
  -4  13 -11   35.90   12.15
  -9  -4 -11   47.01   17.62
  -9  -4  -8   45.47   13.92
  -9  -4  -8   62.96    8.39
  -4  13  -8   90.95   13.49
  13  -9  -8   62.51   12.87
  -4  13  -8   89.99   12.82
  13  -9  -8   42.91   14.99
  -4  13  -8   41.17   13.70
  13  -9  -8   90.75   13.48
  -9  -4  -8   68.70    8.44
  -9  -4  -5   19.07    5.00
  -4  13  -5   19.67   11.33
  13  -9  -5   27.68   10.94
  -4  13  -5   32.19    9.69
  13  -9  -5   24.73    8.92
  13  -9  -5   20.38    8.84
  -4  13  -5   28.22    8.16
  -9  -4  -5   18.27    5.30
  -4  13  -5   29.74    7.76
  13  -9  -5   15.46    7.49
  -9  -4  -5   24.84    9.35
  -9  -4  -2  787.06   23.44
  -9  -4  -2  786.74   25.50
  -4  13  -2  821.59   22.60
  13  -9  -2  815.31   25.26
  13  -9  -2  834.17   28.57
  13  -9  -2  788.42   26.32
  -9  -4  -2  807.50   22.35
  -4  13  -2  844.02   25.84
  13  -9   1  129.27    6.18
  -9  -4   1  104.82   11.55
  -9  -4   1  121.33   11.64
  13  -9   1  122.90   11.99
  13  -9   1   93.21   12.25
  -4  13   1  124.54   11.42
  13  -9   1  120.71   11.97
  -9  -4   1  140.32   13.08
  -4  13   1  128.01   14.25
  -4  13   4  400.61    9.12
  -4  13   7    2.97    5.51
  -5  13 -12   86.58   20.80
  13  -8 -12  108.08   25.09
  -5  13 -12   91.43   19.21
  -8  -5 -12   99.62   23.74
  -8  -5 -12   86.79   21.58
  -5  13  -9   28.87   10.35
  -5  13  -9   14.85    9.53
  -5  13  -9   48.40   14.87
  -8  -5  -9    5.42    4.79
  13  -8  -9   19.51   10.79
  13  -8  -9   13.21   15.15
  13  -8  -9    6.82    9.54
  -8  -5  -9   -2.16   11.83
  -5  13  -6  314.93   23.47
  13  -8  -6  333.74   20.51
  -8  -5  -6  307.90   12.23
  13  -8  -6  328.87   19.65
  -5  13  -6  288.13   17.78
  13  -8  -6  323.03   18.44
  -5  13  -6  362.05   19.59
  -8  -5  -6  346.39   22.01
  -5  13  -6  312.51   19.79
  -8  -5  -3  533.33   16.71
  13  -8  -3  576.86   24.20
  -5  13  -3  507.71   17.66
  13  -8  -3  551.04   22.75
  13  -8  -3  540.50   20.34
  -8  -5  -3  509.47   21.66
  -5  13  -3  586.62   22.34
  -8  -5  -3  542.01   18.46
  -8  -5   0 1225.80   30.83
  -8  -5   0 1244.12   29.85
  -8  -5   0 1154.93   31.62
  13  -8   0 1193.09   32.03
  13  -8   0 1175.77   23.50
  13  -8   0 1184.85   31.25
  -5  13   0 1145.52   26.81
  13  -8   0 1174.18   32.40
  -5  13   0 1161.85   32.55
  -8  -5   3  157.93   14.47
  -5  13   3  150.97   14.05
  -5  13   3  164.07    8.59
  13  -8   3  109.46    5.59
  -8  -5   3  140.44   13.29
  -5  13   3  143.34   16.38
  -5  13   6  150.63   11.39
  13  -7 -10  140.52   23.83
  13  -7 -10  166.63   18.05
  13  -7 -10  130.47   17.87
  -7  -6 -10  153.50   21.12
  -6  13 -10  139.17   14.95
  -6  13 -10  110.28   16.31
  -6  13 -10  126.40   20.62
  -6  13 -10  149.71   18.50
  -7  -6  -7   46.51   11.55
  -6  13  -7   50.58   10.54
  -6  13  -7   33.26    9.05
  -7  -6  -7   31.38    4.69
  13  -7  -7   41.18   10.52
  13  -7  -7   18.13   10.07
  -6  13  -7   38.00   13.30
  -7  -6  -7   34.65    4.52
  -6  13  -7   42.21   10.35
  13  -7  -7   46.10    9.63
  -7  -6  -4 1407.35   23.00
  13  -7  -4 1433.37   37.24
  13  -7  -4 1412.10   37.80
  -6  13  -4 1395.55   35.29
  -7  -6  -4 1461.46   38.32
  -6  13  -4 1444.44   29.36
  13  -7  -4 1426.65   31.60
  13  -7  -1   84.13    9.72
  -7  -6  -1   72.23    9.05
  -7  -6  -1   73.23   10.45
  -7  -6  -1   69.82    8.20
  13  -7  -1   77.04   10.70
  -6  13  -1   79.10    7.85
  13  -7  -1   61.30   11.01
  -6  13  -1   78.45   10.42
  -7  -6   2 1145.72   32.20
  -7  -6   2 1128.36   32.36
  13  -7   2 1098.67   33.60
  -7  -6   2 1135.52   34.26
  13  -7   2 1212.27   30.19
  -7  -6   2 1183.46   18.64
  -6  13   2 1131.44   31.48
  13  -7   2 1168.85   17.91
  -6  13   2 1106.66   24.03
  13  -7   2 1099.67   32.42
  -6  13   5  234.15    8.82
  -6  13   5  270.38   15.24
  -6  13   8  448.73   18.12
  -7  13 -11   17.33   14.61
  13  -6 -11    3.41   15.79
  13  -6 -11   32.46   12.44
  13  -6 -11   33.47   14.14
  -7  13 -11   16.48   13.55
  -6  -7 -11   17.96   13.42
  -7  13 -11   37.70   13.95
  -7  13  -8  438.06   24.06
  13  -6  -8  440.20   31.87
  -7  13  -8  424.00   29.36
  13  -6  -8  437.38   24.95
  -7  13  -8  464.49   23.40
  13  -6  -8  445.04   25.67
  -7  13  -8  420.30   25.14
  -6  -7  -8  446.88   28.46
  13  -6  -8  376.01   20.53
  -7  13  -5  602.25   20.47
  -7  13  -5  577.55   24.84
  13  -6  -5  602.32   25.96
  13  -6  -5  595.48   25.91
  13  -6  -5  605.00   20.66
  -6  -7  -5  630.75   27.72
  13  -6  -2 1161.08   32.69
  -6  -7  -2 1141.75   27.79
  -6  -7  -2 1110.59   23.11
  -6  -7  -2  970.94   29.26
  13  -6  -2 1110.36   26.88
  13  -6  -2 1013.53   30.04
  -7  13  -2 1115.72   30.69
  -7  13  -2 1122.21   21.88
  -6  -7   1   37.61    8.93
  -6  -7   1   23.77    5.82
  -7  13   1   23.85    6.62
  -6  -7   1   35.05    8.42
  -7  13   1   25.28    6.49
  13  -6   1   29.60    8.29
  13  -6   1   33.15    4.98
  13  -6   1   40.83    8.92
  -7  13   1   49.26   10.48
  -6  -7   1   42.49    9.36
  13  -6   1   24.70    8.45
  -7  13   4 1381.63   24.33
  -7  13   4 1375.97   33.09
  13  -6   4 1361.12   25.62
  -7  13   4 1414.17   44.66
  -7  13   7   35.23    7.98
  -7  13   7   35.86    5.73
  -8  13 -12   87.35   20.16
  -8  13 -12   63.79   16.71
  13  -5 -12   87.13   24.81
  13  -5 -12  102.33   19.27
  -8  13 -12   93.47   18.98
  -5  -8 -12   62.48   19.29
  13  -5  -9  148.76   16.27
  13  -5  -9   97.12   20.10
  13  -5  -9  118.73   16.98
  -5  -8  -9  161.70   19.94
  -8  13  -9  125.62   16.69
  -8  13  -9   90.86   17.72
  -8  13  -9  137.80   15.89
  -8  13  -9  100.93   12.68
  -8  13  -6  231.79   16.57
  13  -5  -6  213.23   13.09
  13  -5  -6  219.81   17.63
  -8  13  -6  245.06   18.46
  -8  13  -6  204.19   13.81
  -5  -8  -6  212.02   18.87
  13  -5  -6  223.42   17.80
  -5  -8  -3  237.36    9.40
  13  -5  -3  279.34   17.57
  -8  13  -3  278.44   10.67
  13  -5  -3  263.70   17.01
  13  -5  -3  276.12   13.36
  -8  13  -3  224.13   15.50
  -5  -8  -3  267.29   16.95
  -5  -8   0 1348.03   32.48
  13  -5   0 1401.12   33.54
  -8  13   0 1369.50   26.59
  -5  -8   0 1299.68   30.56
  13  -5   0 1346.79   27.38
  13  -5   0 1358.46   31.78
  -5  -8   0 1315.71   33.44
  13  -5   0 1360.60   34.01
  -8  13   0 1322.19   34.17
  -5  -8   0 1406.11   30.85
  13  -5   3  686.16   17.82
  -5  -8   3  638.88   26.72
  -8  13   3  657.19   27.07
  13  -5   3  679.22   21.74
  -8  13   3  686.85   24.12
  -5  -8   3  668.15   26.16
  -8  13   3  657.72   19.08
  -5  -8   3  629.27   12.73
  -8  13   3  638.74   28.07
  13  -5   6   91.84   10.67
  -8  13   6  102.88   10.91
  -8  13   6   89.93    7.66
  13  -4 -10  158.55   24.82
  -9  13 -10  260.89   21.64
  -9  13 -10  245.08   23.11
  13  -4 -10  213.41   19.44
  13  -4 -10  240.53   23.42
  -9  13 -10  183.80   22.75
  -4  -9 -10  211.68   24.62
  -9  13 -10  167.95   14.79
  -9  13  -7   67.17    9.99
  -9  13  -7   65.50   10.79
  13  -4  -7   54.14   12.27
  -9  13  -7   37.55   10.91
  -4  -9  -7   83.78   14.28
  -9  13  -7   64.93   10.03
  13  -4  -7   70.59   13.01
  13  -4  -7   41.54    7.69
  13  -4  -4  390.84   20.95
  13  -4  -4  394.90   14.57
  -9  13  -4  383.91   20.58
  13  -4  -4  402.12   21.61
  -9  13  -4  385.92   12.39
  -4  -9  -4  387.20   21.95
  -4  -9  -1  260.30   12.88
  13  -4  -1  304.31   17.71
  -4  -9  -1  212.59   14.40
  13  -4  -1  260.98   13.92
  13  -4  -1  303.66   17.40
  -9  13  -1  264.75   16.61
  -9  13  -1  270.44   10.27
  13  -4  -1  274.78   15.07
  -4  -9  -1  261.83   17.20
  13  -4   2  708.40   22.78
  -9  13   2  682.91   24.34
  -4  -9   2  605.28   24.94
  -9  13   2  623.03   20.26
  -4  -9   2  723.56   17.44
  -9  13   2  655.62   24.02
  13  -4   2  649.05   24.65
  -9  13   2  641.43   27.35
  13  -4   2  675.11   18.85
  -4  -9   2  676.90   25.47
  -4  -9   2  649.37   25.04
  -9  13   5    3.90    9.77
  -9  13   5    4.29    6.81
  13  -4   5    8.35    6.14
  -9  13   5   11.92    5.43
  -9  13   8   86.34    9.80
  -9  13   8   82.52   11.04
  13  -3 -11   86.57   21.77
 -10  13 -11   64.22   17.84
 -10  13 -11   57.01   15.99
  13  -3 -11   63.33   15.35
 -10  13 -11   55.88   14.24
  13  -3 -11   91.70   17.85
  -3 -10 -11   27.78   16.05
 -10  13  -8  311.78   18.67
  13  -3  -8  294.95   21.31
 -10  13  -8  299.61   18.97
  -3 -10  -8  353.33   26.50
 -10  13  -8  314.90   23.86
  13  -3  -8  272.74   14.37
  13  -3  -8  287.90   22.81
  13  -3  -5  241.40   18.55
  13  -3  -5  234.12   10.77
 -10  13  -5  231.14   10.94
 -10  13  -5  231.41   18.00
  13  -3  -5  258.58   18.54
  -3 -10  -5  240.45   19.19
  -3 -10  -2 2673.43   33.76
  13  -3  -2 2648.95   49.68
  13  -3  -2 2794.44   50.53
  -3 -10  -2 2635.93   48.56
  13  -3  -2 2651.71   37.06
  13  -3  -2 2674.21   48.83
 -10  13  -2 2625.25   49.15
  -3 -10  -2 2678.60   54.52
  -3 -10   1  280.96   16.46
  -3 -10   1  259.13   16.48
  -3 -10   1  242.11   15.84
  13  -3   1  225.77   14.29
  13  -3   1  281.16   13.28
 -10  13   1  254.17   16.05
  13  -3   1  272.67   16.40
 -10  13   1  237.18   14.38
 -10  13   1  222.72   16.03
  -3 -10   1  270.07   13.68
 -10  13   1  221.70   13.18
  13  -3   4 1963.12   34.45
 -10  13   4 2018.68   36.09
  -3 -10   4 1860.85   26.66
 -10  13   4 1899.22   41.31
  13  -3   4 1868.46   35.80
 -10  13   7   21.39    8.93
 -10  13   7   18.68    7.24
 -11  13 -12   50.99   16.91
  13  -2 -12   16.01   17.99
  13  -2 -12   31.81   16.24
  -2 -11 -12   74.40   21.37
 -11  13 -12   32.78   16.44
 -11  13  -9   73.83   15.96
  13  -2  -9   79.61   14.28
  13  -2  -9   59.44   14.36
 -11  13  -9   83.43   12.93
 -11  13  -9   65.94   10.13
  -2 -11  -9   86.02   16.80
 -11  13  -9   73.50   15.97
 -11  13  -6  210.32   11.81
  13  -2  -6  228.93   18.23
  13  -2  -6  197.69    9.27
  -2 -11  -6  212.94   19.74
  13  -2  -6  192.58   18.19
 -11  13  -6  227.06   12.30
 -11  13  -6  228.40   19.05
  13  -2  -3   11.09    8.20
  13  -2  -3   23.10    9.41
  -2 -11  -3   36.78    9.17
 -11  13  -3   12.63    7.66
  13  -2  -3   15.46    4.22
 -11  13   0   17.87    7.33
  13  -2   0   20.14    7.61
  13  -2   0   23.38    7.98
 -11  13   0   11.26    4.87
 -11  13   0   20.66    8.13
  13  -2   0   23.81    6.89
 -11  13   0   19.82    8.52
  -2 -11   0   18.85    7.07
  -2 -11   0   23.46    7.32
 -11  13   3  160.73   13.60
  13  -2   3  132.69   10.74
  -2 -11   3  135.99    8.76
  13  -2   3  168.50   11.94
  -2 -11   3  126.04   14.05
 -11  13   3  121.81   10.92
  13  -2   3  137.93   13.23
 -11  13   3  151.74   15.05
  13  -2   6  177.05   15.25
 -11  13   6  203.58   13.92
 -12  13 -10    5.30    9.39
  13  -1 -10    4.75   12.08
 -12  13 -10    4.10   12.15
 -12  13 -10  -14.58   12.68
  -1 -12 -10    1.38   15.20
  13  -1 -10   19.81   12.27
 -12  13  -7   34.72    9.40
 -12  13  -7   30.10    7.25
  13  -1  -7   39.52   11.33
  13  -1  -7   33.13   11.70
  13  -1  -7   29.65    3.98
  -1 -12  -7   33.94   12.70
 -12  13  -7   39.91   12.23
  13  -1  -4   86.53   12.43
 -12  13  -4   84.56   12.90
  13  -1  -4   96.05   13.37
  13  -1  -4   85.68    5.38
  -1 -12  -4   97.14   12.82
 -12  13  -4   82.49   10.77
  13  -1  -1  257.92   16.80
  -1 -12  -1  223.15   15.60
  13  -1  -1  247.93   15.33
 -12  13  -1  237.59   16.07
  13  -1  -1  241.05   16.38
  -1 -12  -1  271.61   17.22
 -12  13  -1  244.17   17.03
 -12  13  -1  246.90   17.39
  -1 -12   2   22.30    8.55
  -1 -12   2   31.03    6.69
 -12  13   2   28.78    8.41
  13  -1   2   25.27    6.01
 -12  13   2   24.15    6.86
  13  -1   2   27.97    7.75
  13  -1   2   25.85    8.09
 -12  13   2   38.98   10.20
 -12  13   5   58.87   12.67
  13  -1   5   57.46    7.57
 -12  13   5   57.02    8.95
  13  -1   5   53.01    9.75
  -1 -12   5   38.93    6.54
 -13  13 -11   41.63   14.41
 -13  13 -11   69.15   17.01
  13   0 -11   71.51   16.06
  13   0 -11   67.15   18.56
   0 -13 -11   61.03   19.98
  13   0  -8  995.02   38.67
 -13  13  -8  924.60   41.01
   0 -13  -8 1013.52   44.47
 -13  13  -8  910.62   27.12
  13   0  -8  899.33   39.88
 -13  13  -8  870.23   29.62
   0 -13  -5   26.62   11.02
 -13  13  -5   30.15    3.30
 -13  13  -5   33.29   10.99
 -13  13  -5   44.34    9.64
  13   0  -5   62.33   12.50
  13   0  -5   48.87   11.13
 -13  13  -5   25.00    3.21
   0 -13  -2 2982.90   53.20
  13   0  -2 3008.52   54.85
  13   0  -2 2913.22   53.66
 -13  13  -2 3009.51   55.23
 -13  13  -2 2851.11   52.21
  13   0  -2 2902.00   53.86
   0 -13  -2 3019.70   59.01
  13   0   1   16.26    7.50
   0 -13   1    0.45    7.09
 -13  13   1   18.05    8.29
  13   0   1    4.60    6.36
  13   0   1    7.34    7.52
 -13  13   1    5.14    8.78
   0 -13   1   12.26    6.08
 -13  13   1   -2.25    6.92
  13   0   4 1417.77   29.79
 -13  13   4 1433.33   35.39
  13   0   4 1527.24   37.27
   0 -13   4 1366.56   29.92
 -13  13   4 1418.99   42.65
  13   0   4 1404.44   36.02
 -14  13  -9   42.60    9.31
  13   1  -9   54.75   13.62
 -14  13  -9   88.30   11.25
  13   1  -9   65.10   14.67
 -14  13  -9   55.74   15.37
   1 -14  -9   54.66   16.46
  13   1  -6   29.17   11.23
 -14  13  -6   28.73    9.08
  13   1  -6   41.86   12.04
 -14  13  -6   51.85    5.20
 -14  13  -6   55.81   12.97
 -14  13  -6   50.98    5.78
   1 -14  -6   63.03   14.29
 -14  13  -3   64.83   10.54
   1 -14  -3   59.60   10.80
  13   1  -3   63.73   11.82
  13   1  -3   63.60   11.58
 -14  13  -3   34.33   10.23
   1 -14   0   24.24    7.15
  13   1   0   27.58    8.33
 -14  13   0   27.16    9.31
  13   1   0   16.22    6.78
 -14  13   0   22.48    8.75
  13   1   0   20.05    8.06
   1 -14   0   37.92    8.39
 -14  13   0   26.64    9.00
   1 -14   3  272.47   18.41
  13   1   3  270.97   15.14
 -14  13   3  263.03   16.62
  13   1   3  256.53   16.29
   1 -14   3  264.59   14.74
  13   1   3  271.68   16.50
 -14  13   3  270.26   19.11
 -14  13   6   21.70   11.97
  13   1   6   16.26    4.84
   1 -14   6   15.87    7.42
 -15  13 -10   40.29   16.68
  13   2 -10   29.53   12.80
  13   2 -10  -10.88   14.40
   2 -15 -10  -13.30   16.54
  13   2  -7  159.78   18.17
  13   2  -7  129.58   17.99
 -15  13  -7  146.71   19.31
   2 -15  -7  161.79   20.48
 -15  13  -7  164.08    9.52
   2 -15  -4   13.39   10.27
  13   2  -4  -14.88    8.92
 -15  13  -4   -0.36    8.82
  13   2  -4   -1.74    9.47
   2 -15  -1  101.72   11.60
  13   2  -1   93.82   12.25
 -15  13  -1   87.12   12.98
   2 -15  -1   94.02   12.52
  13   2  -1   91.93   12.20
   2 -15   2  110.03   12.32
  13   2   2  113.04   11.16
 -15  13   2  108.73   12.36
   2 -15   2  109.39   10.81
  13   2   2  129.95   12.61
 -15  13   2   97.81   12.43
  13   2   2  109.19   11.86
  13   2   5   81.89    8.51
   2 -15   5   72.17    9.91
 -15  13   5   87.23   14.13
 -16  13 -11   55.54   17.22
   3 -16 -11   43.94   18.64
  13   3 -11   38.37   15.99
  13   3 -11   37.51   16.40
 -16  13 -11   55.17   18.96
  13   3  -8 1088.67   42.54
 -16  13  -8 1052.39   45.73
   3 -16  -8  993.18   46.18
 -16  13  -8 1087.93   26.47
  13   3  -8 1097.21   45.76
  13   3  -5   16.86   10.22
  13   3  -5   21.98   10.87
 -16  13  -5   27.43   12.00
   3 -16  -5    8.69   10.22
   3 -16  -2 1484.48   39.44
  13   3  -2 1454.26   40.50
 -16  13  -2 1398.52   41.45
   3 -16   1   18.14    7.12
  13   3   1   13.02    7.00
   3 -16   1   19.01    7.21
  13   3   1   21.08    7.78
  13   3   1   18.34    7.94
 -16  13   1   15.29    8.93
  13   3   4 1687.83   35.20
  13   3   4 1694.38   38.86
 -16  13   4 1630.62   45.62
  13   3   7   62.42    5.08
 -17  13  -9   39.62    9.03
  13   4  -9   51.98   15.23
  13   4  -9   35.09   15.68
 -17  13  -9   29.97   14.36
   4 -17  -9   34.65   15.81
  13   4  -6   53.83   12.21
  13   4  -6   64.32   14.56
 -17  13  -6   80.33   16.04
   4 -17  -6   77.87   15.18
  13   4  -3  190.10   18.17
  13   4  -3  230.49   18.74
 -17  13  -3  167.28   16.87
   4 -17  -3  183.17   16.93
  13   4   0  148.46   14.54
   4 -17   0  144.55   12.95
  13   4   0  141.23   13.49
 -17  13   0  154.34   14.92
  13   4   3  121.06   11.92
  13   4   3   94.83   11.13
   4 -17   3   72.06   10.85
 -17  13   3   89.07   13.30
   4 -17   3  108.58   13.20
  13   4   6  175.76   10.78
 -17  13   6  163.73   18.32
  13   5 -10   16.01   13.54
 -18  13 -10   43.82   17.37
  13   5 -10   16.56   15.97
   5 -18 -10   59.48   18.94
  13   5  -7  233.35   22.34
 -18  13  -7  142.82    7.77
 -18  13  -7  207.69   21.78
   5 -18  -7  201.54   22.62
  13   5  -7  179.06   21.31
   5 -18  -4  163.28   17.14
  13   5  -4  160.96   17.43
  13   5  -4  159.94   17.86
 -18  13  -4  155.77   17.92
  13   5  -1  685.80   28.76
 -18  13  -1  674.40   29.69
  13   5  -1  739.93   29.31
   5 -18  -1  686.65   27.11
  13   5   2  178.95   15.06
   5 -18   2  192.61   14.93
 -18  13   2  189.57   15.94
  13   5   2  194.96   15.09
 -18  13   5   29.50   11.61
  13   5   5   19.42    6.62
  13   6 -11   31.92   15.98
  13   6 -11   19.32   17.10
 -19  13 -11   18.85   18.49
   6 -19 -11   13.01   17.95
  13   6  -8  411.31   29.46
  13   6  -8  337.43   29.28
 -19  13  -8  347.64   29.92
   6 -19  -8  372.34   31.58
 -19  13  -5   88.27   15.68
   6 -19  -5  102.95   16.68
  13   6  -5   92.75   15.92
  13   6  -5   46.29   13.95
 -19  13  -2 1120.09   39.35
  13   6  -2 1047.98   37.64
  13   6  -2 1019.58   35.88
   6 -19  -2 1084.08   35.29
  13   6   1   86.99   12.22
   6 -19   1   71.93   10.60
  13   6   1   83.53   11.72
 -19  13   1  102.65   13.57
  13   6   4 1250.54   33.97
  13   6   4 1338.69   34.42
 -19  13   4 1212.56   40.47
 -19  13   7   40.71   12.89
  13   6   7   17.21    5.15
  13   7  -9   -5.62   13.17
  13   7  -9    0.12   14.44
 -20  13  -9   -5.19   15.31
   7 -20  -9   -5.42   15.92
  13   7  -6  150.29   19.68
  13   7  -6  137.51   18.97
   7 -20  -6  112.74   18.09
 -20  13  -6  130.22   18.83
  13   7  -3   13.80    9.95
   7 -20  -3   23.17    9.76
 -20  13  -3   26.19   12.64
  13   7  -3   40.00   12.47
  13   7   0  406.81   22.28
   7 -20   0  404.35   20.81
 -20  13   0  369.57   22.66
  13   7   3   17.77    8.03
   7 -20   3   45.30    9.81
  13   7   3   47.09    9.82
 -20  13   3   47.16   10.77
  13   7   6   95.38    9.99
 -20  13   6   90.69   15.48
  13   8 -10   73.93   19.44
  13   8 -10   21.38   16.66
 -21  13 -10   85.75   21.23
   8 -21 -10   64.24   19.99
  13   8  -7  107.23   18.37
  13   8  -7   88.95   18.76
 -21  13  -7  105.96   19.64
   8 -21  -7  101.56   18.57
  13   8  -4  126.92   17.36
   8 -21  -4  129.83   16.95
  13   8  -4  128.78   17.74
 -21  13  -4  119.23   17.56
   8 -21  -1  105.45   12.71
  13   8  -1  101.72   14.89
 -21  13  -1   87.52   14.19
  13   8  -1  102.86   13.83
   8 -21   2  594.71   25.18
  13   8   2  613.73   27.20
  13   8   2  613.72   25.06
 -21  13   2  645.21   29.28
  13   8   5   69.16   10.34
  13   8   5   67.21    9.92
 -21  13   5   66.77   14.16
  13   9  -8  177.54   22.75
  13   9  -8  155.75   22.89
 -22  13  -8  152.34   22.91
   9 -22  -8  137.08   22.40
   9 -22  -5   13.13   11.28
 -22  13  -5    0.74   11.27
  13   9  -5   41.91   15.26
  13   9  -5    0.80   12.58
  13   9  -2  498.65   27.81
 -22  13  -2  495.57   28.94
  13   9  -2  476.46   28.07
   9 -22  -2  478.59   25.67
  13   9   1  107.58   14.14
  13   9   1  101.97   12.96
 -22  13   1   77.17   12.42
   9 -22   1   85.21   11.87
  13   9   4  299.67   19.06
  13   9   4  259.45   16.74
 -22  13   4  308.49   22.40
 -22  13   7   78.69   15.82
  13   9   7   66.22    8.71
  13  10  -9   -4.61   13.97
  13  10  -9   13.06   17.03
 -23  13  -9  -14.31   15.21
  10 -23  -9    2.76   16.86
  13  10  -6  187.79   22.79
  13  10  -6  112.32   19.14
 -23  13  -6  195.54   23.79
  10 -23  -6  161.97   22.15
  13  10  -3   12.70   11.76
  10 -23  -3   -4.65    8.63
 -23  13  -3    6.60   11.77
  13  10  -3    9.44   10.68
  13  10   0  285.92   22.58
  10 -23   0  263.05   17.93
  13  10   0  242.92   18.67
 -23  13   0  213.61   19.13
  10 -23   3   51.05   10.06
  13  10   3   75.85   11.41
 -23  13   3   71.31   12.71
  13  10   3   83.43   12.59
 -23  13   6  293.23   24.21
  13  10   6  273.23   17.14
  13  11 -10   99.42   20.89
 -24  13 -10   46.82   20.91
  13  11 -10   40.18   21.14
  11 -24 -10   32.69   22.35
 -24  13  -7   72.31   19.37
  13  11  -7   44.39   17.21
  13  11  -7   54.44   16.51
  11 -24  -7   80.58   18.61
  13  11  -4   33.10   13.94
 -24  13  -4   48.11   15.49
  13  11  -4   85.63   16.64
  11 -24  -4   57.77   14.17
  11 -24  -1   69.57   11.96
  13  11  -1   88.82   15.48
  13  11  -1   72.66   13.32
 -24  13  -1   94.06   15.03
  11 -24   2  152.80   14.48
  13  11   2  181.82   18.10
 -24  13   2  143.81   16.33
  13  11   2  139.73   14.57
  13  11   5   16.27    9.42
 -24  13   5   21.39   11.25
  13  11   5   14.15    8.58
  13  12  -8   49.36   16.21
  13  12  -8   14.59   15.33
 -25  13  -8   36.91   17.37
  12 -25  -8   10.96   16.61
  12 -25  -5    2.18   12.51
 -25  13  -5   -3.10   13.87
  13  12  -5    9.18   13.12
  13  12  -5  -20.93   14.88
  13  12  -2  142.07   18.71
  13  12  -2  141.59   17.83
 -25  13  -2  148.08   18.77
  12 -25  -2  124.96   15.82
  13  12   1   20.48   11.18
  12 -25   1   12.78    8.88
 -25  13   1   33.43   11.29
  13  12   1   14.31    9.41
  13  12   4   74.59   13.02
  13  12   4   74.87   10.78
 -25  13   4   58.55   13.52
 -25  13   7   18.91   12.93
  13  12   7   10.28    7.85
  13  13  -9   30.28   18.92
  13  13  -9   26.03   16.07
 -26  13  -9   20.01   18.17
  13 -26  -9   50.62   20.87
  13 -26  -6  320.81   28.92
  13  13  -6  306.14   28.81
  13  13  -6  274.23   28.33
 -26  13  -6  342.78   31.09
  13 -26  -3   26.90   12.17
  13  13  -3   44.65   14.55
  13  13  -3   60.41   16.58
 -26  13  -3   41.20   14.77
  13  13   0  201.06   18.77
 -26  13   0  224.27   20.96
  13 -26   0  227.88   17.60
  13  13   0  215.04   21.87
  13  13   3   30.89   11.92
  13 -26   3   -0.44    8.17
  13  13   3   21.04    9.15
 -26  13   3    9.72   10.32
  13  13   6  312.41   20.28
 -26  13   6  239.98   22.73
  13  14  -7  -18.99   15.61
  13  14  -7   24.98   16.76
 -27  13  -7    5.69   15.99
  14 -27  -7   17.42   14.78
  13  14  -4   38.66   15.73
  13  14  -4   26.54   14.64
 -27  13  -4   13.50   13.77
  14 -27  -4   30.42   12.68
  13  14  -1   28.76   11.79
  14 -27  -1   44.05   10.81
 -27  13  -1   27.41   12.26
  13  14  -1   42.51   14.10
  13  14   2   13.10    8.88
  14 -27   2    5.83    7.97
 -27  13   2   14.52   10.34
  13  14   2   -0.11   10.58
 -27  13   5   22.43   12.38
  13  14   5   40.69    9.44
  12  14  -8    4.47   14.54
 -26  12  -8   14.16   18.25
  12  14  -8    8.85   16.00
  14 -26  -8  -10.09   17.95
  14 -26  -5   71.97   16.22
 -26  12  -5   63.90   17.34
  12  14  -5   91.68   18.27
  12  14  -5  102.15   19.11
  12  14  -2   20.08   12.96
  12  14  -2   11.00   12.31
 -26  12  -2    6.12   11.42
  14 -26  -2    8.75    9.82
  12  14   1   37.57   12.77
  14 -26   1   44.11    9.90
  12  14   1   51.72   11.43
 -26  12   1   60.31   12.76
  12  14   4   47.03   12.16
  12  14   4   68.83   11.25
 -26  12   4   51.80   13.17
 -26  12   7   19.28   12.24
  12  14   7   47.18   10.53
  11  14  -9  138.32   23.08
  11  14  -9  162.83   25.63
 -25  11  -9  150.27   26.00
  14 -25  -9  104.10   24.15
  11  14  -6  124.97   21.61
  11  14  -6   98.16   19.52
 -25  11  -6   97.69   20.08
  14 -25  -6  117.11   19.39
  11  14  -3  386.24   28.89
  11  14  -3  449.72   29.87
 -25  11  -3  434.08   30.22
  14 -25  -3  444.96   26.46
  11  14   0   59.73   12.60
  11  14   0   63.73   13.52
  14 -25   0   61.51   10.85
 -25  11   0   39.93   11.41
  11  14   3  214.42   19.97
  11  14   3  185.24   15.02
 -25  11   3  197.49   18.35
  14 -25   3  187.80   14.21
 -25  11   6   48.26   13.00
  11  14   6   34.36   10.12
  10  14 -10   38.89   17.25
  10  14 -10   16.62   18.11
 -24  10 -10   47.96   21.67
  14 -24 -10   58.53   21.72
 -24  10  -7   52.54   17.07
  10  14  -7   92.17   19.52
  14 -24  -7   61.90   17.81
  10  14  -7   69.23   17.76
  10  14  -4    7.01   11.69
 -24  10  -4    9.43   12.48
  10  14  -4   13.11   12.12
  14 -24  -4   10.96   11.59
  10  14  -1  174.68   19.59
  10  14  -1  162.65   17.02
 -24  10  -1  160.22   17.57
  14 -24  -1  184.20   15.50
  14 -24   2  140.70   12.45
  10  14   2  207.78   19.20
  10  14   2  210.55   15.97
 -24  10   2  158.22   15.20
  10  14   5  379.69   22.29
 -24  10   5  395.93   23.99
   9  14  -8   11.73   13.09
   9  14  -8    5.70   14.78
 -23   9  -8   14.35   15.87
  14 -23  -8   21.77   16.04
  14 -23  -5  114.62   17.79
   9  14  -5   77.43   17.11
 -23   9  -5   73.80    9.85
 -23   9  -5   80.63   17.37
   9  14  -5   68.37   15.90
   9  14  -2  171.91   18.60
   9  14  -2  188.19   19.63
 -23   9  -2  180.21   20.12
  14 -23  -2  136.14   14.66
   9  14   1   66.63   14.25
   9  14   1   75.18   11.34
  14 -23   1   84.88   10.14
 -23   9   1   47.75   10.66
   9  14   4   42.33    8.04
   9  14   4   32.81    9.98
 -23   9   4   33.83    9.84
   9  14   7   67.21    9.86
   8  14  -9  104.23   23.79
   8  14  -9   91.79   19.32
 -22   8  -9   76.72   20.35
  14 -22  -9   83.13   20.84
   8  14  -6  122.86   18.51
   8  14  -6  143.56   21.05
  14 -22  -6  131.59   20.69
 -22   8  -6  142.29   20.34
 -22   8  -6  126.41   12.57
   8  14  -3  119.27   17.96
   8  14  -3  145.65   18.36
 -22   8  -3  136.57   12.15
 -22   8  -3  131.33   17.36
  14 -22  -3  136.65   16.31
  14 -22   0  128.73   11.92
   8  14   0  162.70   15.62
   8  14   0  133.34   16.09
 -22   8   0  153.81   15.51
   8  14   3  381.49   22.84
   8  14   3  413.78   17.83
 -22   8   3  379.78   20.43
 -22   8   6   17.75    9.47
   8  14   6   20.67    8.23
  14 -21 -10   67.22   22.14
   7  14 -10   65.31   17.34
   7  14 -10   72.23   20.07
 -21   7 -10   60.65   21.22
   7  14  -7  109.83   17.82
   7  14  -7  138.93   22.51
  14 -21  -7  129.50   19.81
 -21   7  -7  101.12   12.02
 -21   7  -7  121.02   21.06
   7  14  -4  219.54   21.80
 -21   7  -4  156.24   13.15
  14 -21  -4  176.39   18.30
 -21   7  -4  167.05   19.43
   7  14  -4  145.71   18.21
   7  14  -1  587.36   27.41
 -21   7  -1  617.43   29.04
  14 -21  -1  573.42   23.28
   7  14  -1  590.78   30.10
  14 -21   2  242.64   12.38
   7  14   2  230.76   14.64
 -21   7   2  196.94   15.48
   7  14   2  205.32   18.03
 -21   7   5  355.55   19.82
   7  14   5  406.84   21.16
   6  14  -8   50.28   17.66
 -20   6  -8   72.81   19.05
   6  14  -8   65.10   16.82
 -20   6  -8   62.03   11.30
  14 -20  -8   55.89   17.71
   6  14  -5   48.45   13.94
   6  14  -5   59.65   15.09
 -20   6  -5   57.54   16.32
  14 -20  -5   68.27   15.52
 -20   6  -5   73.48   10.23
   6  14  -2  124.06   16.21
 -20   6  -2   91.97   11.19
 -20   6  -2  106.61   14.62
  14 -20  -2  105.51   12.37
   6  14  -2  115.66   14.75
   6  14   1  160.80   16.24
   6  14   1  169.50   13.64
  14 -20   1  148.05   10.23
 -20   6   1  172.83   14.64
   6  14   4   96.02    8.13
   6  14   4   94.69   11.80
 -20   6   4   74.52   10.58
   6  14   7   64.31    8.70
 -19   5  -9   30.37   11.79
 -19   5  -9   21.10   15.60
  14 -19  -9   22.40   15.69
   5  14  -9   32.84   17.37
   5  14  -9   35.29   15.53
   5  14  -6   83.64   15.72
 -19   5  -6   64.79   10.71
  14 -19  -6   61.40   15.23
 -19   5  -6   79.06   11.50
   5  14  -6   74.07   16.07
 -19   5  -6   94.60   17.91
  14 -19  -3  168.81   16.57
   5  14  -3  203.29   19.08
 -19   5  -3  167.89   13.59
   5  14  -3  173.29   18.13
 -19   5  -3  200.66   19.41
   5  14   0  102.55   13.83
 -19   5   0  106.99   12.02
   5  14   0   98.71   11.73
  14 -19   0  108.27    9.75
   5  14   3   84.98   11.51
   5  14   3   86.55    8.30
 -19   5   3   74.75    9.32
   5  14   6   60.70    9.66
 -18   4 -10  189.47   19.98
   4  14 -10  220.30   27.91
 -18   4 -10  184.57   27.68
   4  14 -10  214.15   23.85
  14 -18 -10  171.91   26.19
  14 -18  -7  354.06   29.57
   4  14  -7  351.50   26.30
   4  14  -7  354.78   28.30
 -18   4  -7  351.17   29.70
 -18   4  -7  342.58   20.96
  14 -18  -7  309.60   19.18
   4  14  -4  650.34   32.37
   4  14  -4  649.17   31.33
  14 -18  -4  581.72   28.55
 -18   4  -4  565.21   24.57
 -18   4  -4  680.08   34.00
 -18   4  -4  634.35   24.32
   4  14  -4  567.77   20.34
   4  14  -1  629.66   28.68
   4  14  -1  619.30   26.60
 -18   4  -1  634.64   25.37
 -18   4  -1  643.18   27.66
  14 -18  -1  602.61   21.97
   4  14   2  241.76   17.46
   4  14   2  253.75   13.43
  14 -18   2  226.18    8.68
 -18   4   2  270.67   14.85
   4  14   5  638.75   24.02
 -18   4   5  548.77   18.57
   4  14   8   50.26    5.66
   3  14 -11   28.89   18.86
 -17   3 -11    5.54   11.90
  14 -17 -11   19.34   18.80
 -17   3 -11   19.36   17.62
   3  14 -11    2.63   12.83
   3  14  -8   93.46   18.48
   3  14  -8   89.30   16.19
 -17   3  -8   71.91   17.66
 -17   3  -8   68.93   12.66
  14 -17  -8   73.57   18.30
  14 -17  -8  100.73   12.74
   3  14  -8   63.21    7.52
  14 -17  -5   10.34    7.95
   3  14  -5   15.80   10.40
   3  14  -5    5.72   10.32
 -17   3  -5   15.90   10.99
 -17   3  -5    5.68    7.28
  14 -17  -5    2.12   10.49
 -17   3  -5    3.51    7.09
   3  14  -5   -3.15    5.82
   3  14  -2   50.27    9.54
   3  14  -2   24.00   10.34
 -17   3  -2   34.28   10.55
  14 -17  -2   30.39    7.82
 -17   3  -2   44.27    8.87
  14 -17   1  271.54   10.59
   3  14   1  260.58   14.80
 -17   3   1  275.45   15.48
   3  14   1  253.28   18.13
   3  14   4   71.28   10.59
   3  14   4   49.57    4.03
 -17   3   4   76.53    8.09
   3  14   7    2.75    5.69
   3  14   7   13.44    6.81
   2  14  -9   63.32   15.34
   2  14  -9   58.35   17.54
  14 -16  -9   71.44   17.54
 -16   2  -9   53.88   17.74
  14 -16  -9   42.36   11.05
 -16   2  -9   66.21   12.81
   2  14  -6   95.64   14.77
 -16   2  -6  108.13   10.86
 -16   2  -6  112.41   13.14
   2  14  -6  127.82   18.22
  14 -16  -6   95.55   16.74
 -16   2  -6  104.30   17.96
  14 -16  -6   97.34   12.65
   2  14  -6  100.57   10.04
 -16   2  -3   18.91    8.02
   2  14  -3   21.58    7.71
  14 -16  -3   10.31    9.07
   2  14  -3   17.33    8.97
   2  14  -3   20.86   10.15
 -16   2  -3   24.49    7.68
  14 -16  -3   22.29    9.01
 -16   2  -3   30.19   10.58
   2  14   0  175.56   16.19
   2  14   0  183.80   15.76
   2  14   0  182.35   13.92
 -16   2   0  165.38   14.65
 -16   2   0  177.90   13.91
  14 -16   0  184.84   10.42
   2  14   3  106.19   11.73
   2  14   3   89.72    6.69
 -16   2   3   94.18    8.05
   2  14   6  142.79   11.79
   1  14 -10  325.99   26.64
  14 -15 -10  292.85   31.15
 -15   1 -10  287.45   31.04
 -15   1 -10  321.19   25.31
   1  14 -10  347.01   30.95
 -15   1  -7  402.92   23.42
 -15   1  -7  315.70   12.46
   1  14  -7  377.64   25.72
   1  14  -7  403.41   29.43
  14 -15  -7  363.95   29.07
 -15   1  -7  388.04   29.56
  14 -15  -7  338.58   20.52
   1  14  -7  351.33   17.08
   1  14  -4  936.69   34.86
  14 -15  -4  956.53   35.95
   1  14  -4  926.62   36.54
 -15   1  -4  963.57   29.65
 -15   1  -4  968.60   38.90
 -15   1  -4  964.08   28.19
  14 -15  -4  915.67   30.91
   1  14  -4  942.86   26.94
 -15   1  -4  863.64   29.88
 -15   1  -1 1135.67   33.74
   1  14  -1 1159.78   35.66
 -15   1  -1 1062.51   33.04
  14 -15  -1 1130.00   27.63
 -15   1  -1 1155.97   34.09
 -15   1  -1 1113.56   32.07
   1  14  -1 1242.76   35.24
   1  14  -1 1163.86   34.19
   1  14   2  353.06   19.13
   1  14   2  346.91   13.90
 -15   1   2  340.66   13.76
   1  14   5 1660.85   36.07
   1  14   8   19.88    4.75
   0  14 -11   -5.40   11.96
 -14   0 -11   -2.00   12.11
   0  14 -11  -12.35   15.74
  14 -14 -11   12.08   18.48
 -14   0 -11    0.85   15.71
   0  14  -8    9.19   10.18
   0  14  -8   -6.09   11.94
  14 -14  -8    2.55   13.38
 -14   0  -8    3.79   15.31
 -14   0  -8    7.19   10.05
   0  14  -8   -0.47    6.48
  14 -14  -8    6.94    8.82
 -14   0  -5    5.66    6.17
   0  14  -5    4.25   11.37
  14 -14  -5   19.13   11.81
   0  14  -5    4.35    8.47
  14 -14  -5    6.09    8.66
 -14   0  -5  -12.95   10.95
 -14   0  -5    5.05    6.98
 -14   0  -5    1.10    7.37
   0  14  -5    1.71    6.48
  14 -14  -5   -2.43    7.37
   0  14  -2   76.61   11.89
   0  14  -2   80.10   11.92
   0  14  -2   67.88    9.96
 -14   0  -2   80.88   10.84
 -14   0  -2   70.29    9.94
 -14   0  -2   81.10   12.20
  14 -14  -2   80.55   10.41
  14 -14  -2   77.01   11.11
   0  14  -2   78.23   10.54
 -14   0  -2   67.76   10.16
   0  14   1   35.10   11.90
   0  14   1   17.13    6.45
  14 -14   1   27.08    3.47
 -14   0   1   34.56    6.75
   0  14   1   26.30    9.24
   0  14   4   65.27    9.48
 -14   0   4   30.25    2.82
   0  14   7    7.72    5.85
   0  14   7    7.98    6.37
  -1  14  -9  193.91   23.29
  -1  14  -9  225.06   20.43
 -13  -1  -9  206.34   27.06
  14 -13  -9  169.62   24.50
  -1  14  -9  223.11   16.70
 -13  -1  -9  199.18   20.44
  14 -13  -9  178.05   16.90
  -1  14  -6    4.05    9.28
  -1  14  -6    8.09   11.11
  14 -13  -6    9.07   11.53
 -13  -1  -6   15.49    8.53
 -13  -1  -6   21.70    5.63
 -13  -1  -6    2.62   10.88
 -13  -1  -6   14.62    7.73
  -1  14  -6   16.16    7.06
  14 -13  -6   34.53   10.01
  14 -13  -6   18.20   10.10
  -1  14  -3  214.60   17.18
 -13  -1  -3  279.40   15.55
  14 -13  -3  238.53   17.88
 -13  -1  -3  254.19   15.86
 -13  -1  -3  257.45   20.15
 -13  -1  -3  260.10   15.80
  -1  14  -3  236.93   15.58
  14 -13  -3  223.09   16.48
  -1  14  -3  231.48   15.13
  -1  14  -3  246.59   19.04
  14 -13  -3  250.54   17.96
  -1  14   0   22.62    8.67
  -1  14   0   24.94    7.53
  -1  14   0   26.73    8.76
 -13  -1   0   25.09    7.10
  -1  14   0   28.19    8.17
 -13  -1   0   11.59    7.39
 -13  -1   0   15.32    7.73
  14 -13   0   27.88    5.56
 -13  -1   0   31.55    9.00
  14 -13   0   21.01    7.74
  -1  14   3   60.57    5.31
 -13  -1   3   58.94    4.47
  -1  14   6   42.07    7.72
  -1  14   6   31.47    7.29
  -2  14 -10  389.83   26.25
  -2  14 -10  339.99   21.96
 -12  -2 -10  405.56   35.38
  14 -12 -10  325.01   22.22
  14 -12 -10  377.20   33.60
 -12  -2 -10  384.69   28.45
  -2  14 -10  446.84   33.95
  -2  14  -7  366.05   27.10
  14 -12  -7  388.01   29.97
  -2  14  -7  341.04   18.77
  14 -12  -7  382.02   23.45
 -12  -2  -7  322.16   17.34
  14 -12  -7  371.65   21.68
 -12  -2  -7  394.76   23.87
  -2  14  -7  368.68   23.02
  -2  14  -4  328.96   20.49
  -2  14  -4  342.03   22.95
 -12  -2  -4  353.91   16.26
 -12  -2  -4  341.56   17.03
  14 -12  -4  368.44   21.69
  14 -12  -4  280.46   21.88
  14 -12  -4  331.05   19.17
  14 -12  -4  343.87   20.09
  -2  14  -4  309.62   17.95
  -2  14  -4  339.03   17.34
 -12  -2  -4  355.41   19.08
  -2  14  -1  959.98   27.84
  -2  14  -1 1015.20   32.47
 -12  -2  -1  912.15   28.96
 -12  -2  -1  913.92   28.00
  -2  14  -1  965.07   30.08
  14 -12  -1  972.29   32.30
  14 -12  -1  949.43   31.25
 -12  -2  -1  966.13   30.06
 -12  -2  -1  946.12   29.20
  -2  14  -1  966.63   30.96
  14 -12  -1  927.70   29.97
  14 -12  -1  937.76   25.26
  -2  14   2  614.27   29.57
  -2  14   2  623.62   17.84
  -2  14   2  610.88   25.62
 -12  -2   2  634.66   15.46
  -2  14   8   99.02    8.59
 -11  -3 -11    4.02   13.84
  -3  14 -11   34.60   15.25
  14 -11 -11   45.68   19.56
 -11  -3 -11   41.28   20.22
  14 -11 -11   20.48   11.89
  -3  14 -11   16.96   11.19
  -3  14 -11    8.74   15.40
  -3  14  -8   71.91   13.70
  14 -11  -8   91.35   18.89
  -3  14  -8   80.47   17.29
  14 -11  -8  111.92   14.48
  -3  14  -8   90.51   11.81
  14 -11  -8   98.28   14.59
 -11  -3  -8   82.13   14.66
 -11  -3  -5  137.31   14.23
  -3  14  -5  133.35   14.49
  -3  14  -5  120.03   12.46
  14 -11  -5  119.69   13.21
  14 -11  -5  130.91   14.38
  -3  14  -5   98.08   14.73
 -11  -3  -5  132.04    9.32
  14 -11  -5  137.83   16.69
 -11  -3  -5  135.89   10.98
  -3  14  -5  125.15   12.41
  14 -11  -5  101.68   12.13
  -3  14  -2  128.84   14.13
  14 -11  -2  168.77   13.82
  -3  14  -2  127.83   10.91
 -11  -3  -2  163.35   12.60
 -11  -3  -2  160.82   12.30
  14 -11  -2  133.62   12.39
 -11  -3  -2  135.40   12.46
  14 -11  -2  166.43   14.29
  14 -11  -2  174.47   15.68
  -3  14  -2  173.39   13.93
  -3  14  -2  153.16   14.55
 -11  -3   1  115.43   12.73
 -11  -3   1  117.76   12.71
  14 -11   1  119.85   12.75
  14 -11   1  122.27   13.22
  14 -11   1   96.31    5.27
  14 -11   1  107.36    5.73
  -3  14   1  106.96   11.60
 -11  -3   1  103.94    8.48
 -11  -3   1  116.33   12.27
  -3  14   1  146.13   15.54
  -3  14   7  152.40   11.33
 -10  -4 -12  -22.06   18.82
  14 -10 -12    7.92   19.10
 -10  -4 -12    2.77   17.31
  -4  14 -12    8.63   13.83
  -4  14 -12   -3.06   16.42
  -4  14  -9  134.21   20.64
  14 -10  -9  103.93   14.88
 -10  -4  -9   94.41   10.16
  14 -10  -9  137.88   24.22
  -4  14  -9  116.87   15.68
  14 -10  -9  122.21   15.40
  -4  14  -9  111.49   14.22
 -10  -4  -9  126.86   17.66
  -4  14  -6   48.21   11.36
  -4  14  -6   51.75   14.12
  14 -10  -6   39.96   13.17
  14 -10  -6   27.22    9.55
  -4  14  -6   26.81    8.22
 -10  -4  -6   38.04   10.57
  14 -10  -6   28.87    9.18
  14 -10  -6   10.58    8.51
 -10  -4  -6   37.45    6.93
  -4  14  -3  618.18   27.37
 -10  -4  -3  585.35   20.54
 -10  -4  -3  597.70   23.89
  14 -10  -3  617.52   26.17
 -10  -4  -3  566.29   19.35
  -4  14  -3  555.22   20.20
  -4  14  -3  532.81   23.85
  14 -10  -3  544.00   22.09
  14 -10  -3  549.58   23.31
  -4  14  -3  563.44   22.44
  -4  14   0   43.22    7.67
  14 -10   0   42.55   10.00
 -10  -4   0   54.75   10.16
 -10  -4   0   44.83    8.74
  14 -10   0   35.59    9.66
 -10  -4   0   50.05    9.20
  14 -10   0   52.12    9.52
  -4  14   0   48.33    9.90
  -4  14   3  195.22   19.27
  -4  14   3  189.47    8.91
  -4  14   6    8.73    6.38
  -9  -5 -10  246.57   25.18
  14  -9 -10  229.21   20.40
  -5  14 -10  226.93   26.09
  -5  14 -10  230.16   19.75
  -5  14 -10  214.44   19.72
  14  -9 -10  237.08   28.77
  14  -9 -10  211.16   19.75
  -5  14 -10  249.93   23.16
  14  -9  -7  282.14   25.12
  -5  14  -7  300.60   24.38
  14  -9  -7  287.17   20.32
  -5  14  -7  290.47   20.25
  -5  14  -7  294.56   19.73
  -9  -5  -7  268.47   12.43
  14  -9  -7  300.53   20.41
  -9  -5  -7  298.41   21.92
  -9  -5  -4  554.94   18.71
  -9  -5  -4  454.95   22.28
  14  -9  -4  470.33   23.54
  14  -9  -4  492.45   23.16
  14  -9  -4  442.55   20.10
  -5  14  -4  488.42   21.60
  -5  14  -4  488.76   19.04
  -9  -5  -4  451.28   16.02
  -5  14  -4  492.18   23.08
  14  -9  -1 1314.60   35.71
  14  -9  -1 1265.98   34.44
  -9  -5  -1 1319.15   31.00
  14  -9  -1 1283.09   32.68
  -9  -5  -1 1255.38   31.72
  -5  14  -1 1287.99   34.67
  -5  14  -1 1291.54   28.60
  -9  -5   2 1138.72   35.86
  -9  -5   2 1009.94   31.40
  14  -9   2  922.82   12.82
  14  -9   2 1044.61   29.78
  14  -9   2  998.44   32.73
  -5  14   2  954.85   30.29
  -5  14   2 1021.84   23.28
  -5  14   2 1057.41   36.30
  -9  -5   2 1027.38   18.54
  -9  -5   2 1031.42   31.87
  -5  14   5  475.28    8.58
  -5  14   5  717.47   24.33
  -5  14   8  181.98   12.57
  -8  -6 -11   88.67   19.00
  -6  14 -11   69.29   18.47
  14  -8 -11   82.69   22.49
  14  -8 -11  115.95   16.71
  14  -8 -11  109.09   17.42
  -6  14 -11   74.94   15.25
  -6  14 -11  127.55   19.40
  -6  14  -8  201.29   17.67
  -6  14  -8  203.87   22.84
  -8  -6  -8  128.75    7.67
  14  -8  -8  165.50   17.56
  -6  14  -8  180.85   17.22
  14  -8  -8  200.46   17.95
  -8  -6  -8  175.61   19.03
  14  -8  -8  142.18   21.92
  -6  14  -5  396.98   21.60
  -6  14  -5  364.85   17.35
  14  -8  -5  385.52   21.76
  -8  -6  -5  366.06   12.78
  14  -8  -5  355.18   20.16
  -6  14  -5  370.18   19.99
  14  -8  -5  348.24   17.83
  -8  -6  -5  372.01   21.98
  -6  14  -2  304.64   13.41
  14  -8  -2  281.23   18.02
  -8  -6  -2  282.95   15.42
  -8  -6  -2  269.39   13.55
  14  -8  -2  280.18   15.40
  14  -8  -2  345.85   19.36
  -6  14  -2  279.78   17.04
  -8  -6  -2  302.71   17.47
  -8  -6   1 1678.58   30.56
  -8  -6   1 1534.36   36.62
  -8  -6   1 1628.05   38.13
  14  -8   1 1623.89   38.95
  -6  14   1 1688.33   36.01
  -8  -6   1 1643.62   39.83
  14  -8   1 1692.61   24.09
  14  -8   1 1666.97   37.71
  14  -8   1 1625.96   40.27
  -6  14   1 1589.85   41.32
  -6  14   4  161.84   17.77
  -6  14   4  161.76   12.62
  -6  14   4  162.65    8.35
  14  -8   4  136.60    7.84
  -6  14   7  323.24   16.73
  -7  -7 -12   51.27   18.09
  -7  14 -12   32.48   16.57
  14  -7 -12   39.13   22.49
  14  -7 -12   49.38   15.58
  -7  14 -12   37.53   14.42
  -7  14 -12   52.15   16.71
  -7  14  -9  119.44   16.63
  -7  14  -9  148.27   15.27
  14  -7  -9  169.04   17.67
  -7  14  -9  136.08   20.20
  14  -7  -9  124.17   16.26
  -7  14  -9  123.09   16.54
  -7  -7  -9  158.09   20.00
  14  -7  -9  122.18   21.02
  -7  14  -6   -0.25    8.16
  -7  14  -6   -7.21    8.18
  14  -7  -6    6.11    8.45
  -7  -7  -6    1.95    9.52
  -7  -7  -6    7.00    2.83
  14  -7  -6    3.93    9.24
  14  -7  -6    3.52    6.17
  -7  14  -6    9.16    6.53
  -7  -7  -3 1423.54   31.14
  -7  -7  -3 1370.30   36.20
  14  -7  -3 1329.41   37.22
  -7  -7  -3 1312.75   24.90
  -7  14  -3 1347.36   26.07
  14  -7  -3 1348.10   36.29
  14  -7  -3 1327.79   30.58
  -7  -7   0   41.09    8.87
  -7  -7   0   41.56    8.12
  -7  14   0   40.72    7.05
  14  -7   0   52.79    9.05
  14  -7   0   31.79    9.25
  -7  -7   0   41.80    8.14
  14  -7   0   46.99    6.68
  -7  -7   0   41.51   10.10
  -7  14   0   53.46   10.38
  14  -7   0   38.91   10.05
  -7  14   3  761.55   28.71
  -7  14   3  772.08   25.91
  -7  14   3  764.30   19.79
  14  -7   3  746.59   24.33
  14  -7   3  722.04   16.10
  -7  14   3  728.70   32.27
  -7  14   6   17.96    4.25
  -7  14   6   13.40    6.73
  -8  14 -10   31.29   11.57
  -8  14 -10   61.58   16.99
  -8  14 -10   39.40   10.64
  14  -6 -10   14.93   15.24
  14  -6 -10   45.71   12.50
  14  -6 -10   39.00   13.50
  -8  14 -10   45.21   13.68
  -6  -8 -10   25.66   13.78
  -8  14  -7  129.85   14.08
  14  -6  -7  123.14   14.98
  -8  14  -7  134.03   18.02
  -8  14  -7  137.17   16.40
  -8  14  -7   96.99   11.80
  14  -6  -7  131.25   12.40
  -6  -8  -7  141.15   17.11
  14  -6  -7  120.93   15.72
  -6  -8  -4  322.49   10.18
  14  -6  -4  349.40   20.80
  14  -6  -4  337.08   19.75
  -8  14  -4  345.62   13.46
  14  -6  -4  371.29   16.16
  -8  14  -4  356.99   19.73
  -6  -8  -4  369.85   21.08
  -6  -8  -1 1301.99   35.29
  -6  -8  -1 1385.81   33.21
  -6  -8  -1 1385.25   29.63
  14  -6  -1 1409.22   32.58
  14  -6  -1 1448.63   36.98
  -6  -8  -1 1350.19   34.76
  14  -6  -1 1420.36   32.32
  -8  14  -1 1370.88   25.57
  14  -6  -1 1392.06   36.05
  -8  14  -1 1295.52   34.89
  -6  -8   2  335.22   20.14
  -6  -8   2  335.79   18.79
  -6  -8   2  358.70   19.81
  -8  14   2  354.89   18.81
  14  -6   2  332.42   17.18
  -6  -8   2  363.20   12.20
  -8  14   2  314.60   17.55
  14  -6   2  303.35   19.12
  -8  14   2  351.62   21.60
  -8  14   2  343.01   15.23
  14  -6   2  338.64   19.39
  14  -6   2  330.61   12.11
  -8  14   5  466.13   28.34
  -8  14   5  427.40   19.98
  -8  14   5  438.73   14.78
  14  -6   5  442.06   17.41
  -8  14   8   77.80   10.54
  14  -5 -11  176.11   27.32
  -9  14 -11  184.55   24.67
  14  -5 -11  161.09   19.09
  -5  -9 -11  184.06   25.21
  14  -5 -11  178.16   22.09
  -9  14 -11  149.73   20.31
  -9  14 -11  163.69   20.28
  14  -5  -8  396.54   24.54
  -9  14  -8  419.26   22.64
  -9  14  -8  394.77   22.22
  14  -5  -8  375.64   24.97
  -9  14  -8  413.63   29.96
  -9  14  -8  413.34   26.29
  -5  -9  -8  377.04   27.87
  14  -5  -8  344.81   18.30
  -9  14  -5  496.11   16.89
  14  -5  -5  490.18   24.98
  -9  14  -5  487.13   24.53
  14  -5  -5  485.08   17.67
  14  -5  -5  518.74   25.02
  -5  -9  -5  466.65   25.46
  -5  -9  -2 1070.14   35.10
  14  -5  -2 1152.16   27.39
  -5  -9  -2 1089.77   23.27
  -5  -9  -2 1128.67   32.45
  14  -5  -2 1207.08   34.52
  14  -5  -2 1096.90   32.55
  -9  14  -2 1098.58   20.18
  -9  14  -2 1133.85   32.86
  -5  -9   1 1722.04   39.78
  14  -5   1 1796.70   30.06
  -5  -9   1 1707.16   38.34
  -9  14   1 1727.80   35.02
  -5  -9   1 1735.21   40.37
  -5  -9   1 1703.87   31.75
  14  -5   1 1727.88   37.67
  14  -5   1 1738.77   40.61
  14  -5   1 1683.09   39.49
  -9  14   1 1689.69   39.27
  -9  14   1 1719.59   36.03
  14  -5   4   44.49    6.81
  14  -5   4   52.35    8.35
  -9  14   4   56.07    9.11
  -9  14   4   62.40    7.69
  -5  -9   4   43.74    3.89
  -9  14   4   60.53   14.04
  -9  14   7  370.05   15.25
  -9  14   7  338.32   18.75
 -10  14 -12    0.25   15.06
  14  -4 -12   23.36   15.20
  14  -4 -12    1.03   18.29
 -10  14 -12  -15.51   15.15
  -4 -10 -12    3.47   16.98
 -10  14  -9  243.13   25.38
 -10  14  -9  286.83   20.41
  14  -4  -9  295.08   22.45
  14  -4  -9  273.75   23.59
  -4 -10  -9  264.16   24.92
 -10  14  -9  256.53   23.42
 -10  14  -9  281.24   19.00
  -4 -10  -6   22.15   11.22
  14  -4  -6    5.91    9.65
 -10  14  -6   16.32    6.45
  14  -4  -6   12.29   10.13
 -10  14  -6   11.00    9.44
  14  -4  -6   10.39    5.52
 -10  14  -6   21.15    6.29
  -4 -10  -3  411.12   21.60
  14  -4  -3  442.43   22.27
  -4 -10  -3  416.61   12.35
  14  -4  -3  426.58   15.59
  14  -4  -3  411.47   21.43
 -10  14  -3  426.10   21.63
 -10  14  -3  368.44   10.61
  14  -4   0   89.97    9.05
  14  -4   0   85.27   11.36
  -4 -10   0   84.88   10.72
 -10  14   0   79.72    8.09
  14  -4   0   79.49   10.18
  -4 -10   0   90.52   11.85
  14  -4   0   84.45   10.96
 -10  14   0   83.64   11.18
  -4 -10   0   72.63    9.72
 -10  14   0   86.27   12.29
 -10  14   0   82.90   10.70
  -4 -10   0   88.20   10.05
 -10  14   3  652.25   29.76
  14  -4   3  678.83   22.64
 -10  14   3  664.08   25.29
 -10  14   3  687.44   27.24
  14  -4   3  648.35   26.16
 -10  14   3  704.73   22.03
  -4 -10   3  688.93   16.44
  14  -4   3  699.01   20.58
  -4 -10   3  746.32   29.79
 -10  14   6   27.01    7.06
  14  -4   6   33.40    8.46
 -10  14   6   24.57    8.22
 -11  14 -10   77.27   11.55
 -11  14 -10   78.57   14.23
  14  -3 -10   71.64   14.43
  14  -3 -10  118.07   18.61
 -11  14 -10   89.56   18.31
 -11  14 -10   92.35   18.44
  -3 -11 -10   79.40   18.78
 -11  14  -7  130.66   13.59
  -3 -11  -7  171.12   20.00
 -11  14  -7  182.72   12.90
  14  -3  -7  188.87   17.26
  14  -3  -7  178.42   18.48
 -11  14  -7  153.06   17.76
  14  -3  -7  155.46    9.76
 -11  14  -7  167.30   12.90
 -11  14  -4   54.18    4.41
  14  -3  -4   56.92   11.12
  14  -3  -4   47.38    6.02
  14  -3  -4   46.59   10.67
 -11  14  -4   42.69   10.51
  -3 -11  -4   60.42   12.02
  -3 -11  -1  231.38   13.04
 -11  14  -1  200.76   15.33
  -3 -11  -1  200.50   15.17
  14  -3  -1  195.06   15.89
  14  -3  -1  206.93   14.29
  14  -3  -1  217.91   13.13
  14  -3  -1  232.84   16.59
 -11  14  -1  185.53   14.97
 -11  14  -1  186.37   15.40
  -3 -11  -1  224.94   16.15
 -11  14  -1  186.35    8.78
 -11  14   2  104.65   10.69
 -11  14   2  112.48   11.82
  -3 -11   2   97.73   12.56
 -11  14   2  110.09   12.02
  -3 -11   2  118.35   12.86
  -3 -11   2   93.89    8.46
  14  -3   2  110.97   12.42
 -11  14   2   91.34   13.69
  14  -3   2  124.17   11.11
  14  -3   2  105.16    9.58
  14  -3   5   72.28    9.81
 -11  14   5   81.03    9.29
  -3 -11   5   87.36    6.99
  14  -3   5   84.89    8.88
 -11  14   5   98.71   15.43
 -11  14   8   56.32    9.65
  14  -2 -11  165.19   27.50
 -12  14 -11  166.97   23.21
  14  -2 -11  173.56   20.89
  14  -2 -11  150.00   21.95
 -12  14 -11  162.90   22.37
  -2 -12 -11  142.03   23.85
 -12  14  -8  346.83   20.34
 -12  14  -8  400.24   19.74
  14  -2  -8  371.86   25.00
  14  -2  -8  331.93   25.47
  -2 -12  -8  304.00   26.39
 -12  14  -8  326.55   25.71
  14  -2  -5  631.32   28.63
  14  -2  -5  662.07   29.64
  14  -2  -5  552.35   13.66
 -12  14  -5  674.24   29.87
 -12  14  -5  629.21   14.22
  -2 -12  -5  664.12   30.44
 -12  14  -5  545.37   13.29
  -2 -12  -2  794.53   28.31
 -12  14  -2  784.92   28.69
  14  -2  -2  725.41   20.50
  14  -2  -2  808.98   29.18
 -12  14  -2  827.21   29.64
  14  -2  -2  771.71   29.01
  14  -2  -2  818.62   29.56
  -2 -12  -2  791.08   31.22
  14  -2   1 1025.52   29.90
 -12  14   1 1079.44   33.79
  14  -2   1 1126.07   28.02
 -12  14   1 1126.44   33.53
  14  -2   1 1074.57   31.45
 -12  14   1 1114.09   31.02
  -2 -12   1 1132.75   28.39
  -2 -12   1 1129.92   33.04
  14  -2   4   56.89    7.85
 -12  14   4   58.20    8.97
  14  -2   4   72.13    9.33
  -2 -12   4   72.09    7.41
 -12  14   4   90.32   13.97
 -12  14   7  538.03   22.78
  14  -1  -9   83.87   15.21
 -13  14  -9   67.41   11.05
  14  -1  -9   47.73   14.38
 -13  14  -9   67.20   15.48
  -1 -13  -9   67.83   18.01
 -13  14  -9   52.69   10.07
  -1 -13  -6   19.88   11.69
  14  -1  -6   19.54   10.99
  14  -1  -6    4.41   10.25
 -13  14  -6    0.38    3.70
 -13  14  -6    9.80   10.13
 -13  14  -6    5.15    3.85
  14  -1  -3  106.15   13.57
 -13  14  -3  121.71   14.10
  -1 -13  -3   92.26   12.54
  14  -1   0   73.88   11.00
 -13  14   0   68.98   11.00
 -13  14   0   69.36   11.80
  -1 -13   0   77.51   10.92
  14  -1   0   59.81   10.82
  14  -1   0   94.40    9.92
 -13  14   0   72.08   11.21
  -1 -13   0   76.66   10.68
  14  -1   3  270.63   15.10
 -13  14   3  262.13   15.75
  -1 -13   3  278.67   13.97
  14  -1   3  233.70   16.20
  14  -1   3  242.69   15.04
  -1 -13   3  265.56   18.77
 -13  14   3  207.78   17.96
 -13  14   6   42.96   13.72
  14  -1   6   28.09    5.95
 -13  14   6   34.96    9.34
  14   0 -10   67.01   15.69
 -14  14 -10   41.11   15.38
  14   0 -10   64.88   16.56
 -14  14 -10   57.72   17.11
   0 -14 -10   51.62   17.06
  14   0  -7   13.44   11.36
  14   0  -7   16.70   12.48
 -14  14  -7    1.75   10.50
 -14  14  -7    4.98    4.58
 -14  14  -7   14.37    5.85
   0 -14  -7   24.34   13.26
   0 -14  -4   58.26   12.32
  14   0  -4   51.60   11.64
  14   0  -4   46.32   11.94
 -14  14  -4   42.52   10.11
  14   0  -1   37.47   10.15
  14   0  -1   34.08    9.32
 -14  14  -1   21.39    9.19
   0 -14  -1   24.77    8.33
  14   0  -1   29.86    7.90
   0 -14  -1   14.30    9.36
  14   0   2   70.33    9.95
   0 -14   2   65.64   10.97
 -14  14   2   64.56    9.98
   0 -14   2   58.51    8.21
  14   0   2   52.02    9.78
 -14  14   2   61.76   10.95
  14   0   2   68.57    9.64
 -14  14   5   -5.95   10.30
  14   0   5    3.92    5.86
 -14  14   5   -0.52    7.38
   0 -14   5   10.70    6.35
  14   1 -11  144.76   19.99
 -15  14 -11  157.38   23.03
   1 -15 -11  154.21   24.72
  14   1 -11  139.84   23.40
 -15  14 -11  153.37   23.81
  14   1  -8  340.45   27.21
  14   1  -8  348.21   25.60
 -15  14  -8  352.94   15.74
 -15  14  -8  330.87   26.98
   1 -15  -8  300.95   26.65
 -15  14  -5 1195.95   41.97
  14   1  -5 1109.55   39.58
  14   1  -5 1123.20   40.26
   1 -15  -5 1099.31   41.15
   1 -15  -2  523.60   24.28
  14   1  -2  419.85   22.79
  14   1  -2  499.59   24.50
 -15  14  -2  450.19   24.49
  14   1   1  920.96   29.04
  14   1   1  887.76   29.26
   1 -15   1  919.67   28.66
  14   1   1  966.58   30.05
 -15  14   1  914.73   32.28
   1 -15   1  945.33   30.47
   1 -15   4  423.60   19.12
  14   1   4  456.07   18.99
 -15  14   4  494.08   26.85
  14   1   4  422.55   21.33
 -16  14  -9   28.46    9.20
 -16  14  -9   13.86   14.11
  14   2  -9   38.13   14.64
   2 -16  -9   25.39   14.68
  14   2  -6   87.68   14.78
  14   2  -6   86.28   15.29
 -16  14  -6   76.80   16.09
   2 -16  -6   65.26   14.92
  14   2  -3  178.41   16.93
  14   2  -3  199.12   18.12
 -16  14  -3  186.23   17.55
   2 -16  -3  179.52   17.02
 -16  14   0  198.10   16.77
  14   2   0  195.75   15.96
   2 -16   0  204.65   15.16
  14   2   0  166.52   14.38
   2 -16   0  180.66   14.81
  14   2   3   42.74    8.68
   2 -16   3   40.39    8.44
 -16  14   3   51.80   11.46
  14   2   3   46.86    9.46
   2 -16   3   56.13   10.76
  14   2   6  107.59    9.12
 -16  14   6  113.12   17.09
  14   3 -10   -5.00   15.02
  14   3 -10   40.47   15.30
 -17  14 -10    5.19   13.76
   3 -17 -10   39.56   17.29
 -17  14  -7   31.61    3.78
 -17  14  -7   27.11   13.72
  14   3  -7   22.69   12.41
  14   3  -7   39.61   12.68
 -17  14  -7   26.11    3.98
   3 -17  -7   18.73   13.00
   3 -17  -4   28.52   10.85
  14   3  -4    9.48   10.23
  14   3  -4   15.47   10.09
 -17  14  -4   32.12   11.83
   3 -17  -1  148.56   14.67
  14   3  -1  177.41   15.44
  14   3  -1  147.02   15.06
 -17  14  -1  130.76   14.21
   3 -17   2   48.61    9.73
   3 -17   2   41.60    8.81
  14   3   2   35.69    8.93
 -17  14   2   31.25   10.47
  14   3   2   50.15    9.86
 -17  14   5    9.03   10.01
  14   3   5   17.47    6.87
   3 -17   5    0.05    7.40
  14   4 -11  130.74   20.75
   4 -18 -11  164.34   26.46
 -18  14 -11  132.50   23.96
  14   4 -11   92.49   21.32
  14   4  -8  313.96   25.83
  14   4  -8  330.37   27.71
 -18  14  -8  300.70   27.69
   4 -18  -8  286.11   28.43
  14   4  -5  450.35   27.42
  14   4  -5  477.68   28.78
 -18  14  -5  399.72   27.08
   4 -18  -5  482.94   28.92
   4 -18  -2  428.27   23.10
  14   4  -2  476.55   25.85
  14   4  -2  464.86   24.94
 -18  14  -2  426.93   25.48
  14   4   1  739.94   28.35
  14   4   1  654.68   25.96
   4 -18   1  669.69   26.52
 -18  14   1  671.82   28.95
  14   4   4  389.17   19.16
  14   4   4  339.53   19.78
 -18  14   4  400.11   24.74
 -18  14   7  429.36   29.32
  14   4   7  430.95   14.29
  14   5  -9   83.61   17.47
 -19  14  -9   57.52   17.50
  14   5  -9   47.93   16.29
   5 -19  -9   47.79   17.39
  14   5  -6  194.15   20.32
  14   5  -6  165.63   19.86
 -19  14  -6  179.66   21.35
   5 -19  -6  181.00   21.00
  14   5  -3  147.52   17.00
  14   5  -3  137.32   16.43
 -19  14  -3  142.79   16.77
   5 -19  -3  149.02   16.52
  14   5   0   67.98   11.90
   5 -19   0   78.19   11.15
  14   5   0   67.17   11.41
 -19  14   0   73.29   12.24
  14   5   3  262.69   17.56
  14   5   3  209.31   16.03
   5 -19   3  249.95   17.96
 -19  14   3  210.38   18.47
  14   5   6   63.94    8.52
 -19  14   6   95.85   16.01
  14   6 -10   14.41   14.05
  14   6 -10    2.63   15.17
 -20  14 -10  -13.67   16.11
   6 -20 -10    7.43   15.53
  14   6  -7   96.18   17.13
  14   6  -7   82.96   18.64
 -20  14  -7  100.10   18.66
   6 -20  -7   90.83   17.94
  14   6  -4  119.63   16.96
   6 -20  -4   85.67   14.69
  14   6  -4  123.83   16.84
 -20  14  -4  117.20   17.70
  14   6  -1  166.10   16.98
   6 -20  -1  178.73   15.69
 -20  14  -1  150.58   17.10
  14   6  -1  135.04   15.03
   6 -20   2   49.55   10.59
  14   6   2   65.33   11.18
  14   6   2   60.77   10.31
 -20  14   2   53.71   11.31
 -20  14   5   95.42   15.37
  14   6   5  101.38   12.05
  14   7  -8  285.38   26.21
  14   7  -8  308.35   28.92
 -21  14  -8  297.70   28.69
   7 -21  -8  280.33   29.41
  14   7  -5  192.39   20.54
  14   7  -5  225.26   22.03
 -21  14  -5  213.31   22.06
   7 -21  -5  245.43   22.86
   7 -21  -2  257.09   19.53
  14   7  -2  256.18   21.21
  14   7  -2  239.76   19.67
 -21  14  -2  254.40   20.98
   7 -21   1  375.74   20.53
  14   7   1  416.71   23.51
  14   7   1  389.16   21.28
 -21  14   1  391.32   23.97
  14   7   4   67.93   10.55
  14   7   4   97.55   12.50
 -21  14   4   84.88   15.00
 -21  14   7  182.08   20.81
  14   7   7  193.11   11.88
  14   8  -9  124.03   20.80
 -22  14  -9   85.65   20.57
   8 -22  -9  102.23   23.01
  14   8  -9   97.71   20.44
   8 -22  -6   38.50   14.51
  14   8  -6   43.32   14.98
 -22  14  -6   23.64   12.62
  14   8  -6   56.70   15.50
  14   8  -3  349.02   25.35
  14   8  -3  356.66   25.45
 -22  14  -3  392.30   27.07
   8 -22  -3  335.45   23.58
  14   8   0  173.84   17.67
   8 -22   0  176.69   15.53
  14   8   0  191.57   17.29
 -22  14   0  137.57   16.52
  14   8   3  279.76   19.34
  14   8   3  270.01   17.87
   8 -22   3  243.88   18.66
 -22  14   3  276.50   21.23
 -22  14   6   69.45   15.55
  14   8   6   63.18    9.90
 -23  14 -10    3.66   15.70
  14   9 -10  -10.11   17.45
  14   9 -10   28.19   16.06
   9 -23 -10    7.65   18.56
  14   9  -7   50.43   14.83
 -23  14  -7   86.32   17.95
  14   9  -7   49.00   16.39
   9 -23  -7   61.93   17.08
   9 -23  -4   20.82   10.72
  14   9  -4   35.71   13.17
 -23  14  -4   35.27   14.11
  14   9  -4   28.83   12.92
   9 -23  -1  154.83   15.42
  14   9  -1  122.81   16.51
  14   9  -1  140.53   16.17
 -23  14  -1  135.63   16.44
  14   9   2   80.96   13.02
  14   9   2   55.49   10.99
 -23  14   2   86.29   13.42
   9 -23   2   74.70   12.00
  14   9   5   84.92   11.60
  14   9   5   71.64   11.20
 -23  14   5   58.37   14.30
  14  10  -8   77.28   17.68
 -24  14  -8  116.84   23.67
  14  10  -8   87.89   20.07
  10 -24  -8   98.15   21.36
  14  10  -5  269.47   25.57
  14  10  -5  273.97   25.30
 -24  14  -5  277.12   26.11
  10 -24  -5  275.10   24.98
  10 -24  -2  184.24   17.77
  14  10  -2  212.45   21.28
  14  10  -2  194.88   20.07
 -24  14  -2  177.87   19.79
  14  10   1  180.78   19.20
  14  10   1  174.37   16.54
  10 -24   1  162.01   15.20
 -24  14   1  167.22   17.37
  14  10   4   33.68   10.18
  14  10   4   18.83    8.89
 -24  14   7   82.69   17.29
  14  10   7  130.01   12.20
  14  11  -9   88.70   20.65
  14  11  -9   67.30   21.37
 -25  14  -9   78.29   21.81
  11 -25  -9   93.29   23.62
  14  11  -6  154.21   21.14
 -25  14  -6  175.27   24.20
  14  11  -6  164.97   22.24
  11 -25  -6  153.70   22.24
  14  11  -3  179.84   20.57
 -25  14  -3  170.82   21.03
  11 -25  -3  220.89   19.98
  14  11  -3  226.83   23.06
  14  11   0  103.86   16.51
  14  11   0   87.20   13.97
 -25  14   0   94.99   15.27
  11 -25   0   71.13   11.65
  14  11   3  588.53   28.70
  14  11   3  541.45   25.18
  11 -25   3  509.10   24.90
 -25  14   3  466.73   27.42
 -25  14   6   26.94   13.76
  14  11   6   71.28   11.62
  12 -26  -7   57.18   17.05
  14  12  -7   70.36   19.43
 -26  14  -7   45.40   18.21
  14  12  -7   47.60   16.25
  14  12  -4   31.89   13.49
  12 -26  -4   58.93   14.43
 -26  14  -4   48.33   14.99
  14  12  -4   53.53   15.98
  14  12  -1   97.65   16.95
  14  12  -1   57.73   14.03
  12 -26  -1   55.82   12.03
 -26  14  -1   84.65   15.72
  12 -26   2   19.42    9.51
  14  12   2   10.83   10.20
  14  12   2    6.80    9.19
 -26  14   2   15.34   10.30
  14  12   5   80.29   13.36
  14  12   5   70.89   11.46
 -26  14   5   40.10   12.85
 -27  14  -8   -4.87   15.73
  14  13  -8   39.04   19.98
  13 -27  -8   50.04   18.87
  14  13  -8   55.23   18.60
  13 -27  -5   16.88   15.13
  14  13  -5   40.67   14.78
  14  13  -5   10.01   13.67
 -27  14  -5   17.68   14.41
  14  13  -2   -0.45   11.51
  13 -27  -2   10.69   10.42
  14  13  -2   -9.06   12.97
 -27  14  -2   13.18   12.44
  14  13   1   22.89   10.04
 -27  14   1   23.62   11.17
  14  13   1   14.49   11.69
  13 -27   1   22.56    9.44
  14  13   4   27.61   10.82
  14  13   4   34.73    9.98
 -27  14   4   30.61   11.67
 -27  14   7  -20.80   13.98
  14 -28  -6   66.69   18.31
  14  14  -6  133.90   22.14
 -28  14  -6  128.07   23.84
  14  14  -6  128.47   23.44
  14  14  -3  247.07   24.97
  14  14  -3  319.98   26.86
 -28  14  -3  291.40   27.03
  14 -28  -3  231.19   22.42
  14  14   0  133.15   16.40
  14  14   0  141.60   19.07
  14 -28   0  144.80   15.91
 -28  14   0   82.44   15.56
  14  14   3  288.33   23.41
 -28  14   3  212.25   20.89
  14  14   3  239.21   19.10
  14 -28   3  225.11   17.74
 -28  14   6   39.73   14.75
  14  14   6   51.28   12.18
  15 -29  -7   35.05   15.85
  14  15  -7   35.85   17.99
 -29  14  -7   22.69   16.37
  14  15  -7   41.74   19.31
  15 -29  -4   18.83   13.00
  14  15  -4    7.96   13.31
  14  15  -4   16.23   14.07
 -29  14  -4   16.11   15.14
  14  15  -1   34.63   15.43
  15 -29  -1   48.62   12.03
 -29  14  -1   25.34   13.04
  14  15  -1   29.60   12.54
 -29  14   2    2.83   10.41
  14  15   2   -2.58   11.07
  15 -29   2   -7.10    9.57
  14  15   2   21.42   10.29
  14  15   5   23.84   11.92
 -29  14   5   52.03   15.68
  13  15  -8   -1.72   15.87
 -28  13  -8   15.05   16.78
  13  15  -8   18.11   17.73
  15 -28  -8    2.32   17.06
  15 -28  -5   20.65   13.69
  13  15  -5   33.37   17.12
  13  15  -5   37.65   15.71
 -28  13  -5   32.92   17.64
  13  15  -2   18.19   14.10
  15 -28  -2    6.28    9.59
  13  15  -2   -6.77   12.03
 -28  13  -2   -9.94   11.67
  13  15   1   68.87   15.68
  15 -28   1   42.51   11.71
  13  15   1   50.84   12.31
 -28  13   1   54.62   13.48
  13  15   4   26.51   11.68
  13  15   4   12.39    8.90
 -28  13   4   13.17   11.79
  12  15  -9  174.10   26.21
  12  15  -9  182.43   28.24
  15 -27  -9  179.33   28.64
 -27  12  -9  161.70   28.67
  12  15  -6   31.83   16.72
  12  15  -6   49.61   17.32
 -27  12  -6   35.94   16.63
  15 -27  -6   42.15   14.93
  12  15  -3  342.40   29.22
  12  15  -3  388.29   28.61
 -27  12  -3  344.89   28.62
  15 -27  -3  289.07   23.29
  15 -27   0   38.28   10.21
  12  15   0   54.16   13.05
 -27  12   0   44.10   14.47
  12  15   0   36.97   13.17
  15 -27   3  305.99   18.34
  12  15   3  364.25   25.07
  12  15   3  324.66   20.17
 -27  12   3  265.18   21.27
  12  15   6  169.43   16.81
 -27  12   6  132.98   17.95
  11  15  -7   63.02   17.73
 -26  11  -7  112.14   21.39
  15 -26  -7   87.58   19.43
  11  15  -7   92.57   21.40
  15 -26  -4    9.91   11.18
  11  15  -4   18.28   13.86
  11  15  -4   35.91   14.64
 -26  11  -4   35.35   15.13
  15 -26  -1  193.03   16.81
  11  15  -1  193.48   22.89
  11  15  -1  175.08   18.46
 -26  11  -1  174.89   19.71
  11  15   2  124.04   17.06
  11  15   2   96.89   12.48
 -26  11   2  100.73   14.79
  11  15   5   49.59   12.03
 -26  11   5   39.38   11.89
  11  15   5   41.66    7.90
  10  15  -8   10.65   16.79
  10  15  -8    3.21   14.50
 -25  10  -8   16.64   16.57
  15 -25  -8   23.16   16.01
  10  15  -5  101.36   18.85
  10  15  -5  117.62   18.87
 -25  10  -5   89.26   11.04
 -25  10  -5   88.00   19.05
  15 -25  -5  108.42   17.41
  15 -25  -2    8.08    8.50
  10  15  -2   14.25   11.74
 -25  10  -2   11.55   11.81
  10  15  -2   15.28   11.32
  10  15   1   63.71   13.94
  15 -25   1   53.45    9.80
  10  15   1   58.93   11.23
 -25  10   1   27.24    9.80
  10  15   4   50.28   12.31
  10  15   4   29.77    7.90
 -25  10   4   58.18   12.45
 -25  10   7   14.49   10.79
  10  15   7   19.61    8.55
   9  15  -9  236.62   27.05
   9  15  -9  239.77   31.05
  15 -24  -9  173.37   27.99
 -24   9  -9  210.41   28.52
 -24   9  -6  113.25   19.72
   9  15  -6  115.62   19.79
  15 -24  -6  126.61   19.78
 -24   9  -6   96.59   10.97
   9  15  -6  109.85   19.57
   9  15  -3  255.02   23.62
 -24   9  -3  230.24   23.29
   9  15  -3  231.17   21.94
  15 -24  -3  221.74   19.48
  15 -24   0   43.94    9.03
   9  15   0   49.21   11.39
 -24   9   0   44.16   11.83
   9  15   0   67.65   13.65
   9  15   3  181.58   17.99
   9  15   3  193.35   14.21
 -24   9   3  201.50   17.07
  15 -24   3  168.46   11.41
   9  15   6  126.30   13.96
 -24   9   6   97.94   14.08
   8  15 -10   36.08   17.58
   8  15 -10   30.18   18.83
  15 -23 -10    5.29   17.61
 -23   8 -10   24.80   18.54
   8  15  -7  184.23   24.03
 -23   8  -7  157.28   22.42
 -23   8  -7  115.82   12.31
   8  15  -7  175.42   22.05
  15 -23  -7  210.38   24.63
   8  15  -4  224.64   22.08
   8  15  -4  182.62   20.26
  15 -23  -4  178.57   19.86
 -23   8  -4  169.05   20.70
 -23   8  -4  154.36   13.58
   8  15  -1  633.18   32.55
 -23   8  -1  662.90   31.29
   8  15  -1  643.26   29.88
  15 -23  -1  684.25   26.42
   8  15   2   45.52   11.77
   8  15   2   24.01    7.93
  15 -23   2   39.50    7.41
 -23   8   2   39.88    9.70
   8  15   5   94.39    6.64
 -23   8   5  104.77   12.70
   7  15  -8   22.79   16.07
 -22   7  -8   -1.46   15.25
 -22   7  -8   16.95    9.53
  15 -22  -8    0.23   14.59
   7  15  -8   17.65   13.17
   7  15  -5   45.46   13.72
 -22   7  -5   41.70    9.24
 -22   7  -5   27.89   13.35
  15 -22  -5   22.60   12.39
   7  15  -5   41.60   14.12
   7  15  -2  243.03   21.23
 -22   7  -2  231.94   20.94
   7  15  -2  229.62   21.49
  15 -22  -2  248.39   18.50
 -22   7   1    9.93    8.05
   7  15   1   11.99    8.30
  15 -22   1    5.12    5.54
   7  15   4   45.06   10.39
   7  15   4   23.96    6.69
 -22   7   4   20.88    8.40
   7  15   7   14.48    7.32
 -21   6  -9   78.19   13.90
 -21   6  -9   82.57   21.39
   6  15  -9   96.51   19.10
   6  15  -9   79.14   20.87
  15 -21  -9   75.85   21.23
   6  15  -6   82.12   16.03
   6  15  -6   89.97   18.55
  15 -21  -6   95.39   17.15
 -21   6  -6  143.90   20.53
 -21   6  -6  113.58   13.34
   6  15  -3  182.26   18.94
   6  15  -3  187.21   20.39
 -21   6  -3  183.63   15.19
  15 -21  -3  191.54   17.59
 -21   6  -3  193.15   20.02
   6  15   0  204.45   18.36
 -21   6   0  199.12   16.91
   6  15   0  193.15   16.30
  15 -21   0  185.07   12.83
   6  15   3  215.42   12.54
 -21   6   3  191.20   14.19
   6  15   6  136.79   12.85
 -21   6   6   92.00   10.14
 -20   5 -10   -2.44   18.40
   5  15 -10   31.72   15.81
   5  15 -10   21.63   18.27
  15 -20 -10   34.85   19.56
   5  15  -7  645.16   35.90
   5  15  -7  650.94   38.37
 -20   5  -7  615.79   26.80
  15 -20  -7  612.84   37.87
 -20   5  -7  575.08   37.62
 -20   5  -4   66.91   14.65
   5  15  -4  103.36   16.22
   5  15  -4   98.37   16.41
 -20   5  -4   89.41   11.43
  15 -20  -4   66.42   14.27
   5  15  -1  466.12   24.78
   5  15  -1  450.26   26.15
 -20   5  -1  522.23   26.48
  15 -20  -1  491.14   20.83
  15 -20   2  214.19    9.70
 -20   5   2  220.47   14.92
   5  15   2  237.33   14.07
   5  15   2  235.59   18.49
   5  15   5  373.09   20.33
 -20   5   5  300.66   15.91
   4  15 -11   29.59   19.25
  15 -19 -11   32.09   20.27
 -19   4 -11   49.64   22.27
   4  15 -11    0.57   13.43
  15 -19  -8    4.94    8.68
 -19   4  -8   20.81   15.00
   4  15  -8   24.84   15.03
   4  15  -8   31.57   14.39
  15 -19  -8    5.12   13.70
 -19   4  -8   29.80   10.95
 -19   4  -5  116.68   13.37
   4  15  -5  100.43   17.40
  15 -19  -5  113.31   17.00
   4  15  -5  120.67   17.86
 -19   4  -5  118.41   19.01
 -19   4  -5  107.60   12.71
   4  15  -5   98.72    9.45
   4  15  -2   16.43    9.86
 -19   4  -2   21.90    8.60
 -19   4  -2   14.45    9.75
  15 -19  -2   32.09    9.19
   4  15  -2   12.49   10.09
   4  15   1   13.56    7.36
   4  15   1   30.26   10.36
  15 -19   1   10.40    4.75
 -19   4   1   26.91    7.55
   4  15   4   -3.11    7.80
   4  15   4    2.58    3.46
 -19   4   4    0.93    5.87
   4  15   7    6.49    6.32
   3  15  -9   12.42   12.74
   3  15  -9   16.13   15.11
  15 -18  -9   29.59   16.52
 -18   3  -9    5.33   14.82
 -18   3  -9   33.02   11.59
  15 -18  -9   -1.88    9.41
  15 -18  -6   10.59    9.13
   3  15  -6   15.93   12.28
 -18   3  -6    7.96    7.63
   3  15  -6   15.69   12.69
  15 -18  -6   -5.26   12.59
 -18   3  -6   -6.44   13.40
 -18   3  -6   16.42    8.89
   3  15  -6    7.48    5.93
   3  15  -3  202.05   19.10
 -18   3  -3  246.13   16.51
   3  15  -3  213.39   19.24
  15 -18  -3  240.41   17.98
 -18   3  -3  280.24   22.33
   3  15  -3  241.07   16.04
   3  15   0  156.41   15.57
   3  15   0  148.07   13.51
 -18   3   0  153.82   13.70
  15 -18   0  146.82   10.21
   3  15   3   92.58   11.80
   3  15   3   85.27    7.37
 -18   3   3   65.24    7.92
   3  15   6  177.71   13.43
   2  15 -10   31.82   14.51
   2  15 -10   44.62   18.25
 -17   2 -10   15.35   13.22
  15 -17 -10   48.45   19.48
 -17   2 -10   39.02   18.84
   2  15  -7  745.35   36.13
   2  15  -7  658.39   37.58
  15 -17  -7  721.11   38.72
 -17   2  -7  699.09   40.92
 -17   2  -7  705.65   29.66
  15 -17  -7  659.75   28.51
   2  15  -7  595.19   21.00
   2  15  -4   13.01    7.22
  15 -17  -4   22.00    9.17
   2  15  -4   10.51   10.78
   2  15  -4   28.81   11.10
  15 -17  -4   18.57    9.43
 -17   2  -4    6.26    7.38
 -17   2  -4   14.85    9.89
 -17   2  -4   24.61    8.46
   2  15  -1  687.80   28.43
   2  15  -1  695.37   28.35
  15 -17  -1  670.61   22.78
 -17   2  -1  711.75   28.28
   2  15  -1  710.20   30.23
 -17   2  -1  657.94   26.46
   2  15   2  681.12   27.34
   2  15   2  741.99   21.50
 -17   2   2  682.20   21.18
   2  15   5  479.00   21.24
   2  15   8  381.20   14.57
   1  15 -11   28.99   14.54
   1  15 -11    5.18   16.73
  15 -16 -11   14.20   18.77
 -16   1 -11    2.94   17.52
 -16   1 -11    3.42   12.99
   1  15  -8   16.47   12.94
 -16   1  -8    7.14    9.76
  15 -16  -8  -16.13   14.67
   1  15  -8   -0.73   13.04
 -16   1  -8    6.01   13.61
   1  15  -8    4.05    6.95
  15 -16  -8    5.25    9.11
   1  15  -5   -6.63   10.02
 -16   1  -5   13.92    7.30
   1  15  -5   12.34   12.54
  15 -16  -5   15.24    9.88
 -16   1  -5   -5.46   10.51
 -16   1  -5   12.79    8.00
   1  15  -5    6.49    6.36
  15 -16  -5   14.66    8.46
   1  15  -2    3.02    7.24
  15 -16  -2   10.92    8.71
   1  15  -2    1.35    8.42
 -16   1  -2   -0.30    6.67
   1  15  -2   -2.17    8.61
 -16   1  -2    4.43    7.17
  15 -16  -2   -1.85    6.91
 -16   1  -2   14.74    8.93
   1  15   1  112.02   13.29
   1  15   1  106.53   10.27
 -16   1   1   87.19   10.02
  15 -16   1   79.32    5.76
   1  15   4   23.02    8.02
 -16   1   4   15.54    3.85
   1  15   7   60.09    8.79
   1  15   7   39.61    8.24
   0  15  -9    8.06   12.70
 -15   0  -9    7.80    9.92
   0  15  -9   -1.53   12.72
 -15   0  -9   41.43   17.09
  15 -15  -9    0.24   14.06
  15 -15  -9    1.71    9.85
   0  15  -9    0.58    7.78
 -15   0  -6   71.09    8.82
 -15   0  -6   65.91   12.03
   0  15  -6   62.68   13.10
   0  15  -6   56.55   14.60
  15 -15  -6   47.22   14.75
 -15   0  -6   84.46   16.33
  15 -15  -6   76.25   11.86
   0  15  -6   74.11    9.85
  15 -15  -3   21.74    9.30
 -15   0  -3   19.62    7.47
  15 -15  -3   28.86   10.08
   0  15  -3   15.58    9.67
 -15   0  -3   18.27    7.68
 -15   0  -3   25.83   10.70
 -15   0  -3   23.97    8.45
   0  15  -3   30.03    9.75
   0  15  -3   13.79    8.29
 -15   0   0  114.29   13.53
   0  15   0  120.40   12.10
  15 -15   0  130.25    8.84
   0  15   0  140.01   14.54
 -15   0   0  125.56   12.20
   0  15   0  140.33   14.79
   0  15   3    0.08    7.42
 -15   0   3   10.66    3.93
   0  15   3   14.09    4.21
   0  15   6   18.53    7.66
  -1  15 -10   46.41   13.83
  15 -14 -10   35.00   18.22
 -14  -1 -10   49.59   19.26
  15 -14 -10   37.42   12.06
 -14  -1 -10   38.51   15.15
  -1  15 -10   17.91   15.19
  15 -14  -7  704.56   37.78
 -14  -1  -7  551.17   14.77
  -1  15  -7  643.36   31.61
  -1  15  -7  671.33   36.54
 -14  -1  -7  713.64   38.87
  15 -14  -7  629.45   28.01
  15 -14  -7  685.52   31.43
 -14  -1  -7  541.76   24.73
  -1  15  -7  648.11   24.97
 -14  -1  -7  667.21   30.08
  -1  15  -4  454.11   25.08
  -1  15  -4  432.33   25.82
  15 -14  -4  470.79   26.11
 -14  -1  -4  417.23   19.10
 -14  -1  -4  472.01   22.25
  15 -14  -4  475.44   25.38
 -14  -1  -4  428.49   26.96
 -14  -1  -4  424.20   20.16
  15 -14  -4  440.82   22.79
  -1  15  -4  454.75   20.58
  -1  15  -1  930.66   32.26
  -1  15  -1  922.20   29.85
 -14  -1  -1  916.41   31.08
 -14  -1  -1  941.55   30.64
 -14  -1  -1  967.53   31.36
  15 -14  -1  981.96   26.29
 -14  -1  -1  919.96   30.47
  -1  15  -1 1001.73   32.88
  15 -14  -1  892.71   31.97
  -1  15  -1  926.67   31.15
  -1  15   2  476.81   27.24
  -1  15   2  523.32   17.41
 -14  -1   2  495.77   15.51
  -1  15   2  521.15   23.12
  -1  15   5 1083.51   31.05
  -1  15   8  321.21   14.03
 -13  -2 -11   38.98   14.68
  -2  15 -11   39.38   13.43
  -2  15 -11   49.70   19.68
  15 -13 -11   30.98   19.99
 -13  -2 -11   72.25   23.59
  -2  15  -8    5.41   11.30
 -13  -2  -8   18.92   10.99
  15 -13  -8   10.53    9.30
 -13  -2  -8   30.02   16.40
  -2  15  -8   31.89    9.21
  15 -13  -8    9.68    9.64
  -2  15  -8   18.77   12.82
  15 -13  -8   12.66   14.21
 -13  -2  -5   90.68    9.29
  15 -13  -5   72.92   14.84
  -2  15  -5   71.70   12.44
  -2  15  -5   84.08   10.76
  15 -13  -5   68.13   12.14
 -13  -2  -5   78.25   11.73
 -13  -2  -5   70.77    9.79
  15 -13  -5   76.24   11.60
  -2  15  -5   80.76   15.42
  -2  15  -2  136.30   14.12
 -13  -2  -2   93.18   11.09
  15 -13  -2  116.30   14.08
 -13  -2  -2  111.72   11.54
  -2  15  -2  126.65   12.24
  15 -13  -2  121.18   12.73
 -13  -2  -2  107.06   12.16
  15 -13  -2   90.29   12.19
  -2  15  -2   79.15   10.85
  15 -13  -2  118.27   12.30
  -2  15  -2  115.33   13.79
 -13  -2   1  114.60   13.18
  -2  15   1   93.44    9.85
 -13  -2   1   93.13    9.09
  -2  15   1   83.17   11.15
  15 -13   1   80.68    4.93
  -2  15   1   79.20   13.01
  -2  15   7  117.68   11.13
  -2  15   7  171.87   12.50
  -3  15  -9   48.82   13.22
  -3  15  -9   11.22    9.12
 -12  -3  -9   19.82   13.05
  15 -12  -9   38.27   17.58
  -3  15  -9   27.24   15.24
  15 -12  -9   21.84   11.37
  15 -12  -9   26.46   11.48
 -12  -3  -6   64.54    7.25
 -12  -3  -6   63.24   11.62
  15 -12  -6   93.43   14.08
  15 -12  -6   95.83   13.26
 -12  -3  -6   55.59    8.66
  -3  15  -6   71.98   10.67
  15 -12  -6   86.03   15.84
  -3  15  -6   50.07   11.34
  -3  15  -6   61.48   15.67
  -3  15  -3  249.15   19.59
  15 -12  -3  237.50   17.28
  15 -12  -3  213.84   15.72
  -3  15  -3  249.88   15.34
 -12  -3  -3  240.61   16.00
  15 -12  -3  278.92   19.53
 -12  -3  -3  235.18   14.38
 -12  -3  -3  239.24   14.77
  15 -12  -3  249.49   17.12
  -3  15  -3  259.47   16.45
  -3  15  -3  262.35   18.91
 -12  -3   0  104.86   11.78
  15 -12   0  121.95    8.79
 -12  -3   0  117.75   13.00
 -12  -3   0   93.22   11.51
  15 -12   0  105.57   13.65
 -12  -3   0  106.58   10.98
  15 -12   0  105.82   13.04
  -3  15   0   92.54   10.33
  -3  15   0  116.77   13.65
  15 -12   0   88.19   12.01
  -3  15   0   97.38   10.98
  -3  15   3   37.93    5.25
  -3  15   3   44.95   13.36
  -3  15   3   44.17    5.56
  -3  15   6  134.83   12.09
  15 -11 -10   42.62   17.39
  -4  15 -10   38.67   13.14
  15 -11 -10   24.16   12.39
  15 -11 -10   42.84   12.93
  -4  15 -10   31.98   10.71
 -11  -4 -10   33.77   14.03
  -4  15 -10   69.60   18.25
  15 -11  -7  552.23   33.83
  -4  15  -7  542.16   27.77
  15 -11  -7  552.33   27.98
 -11  -4  -7  449.77   18.02
  15 -11  -7  526.72   26.56
  -4  15  -7  512.84   24.55
 -11  -4  -7  544.75   28.44
  -4  15  -7  573.18   33.38
  -4  15  -4  574.20   29.19
 -11  -4  -4  616.61   20.89
 -11  -4  -4  577.80   25.17
  15 -11  -4  620.80   27.43
 -11  -4  -4  571.94   20.16
  15 -11  -4  620.40   28.65
  -4  15  -4  576.12   22.15
  -4  15  -4  590.02   26.44
  15 -11  -4  598.67   25.14
  -4  15  -4  601.63   24.11
  15 -11  -4  607.50   26.00
 -11  -4  -1 1219.07   33.24
 -11  -4  -1 1179.97   31.13
  15 -11  -1 1284.96   37.24
  15 -11  -1 1159.37   33.43
  15 -11  -1 1220.23   35.57
  -4  15  -1 1265.17   35.90
  -4  15  -1 1201.36   30.69
 -11  -4  -1 1202.83   33.96
  -4  15   2  348.38   19.53
 -11  -4   2  368.20   11.87
  -4  15   2  347.37   22.93
  -4  15   5  935.72   28.20
  -5  15 -11  103.87   19.15
  -5  15 -11   91.12   20.30
  15 -10 -11   87.83   23.31
  15 -10 -11   86.36   15.37
  -5  15 -11   83.37   15.15
 -10  -5 -11  146.21   21.64
  -5  15  -8   22.44   13.77
  15 -10  -8   -5.04   13.37
  15 -10  -8   31.77   11.66
  -5  15  -8   11.87    9.29
  15 -10  -8   23.35   10.78
  -5  15  -8    5.38    9.62
 -10  -5  -8    7.22   10.80
  15 -10  -5  110.88   14.07
 -10  -5  -5  147.50   10.24
  -5  15  -5  131.70   16.59
  -5  15  -5  152.90   15.90
  -5  15  -5  138.29   13.34
 -10  -5  -5  117.23    9.65
  15 -10  -5  137.23   14.57
  15 -10  -5  146.19   13.56
 -10  -5  -5  137.27   14.37
  -5  15  -5  132.80   11.83
  -5  15  -2  502.61   19.09
 -10  -5  -2  521.71   21.02
 -10  -5  -2  525.48   19.80
  15 -10  -2  547.14   25.00
 -10  -5  -2  521.83   22.74
  15 -10  -2  513.34   21.95
  15 -10  -2  479.48   22.90
  -5  15  -2  532.30   22.88
 -10  -5   1  734.46   27.83
 -10  -5   1  800.61   28.16
  15 -10   1  782.61   28.38
  -5  15   1  776.87   26.68
  15 -10   1  769.11   28.76
 -10  -5   1  781.81   29.27
  -5  15   1  789.62   31.08
  15 -10   1  742.67   28.73
  15 -10   1  768.16   15.52
  -5  15   4  254.84   22.55
  -5  15   4  233.23    8.88
  -5  15   7   62.13    9.14
  -9  -6 -12    8.94   15.14
  -6  15 -12   13.70   15.54
  -6  15 -12    8.77   15.23
  15  -9 -12  -11.19   19.78
  -9  -6 -12   19.85   19.72
  -6  15  -9  107.47   20.57
  -6  15  -9  106.57   14.26
  15  -9  -9  131.00   16.48
  15  -9  -9  150.17   18.06
  -6  15  -9  123.27   15.63
  -9  -6  -9  127.74   19.39
  15  -9  -9  139.80   22.70
  -6  15  -6  226.81   21.82
  -6  15  -6  233.83   17.82
  15  -9  -6  224.00   18.47
  -9  -6  -6  211.81   10.49
  -6  15  -6  187.16   14.62
  15  -9  -6  245.18   19.07
  -6  15  -6  223.51   16.81
  15  -9  -6  202.94   15.78
  -9  -6  -6  230.94   18.91
  -9  -6  -3  219.18   13.82
  -9  -6  -3  179.66   14.85
  15  -9  -3  202.45   15.87
  15  -9  -3  211.59   17.24
  15  -9  -3  205.32   14.37
  -6  15  -3  207.90   15.33
  -9  -6  -3  190.36   11.63
  -6  15  -3  184.17   11.90
  15  -9   0  299.94   13.30
  15  -9   0  235.23   17.92
  -9  -6   0  284.08   17.29
  -9  -6   0  265.89   15.95
  -6  15   0  308.84   15.59
  15  -9   0  264.62   16.94
  15  -9   0  303.67   18.45
  -6  15   0  290.68   19.16
  -9  -6   0  286.16   18.13
  -6  15   3  316.65   23.26
  -6  15   3  299.98   12.64
  15  -9   3  291.97   17.07
  -6  15   6   53.23    9.15
  -8  -7 -10   30.57   14.09
  -7  15 -10   56.32   12.69
  15  -8 -10   31.83   12.42
  -7  15 -10   33.02   15.22
  15  -8 -10   51.75   19.56
  -7  15 -10   22.63   11.96
  15  -8 -10    3.26   11.61
  -7  15 -10   43.12   13.52
  -8  -7  -7  165.75    7.16
  -7  15  -7  330.70   26.24
  -7  15  -7  246.67   18.82
  -8  -7  -7  171.23    7.09
  15  -8  -7  215.62   18.61
  -7  15  -7  225.73   16.93
  15  -8  -7  238.40   19.57
  -7  15  -7  248.42   19.14
  15  -8  -7  229.92   16.60
  -8  -7  -7  261.39   21.24
  -8  -7  -4  236.97   17.35
  -8  -7  -4  231.19   10.94
  15  -8  -4  212.34   14.11
  15  -8  -4  235.87   17.59
  -7  15  -4  240.16   13.00
  15  -8  -4  231.85   17.74
  -7  15  -4  228.26   16.30
  -8  -7  -1 1220.78   32.29
  -8  -7  -1 1242.81   29.79
  15  -8  -1 1241.61   35.29
  15  -8  -1 1222.03   35.53
  15  -8  -1 1212.58   32.26
  -8  -7  -1 1231.47   34.04
  -7  15  -1 1228.75   27.37
  -7  15  -1 1191.61   34.41
  -8  -7   2  181.53   15.60
  -8  -7   2  168.51   16.37
  15  -8   2  157.28   12.98
  -7  15   2  165.21   13.82
  -7  15   2  154.63   10.93
  -8  -7   2  160.95    8.57
  15  -8   2  160.06    7.98
  -7  15   2  155.03   15.92
  15  -8   2  187.52   16.38
  -7  15   5  591.21   14.72
  -7  15   5  592.62   23.60
  -7  15   8   49.34    9.61
  -8  15 -11  209.53   22.29
  -8  15 -11  256.87   28.82
  15  -7 -11  248.72   32.79
  15  -7 -11  215.78   21.66
  -8  15 -11  220.61   23.45
  15  -7 -11  208.44   22.33
  -7  -8 -11  255.53   27.52
  -7  -8  -8   26.76   12.47
  -8  15  -8   25.54    9.67
  15  -7  -8   -0.40   10.08
  15  -7  -8   34.75   12.20
  -8  15  -8   16.98   10.72
  -8  15  -8    0.75   12.76
  15  -7  -5  961.38   27.36
  15  -7  -5  998.56   34.91
  15  -7  -5  961.50   33.70
  -8  15  -5 1017.51   34.00
  -8  15  -5  965.69   25.18
  -7  -8  -5  971.44   35.04
  -8  15  -2  248.79   12.00
  -7  -8  -2  269.71   13.45
  15  -7  -2  268.98   18.35
  15  -7  -2  239.17   17.10
  -7  -8  -2  248.43   15.36
  15  -7  -2  256.11   14.79
  -8  15  -2  265.31   17.51
  -7  -8  -2  228.29   15.98
  -7  -8   1 1164.62   33.96
  -7  -8   1 1213.59   33.79
  15  -7   1 1169.62   34.03
  15  -7   1 1253.50   23.91
  15  -7   1 1224.33   33.56
  -7  -8   1 1151.33   34.47
  15  -7   1 1184.77   35.26
  -8  15   1 1252.88   37.97
  -7  -8   1 1234.77   27.66
  -8  15   1 1193.37   29.84
  -8  15   1 1234.72   31.13
  15  -7   4  527.57   15.99
  -8  15   4  509.16   22.30
  15  -7   4  546.85   21.03
  -8  15   4  580.23   17.44
  -8  15   4  532.40   29.89
  -8  15   7  145.97    8.61
  -8  15   7  147.35   13.60
  -6  -9 -12   -6.73   16.35
  15  -6 -12   16.11   18.65
  15  -6 -12   15.96   14.43
  -9  15 -12   25.07   15.23
  -9  15 -12   35.73   17.94
  -9  15  -9   88.12   13.82
  -6  -9  -9   74.86   16.69
  -9  15  -9   58.83   11.97
  -9  15  -9   66.64   16.95
  15  -6  -9   68.64   14.84
  15  -6  -9   79.14   15.24
  -9  15  -9   94.57   15.53
  15  -6  -9   62.68   18.56
  -6  -9  -6   46.33   11.94
  -9  15  -6   32.52    7.52
  15  -6  -6   64.26   12.36
  15  -6  -6   42.81   11.25
  -9  15  -6   60.87   11.88
  15  -6  -6   43.75    8.02
  -9  15  -6   44.55   10.44
  -9  15  -3  321.43   12.30
  -6  -9  -3  290.77   19.13
  15  -6  -3  315.27   20.19
  15  -6  -3  324.12   19.83
  15  -6  -3  306.89   15.48
  -9  15  -3  280.99   18.01
  -6  -9  -3  312.82   12.25
  -6  -9   0  342.29   18.67
  15  -6   0  338.96   14.98
  15  -6   0  357.46   19.37
  -9  15   0  338.34   15.08
  15  -6   0  312.14   17.55
  15  -6   0  320.73   19.17
  -9  15   0  322.27   19.35
  -6  -9   0  376.22   18.09
  -6  -9   0  269.06   17.79
  -6  -9   0  329.47   17.35
  15  -6   3  167.29   14.71
  -9  15   3  146.80   15.52
  15  -6   3  156.11   12.88
  -9  15   3  146.42   13.15
  15  -6   3  164.42    9.80
  -9  15   3  171.16   11.27
  -6  -9   3  155.14    7.13
  -9  15   3  148.97   16.53
  15  -6   6  220.64   14.61
  -9  15   6  240.30   11.88
  -9  15   6  214.08   15.58
  15  -5 -10   43.11   18.19
 -10  15 -10   60.17   13.46
  15  -5 -10   68.76   15.26
 -10  15 -10   57.53   13.97
 -10  15 -10   50.31   17.00
 -10  15 -10   69.73   12.75
  15  -5 -10   85.79   15.49
  -5 -10 -10   57.92   16.45
 -10  15  -7  149.88   15.05
  15  -5  -7  153.21   16.04
 -10  15  -7  133.45   12.64
  15  -5  -7  144.84   17.02
 -10  15  -7  154.67   17.50
  15  -5  -7  149.85   11.62
  -5 -10  -7  127.34   17.21
 -10  15  -7  178.73   14.11
 -10  15  -4  215.96    9.84
  15  -5  -4  217.25   17.93
  -5 -10  -4  178.51    7.09
  15  -5  -4  209.81   17.36
  15  -5  -4  222.07   12.67
 -10  15  -4  198.54   17.37
  -5 -10  -4  213.64   18.06
  -5 -10  -1  426.89   20.59
  15  -5  -1  435.14   21.75
 -10  15  -1  414.66   14.04
  -5 -10  -1  404.14   20.57
  -5 -10  -1  424.43   17.64
  15  -5  -1  402.66   18.51
  15  -5  -1  437.07   21.76
  15  -5  -1  442.30   19.38
 -10  15  -1  390.25   21.12
  -5 -10  -1  446.40   22.43
  15  -5   2  552.04   18.02
 -10  15   2  530.86   22.85
  15  -5   2  559.59   22.21
 -10  15   2  491.02   22.62
  -5 -10   2  493.15   23.89
  -5 -10   2  511.01   24.69
 -10  15   2  517.28   19.86
  -5 -10   2  549.50   16.74
  15  -5   2  487.22   23.07
 -10  15   2  518.38   26.35
 -10  15   5   96.93   15.96
 -10  15   5  101.06    9.43
  15  -5   5  112.79   10.65
  15  -4 -11  391.31   38.13
 -11  15 -11  339.29   31.45
  15  -4 -11  359.57   27.67
  15  -4 -11  344.24   29.58
 -11  15 -11  395.74   30.56
  -4 -11 -11  383.94   34.09
  -4 -11  -8   13.77   13.58
 -11  15  -8   28.99    8.83
  15  -4  -8   46.21   12.24
  15  -4  -8   29.83   12.62
 -11  15  -8   32.89   12.42
 -11  15  -8   38.26   10.32
  15  -4  -5 1191.22   38.49
  15  -4  -5 1137.35   38.20
  15  -4  -5 1191.49   25.30
 -11  15  -5 1171.94   22.15
 -11  15  -5 1195.81   38.89
  -4 -11  -5 1162.21   40.37
  -4 -11  -2  380.44   14.99
  15  -4  -2  399.68   20.88
  -4 -11  -2  341.16   19.53
  15  -4  -2  356.94   20.92
 -11  15  -2  335.84   10.28
  15  -4  -2  364.39   20.34
 -11  15  -2  376.40   21.60
  15  -4  -2  394.00   16.82
  -4 -11  -2  375.36   22.47
  -4 -11   1 1413.72   38.13
  15  -4   1 1399.30   29.59
 -11  15   1 1339.87   36.67
  15  -4   1 1468.93   36.39
 -11  15   1 1476.85   35.41
 -11  15   1 1397.81   32.18
  15  -4   1 1417.47   37.52
 -11  15   1 1362.68   39.34
  -4 -11   1 1460.69   31.90
  -4 -11   1 1448.79   36.93
  15  -4   4 1102.05   28.32
  15  -4   4 1070.42   27.63
 -11  15   4 1051.00   27.62
 -11  15   4 1094.36   40.38
 -11  15   7  329.95   16.33
 -12  15  -9   35.98   14.80
 -12  15  -9   37.19    9.94
 -12  15  -9   34.22    9.92
  15  -3  -9   31.10   11.90
  15  -3  -9   38.74   14.05
 -12  15  -9   40.94   15.48
  -3 -12  -9   10.79   13.20
 -12  15  -6  165.38    9.79
  15  -3  -6  156.98   16.69
  15  -3  -6  155.14   17.48
  15  -3  -6  150.65    8.83
 -12  15  -6  179.08   17.90
 -12  15  -6  141.22    9.26
  -3 -12  -6  140.07   17.76
  -3 -12  -3  100.37   12.74
  15  -3  -3  117.42   14.02
  15  -3  -3   90.77    8.16
  15  -3  -3  115.22   13.41
 -12  15  -3   80.85   12.02
 -12  15   0   85.43    8.04
  -3 -12   0   92.62   10.90
  15  -3   0   84.98   11.27
  15  -3   0   81.80   11.65
  -3 -12   0   86.66   11.90
 -12  15   0   75.52   12.40
  15  -3   0   89.91   10.00
 -12  15   0   85.39   11.10
  -3 -12   0   84.95   10.91
  -3 -12   3  118.65   14.91
  15  -3   3  134.27   11.92
 -12  15   3  117.11   11.20
  -3 -12   3  116.08    8.79
  15  -3   3  114.53   10.52
  15  -3   3  136.23   14.17
 -12  15   3  123.70   14.90
 -12  15   6  166.31   20.86
 -12  15   6  141.75   12.42
  15  -3   6  144.05   14.19
 -13  15 -10   43.77   16.90
  15  -2 -10   44.08   15.33
 -13  15 -10   38.62   15.66
  15  -2 -10   33.63   13.76
  -2 -13 -10   13.11   14.99
  15  -2  -7  114.42   15.64
 -13  15  -7  118.14    9.53
  15  -2  -7  102.06   15.44
  15  -2  -7   91.15    5.37
 -13  15  -7  118.97   17.34
  -2 -13  -7  118.02   17.21
 -13  15  -7  117.77    9.74
  15  -2  -4    7.53    3.86
  15  -2  -4   11.62    9.67
 -13  15  -4    6.91    8.63
  -2 -13  -4   22.85    9.66
  15  -2  -4   17.96    9.73
  15  -2  -1  210.19   14.96
  15  -2  -1  202.83   16.22
  -2 -13  -1  182.38   15.20
  15  -2  -1  223.44   16.88
 -13  15  -1  249.42   17.85
  -2 -13  -1  217.15   16.82
  15  -2   2  132.83   11.47
  15  -2   2  151.60   12.92
  -2 -13   2  136.81   13.78
 -13  15   2  144.24   12.93
  -2 -13   2  153.81   11.18
  15  -2   2  158.28   14.01
 -13  15   2  149.32   15.45
 -13  15   5   26.19   11.34
 -13  15   5   29.26    8.73
  15  -2   5   26.01    8.50
  -2 -13   5   32.52    6.21
 -14  15 -11  316.36   31.12
  15  -1 -11  301.58   29.14
 -14  15 -11  287.43   29.59
  -1 -14 -11  310.00   31.58
  15  -1 -11  276.06   25.84
 -14  15  -8   35.02    7.34
  15  -1  -8   40.35   13.75
 -14  15  -8   13.33   12.78
  15  -1  -8   32.49   12.04
 -14  15  -8   39.31   10.50
  -1 -14  -8    4.55   12.90
  15  -1  -5 1579.41   47.13
  15  -1  -5 1685.26   47.25
 -14  15  -5 1594.52   47.34
  -1 -14  -5 1655.68   49.46
  15  -1  -2  306.95   20.08
  15  -1  -2  346.59   20.73
 -14  15  -2  321.22   20.35
  -1 -14  -2  309.54   20.05
  15  -1   1 1145.01   30.98
  15  -1   1 1196.71   34.08
  15  -1   1 1188.95   34.23
 -14  15   1 1164.33   33.85
 -14  15   1 1092.90   35.57
  -1 -14   1 1178.22   31.11
  -1 -14   1 1199.56   35.32
  15  -1   4  990.07   27.38
 -14  15   4  867.22   28.84
  15  -1   4  888.08   29.60
  -1 -14   4  861.09   24.64
 -14  15   4  926.88   37.42
  15  -1   4  987.83   32.81
 -15  15  -9    1.99    7.84
  15   0  -9   -3.20   11.15
  15   0  -9   -7.68   12.74
 -15  15  -9    6.17    7.16
 -15  15  -9   13.27   13.09
   0 -15  -9   18.51   15.42
   0 -15  -6   20.17   11.38
  15   0  -6   31.06   12.62
 -15  15  -6   28.01   13.50
  15   0  -6   23.25   10.40
   0 -15  -3   20.19   10.61
  15   0  -3    0.59    9.06
 -15  15  -3    8.11    9.54
  15   0  -3   14.20    9.07
  15   0   0  121.56   13.37
   0 -15   0  125.74   12.90
  15   0   0  103.17   11.53
  15   0   0   91.57   12.08
 -15  15   0  121.97   14.02
   0 -15   0  110.52   12.51
  15   0   3   23.52    8.10
  15   0   3   12.88    6.71
 -15  15   3    9.26    7.01
   0 -15   3    8.45    6.12
   0 -15   3    4.46    7.66
 -15  15   3   26.26   10.55
  15   0   3    1.64    8.11
 -15  15   6   55.41   15.02
  15   0   6   65.64    8.05
   0 -15   6   47.85    8.72
 -16  15 -10   55.15   16.59
  15   1 -10   80.61   18.95
   1 -16 -10   59.10   19.06
  15   1 -10   33.81   13.99
   1 -16  -7   59.94   15.45
 -16  15  -7   44.27    4.92
 -16  15  -7   53.57   14.97
  15   1  -7   48.55   14.30
  15   1  -7   47.71   12.04
 -16  15  -7   53.35    4.77
   1 -16  -4  -15.58    9.62
  15   1  -4    6.08    9.77
  15   1  -4   10.22    9.45
 -16  15  -4   11.88    9.63
  15   1  -1   61.58   11.43
  15   1  -1   74.68   12.30
 -16  15  -1   63.28   12.05
   1 -16  -1   57.91   10.98
  15   1   2   -0.60    7.43
  15   1   2   -7.32    7.79
   1 -16   2    1.29    6.00
   1 -16   2    1.74    7.29
  15   1   2   10.28    8.23
 -16  15   2   17.63    9.83
 -16  15   5    2.15   10.63
   1 -16   5    6.99    7.33
  15   1   5   13.89    6.38
  15   2 -11  220.92   24.32
  15   2 -11  175.31   25.63
 -17  15 -11  199.29   27.20
   2 -17 -11  248.23   31.24
 -17  15 -11  189.71   26.25
  15   2  -8   95.97   17.31
   2 -17  -8  106.13   20.07
  15   2  -8   94.88   18.32
 -17  15  -8  111.65   17.91
  15   2  -5  856.53   36.45
  15   2  -5  803.54   36.09
 -17  15  -5  759.14   35.97
   2 -17  -5  842.58   37.67
  15   2  -2  364.62   22.55
   2 -17  -2  376.29   21.98
  15   2  -2  411.19   23.76
 -17  15  -2  405.17   23.95
  15   2   1  478.88   23.58
  15   2   1  423.51   21.94
   2 -17   1  415.44   21.55
 -17  15   1  445.73   24.44
   2 -17   1  464.65   22.78
  15   2   4  144.76   12.26
   2 -17   4  113.15   12.55
  15   2   4  138.00   13.96
 -17  15   4  141.87   16.73
 -17  15   7  466.52   31.98
  15   2   7  438.33   14.67
  15   3  -9  115.11   18.95
  15   3  -9   86.21   19.43
 -18  15  -9   98.00   19.28
   3 -18  -9   97.04   20.99
  15   3  -6  313.36   24.76
 -18  15  -6  298.30   25.04
  15   3  -6  283.25   24.10
   3 -18  -6  298.66   26.04
  15   3  -3  178.54   18.46
  15   3  -3  176.22   17.92
 -18  15  -3  169.72   18.11
   3 -18  -3  200.60   18.08
  15   3   0  207.26   17.64
   3 -18   0  150.22   14.52
  15   3   0  193.69   16.42
 -18  15   0  208.64   17.49
   3 -18   3  192.76   15.78
  15   3   3  233.23   16.99
 -18  15   3  227.72   19.48
   3 -18   3  255.14   19.03
  15   3   3  249.63   17.00
 -18  15   6   12.61   11.68
  15   3   6   21.59    6.80
  15   4 -10   -4.08   13.45
  15   4 -10   -9.48   15.73
 -19  15 -10   -7.66   15.88
   4 -19 -10   -8.59   16.16
  15   4  -7   11.90   13.79
  15   4  -7   31.93   12.84
 -19  15  -7   15.38   13.29
   4 -19  -7   29.91   14.03
  15   4  -4   26.94   12.40
  15   4  -4    2.70   10.27
   4 -19  -4   -9.83    9.68
 -19  15  -4   -1.18   10.97
  15   4  -1   52.62   11.65
  15   4  -1   65.68   11.97
   4 -19  -1   53.49   10.97
 -19  15  -1   60.29   12.28
  15   4   2  139.73   13.83
   4 -19   2  130.39   14.22
  15   4   2  132.42   13.78
 -19  15   2  120.31   14.77
  15   4   5  123.51   11.84
 -19  15   5  129.54   18.27
  15   4   5   97.40   12.63
  15   5  -8   38.16   13.77
  15   5  -8   44.57   16.92
 -20  15  -8    8.18   13.12
   5 -20  -8   30.82   16.14
  15   5  -5  376.58   27.04
  15   5  -5  331.03   25.87
 -20  15  -5  349.46   27.80
   5 -20  -5  373.80   26.81
   5 -20  -2  197.48   17.60
  15   5  -2  211.62   19.41
  15   5  -2  179.28   17.48
 -20  15  -2  194.58   19.10
  15   5   1  588.52   25.89
  15   5   1  586.92   27.70
   5 -20   1  611.82   26.56
 -20  15   1  641.16   29.46
  15   5   4  180.67   14.87
  15   5   4  166.20   15.25
 -20  15   4  131.35   17.05
 -20  15   7  472.60   32.00
  15   5   7  468.74   17.22
  15   6  -9  179.64   25.77
 -21  15  -9  126.58   22.02
  15   6  -9   98.72   19.75
   6 -21  -9  137.50   23.64
   6 -21  -6   40.54   14.19
  15   6  -6   67.94   15.49
  15   6  -6   38.05   13.98
 -21  15  -6   59.18   15.81
  15   6  -3  153.07   17.69
  15   6  -3  145.22   17.30
 -21  15  -3  138.40   18.66
   6 -21  -3  188.81   18.29
  15   6   0  234.64   19.83
   6 -21   0  204.17   17.20
  15   6   0  195.09   17.00
 -21  15   0  230.28   19.49
  15   6   3  193.50   16.47
  15   6   3  172.82   15.65
 -21  15   3  168.81   17.58
   6 -21   3  173.43   16.23
 -21  15   6   81.26   16.36
  15   6   6  110.02   11.35
  15   7 -10   12.07   14.69
  15   7 -10    5.83   15.97
 -22  15 -10   14.66   17.15
   7 -22 -10   17.97   17.76
   7 -22  -7   51.68   15.61
  15   7  -7   42.42   15.13
  15   7  -7   33.05   15.13
 -22  15  -7   76.48   17.83
  15   7  -4    3.72   11.24
   7 -22  -4   21.25   11.24
  15   7  -4   28.48   13.07
 -22  15  -4   21.53   12.64
  15   7  -1   -3.70    9.38
   7 -22  -1   -2.95    7.96
  15   7  -1    9.77    9.89
 -22  15  -1    4.94   10.23
   7 -22   2  338.22   21.09
  15   7   2  344.27   22.07
  15   7   2  345.12   20.71
 -22  15   2  308.58   22.63
  15   7   5   40.19   10.53
  15   7   5   68.01   11.07
 -22  15   5   39.24   12.49
  15   8  -8   29.78   16.11
  15   8  -8   57.08   17.15
 -23  15  -8   25.98   15.81
   8 -23  -8   40.72   15.39
  15   8  -5  200.73   21.72
  15   8  -5  280.34   26.29
 -23  15  -5  224.73   23.50
   8 -23  -5  249.19   23.50
  15   8  -2   29.24   12.61
   8 -23  -2   51.11   11.25
  15   8  -2   37.82   13.22
 -23  15  -2   27.08   11.93
  15   8   1  279.64   21.40
  15   8   1  268.37   19.78
   8 -23   1  277.59   19.54
 -23  15   1  253.95   20.76
  15   8   4  204.62   16.79
 -23  15   4  192.10   19.92
  15   8   4  178.11   16.31
 -23  15   7  108.58   18.19
  15   8   7  126.69   11.68
  15   9  -9  161.59   23.92
  15   9  -9  110.88   23.05
 -24  15  -9  131.36   25.08
   9 -24  -9  133.20   24.47
   9 -24  -6   55.13   16.88
  15   9  -6   40.32   14.84
  15   9  -6   14.25   13.63
 -24  15  -6   41.86   15.18
  15   9  -3  377.74   27.14
  15   9  -3  397.76   27.79
 -24  15  -3  410.82   28.95
   9 -24  -3  417.11   26.41
  15   9   0  101.65   15.97
   9 -24   0   94.00   13.02
  15   9   0   60.86   12.95
 -24  15   0   74.03   14.24
  15   9   3  212.68   18.88
  15   9   3  242.69   18.39
   9 -24   3  227.19   18.65
 -24  15   3  197.31   19.91
  15   9   6  182.49   15.39
 -24  15   6  200.69   21.85
  10 -25  -7   18.37   14.75
  15  10  -7   41.89   16.48
  15  10  -7   37.46   17.81
 -25  15  -7   18.05   14.53
  10 -25  -4   45.66   13.70
 -25  15  -4   80.40   17.97
  15  10  -4   77.15   16.27
  15  10  -4  109.18   18.28
 -25  15  -1   94.73   15.79
  15  10  -1   45.51   14.10
  15  10  -1   60.39   13.94
  10 -25  -1   80.30   13.14
  10 -25   2    9.05    9.19
  15  10   2   18.36    9.83
  15  10   2   16.84    9.01
 -25  15   2    4.16   10.52
  15  10   5   21.55    9.49
  15  10   5   53.96   11.78
 -25  15   5   37.63   13.57
  11 -26  -8   61.54   20.98
  15  11  -8   56.67   18.47
  15  11  -8   -5.16   16.10
 -26  15  -8   42.22   19.61
  15  11  -5  100.13   19.29
  15  11  -5  102.30   19.74
 -26  15  -5   48.74   17.70
  11 -26  -5   93.44   18.60
  11 -26  -2   64.39   12.99
  15  11  -2   67.02   14.76
 -26  15  -2   73.99   15.78
  15  11  -2   82.17   17.03
  15  11   1  178.33   18.97
  15  11   1  138.18   15.66
  11 -26   1  168.22   16.66
 -26  15   1  170.37   18.26
  15  11   4   11.87   10.11
  15  11   4   40.37   10.27
 -26  15   4   10.02   10.56
 -26  15   7   80.20   16.53
  12 -27  -9  132.95   25.71
  15  12  -9  118.38   23.98
  15  12  -9   90.08   23.15
 -27  15  -9  108.83   23.69
  12 -27  -6   30.60   15.18
  15  12  -6   97.43   20.14
  15  12  -6   73.02   19.30
 -27  15  -6   47.46   17.30
  15  12  -3  400.26   30.94
 -27  15  -3  415.78   30.95
  15  12  -3  430.86   30.48
  12 -27  -3  335.60   25.92
  15  12   0   73.69   15.62
  12 -27   0   93.46   13.62
  15  12   0   31.26   11.25
 -27  15   0   55.10   14.06
  15  12   3  286.28   22.53
  15  12   3  252.78   18.94
  12 -27   3  221.22   18.56
 -27  15   3  213.96   20.87
 -27  15   6   85.38   18.59
  15  12   6  112.63   14.39
  13 -28  -7    1.18   15.96
  15  13  -7   17.78   17.40
  15  13  -7   -1.40   15.70
 -28  15  -7    2.55   14.90
  15  13  -4    8.53   14.19
  13 -28  -4   17.70   12.03
  15  13  -4    6.78   13.29
 -28  15  -4   32.41   14.95
  13 -28  -1  100.86   14.52
  15  13  -1   66.67   15.49
  15  13  -1   65.88   14.73
 -28  15  -1  109.39   17.64
  13 -28   2   12.13    9.80
  15  13   2   17.20   12.69
  15  13   2   27.54   11.25
 -28  15   2   38.67   13.27
  15  13   5    6.74   10.00
 -28  15   5   13.41   12.88
  15  13   5   23.49    9.93
  14 -29  -8   13.13   16.81
 -29  15  -8   25.81   18.46
  15  14  -8   -0.36   16.05
  15  14  -8   22.51   18.33
  15  14  -5    9.42   14.89
  15  14  -5    3.38   14.65
  14 -29  -5   33.79   15.06
 -29  15  -5   42.30   16.05
 -29  15  -2   25.48   14.28
  15  14  -2   -9.13   14.73
  14 -29  -2   -1.79    9.88
  15  14  -2   17.19   12.23
  14 -29   1   26.90   11.16
  15  14   1   32.48   14.13
  15  14   1   42.06   12.73
 -29  15   1   40.62   13.64
  15  14   4   11.15   10.74
  15  14   4   11.93    9.61
 -29  15   4    2.59   10.70
  15  15  -6   39.18   18.91
  15 -30  -6   19.41   16.48
  15  15  -6   31.76   17.85
 -30  15  -6   56.16   18.77
  15 -30  -3  311.00   25.75
  15  15  -3  281.66   28.39
  15  15  -3  281.11   26.47
 -30  15  -3  302.10   29.87
  15 -30   0   21.82   11.25
  15  15   0   21.26   14.84
  15  15   0   19.22   12.91
 -30  15   0   31.89   14.12
  15  15   3  174.61   20.38
  15  15   3  174.32   18.15
 -30  15   3  187.82   21.15
  15 -30   3  153.82   16.78
 -30  15   6   95.63   18.60
  15  15   6  119.78   16.45
  16 -31  -7    3.65   17.85
  15  16  -7   -9.38   16.55
  15  16  -7   21.41   19.47
 -31  15  -7    2.11   17.11
  15  16  -4   58.37   18.63
  16 -31  -4   53.75   15.79
  15  16  -4   25.70   14.73
 -31  15  -4   70.49   19.63
  15  16  -1    4.23   14.59
  15  16  -1    8.29   11.93
 -31  15  -1    6.68   11.92
  16 -31  -1   -4.31    9.73
  15  16   2   65.41   16.13
  15  16   2   67.66   13.44
  16 -31   2   31.23   10.75
 -31  15   2   38.69   13.75
  15  16   5    9.24   11.98
 -31  15   5    5.03   12.31
  14  16  -5  -12.56   16.19
 -30  14  -5   -4.82   14.07
  14  16  -5   -0.58   14.56
  16 -30  -5    5.94   13.63
  14  16  -2    9.61   13.15
  16 -30  -2    6.25   10.00
  14  16  -2   10.01   13.22
 -30  14  -2   -4.02   12.37
  14  16   1   17.19   13.79
  16 -30   1   11.09    9.48
  14  16   1   20.42   11.43
 -30  14   1   10.97   10.94
  14  16   4    3.04   11.51
  14  16   4   15.87    9.71
 -30  14   4    6.66   10.90
  13  16  -6  322.36   31.29
  13  16  -6  322.45   31.20
 -29  13  -6  365.54   34.90
  16 -29  -6  318.77   30.02
  13  16  -3   45.99   16.10
  16 -29  -3   40.60   14.72
  13  16  -3   38.52   14.16
 -29  13  -3   18.35   14.21
  13  16   0  281.59   26.30
  13  16   0  248.54   21.59
 -29  13   0  275.49   24.08
  16 -29   0  272.91   19.73
  16 -29   3    5.93    8.48
  13  16   3   -1.66   11.24
  13  16   3    7.15    8.87
 -29  13   3   11.44   10.21
  13  16   6  222.54   20.18
 -29  13   6  154.44   20.50
  12  16  -7   14.14   16.29
  12  16  -7  -13.82   15.06
 -28  12  -7   21.47   16.77
  16 -28  -7    1.59   14.77
  16 -28  -4   16.49   12.69
  12  16  -4    2.49   13.93
  12  16  -4   -8.73   14.54
 -28  12  -4   37.22   14.79
  12  16  -1   44.09   14.72
  12  16  -1   34.03   13.05
  16 -28  -1   37.65   10.97
 -28  12  -1   54.69   13.58
  12  16   2    7.76   12.06
  16 -28   2   10.52    8.11
  12  16   2   10.75    9.60
 -28  12   2   12.03   10.34
  12  16   5    7.06   10.06
 -28  12   5   12.19   11.41
  11  16  -8   27.96   20.18
  11  16  -8   -1.10   15.90
 -27  11  -8    6.46   17.07
  16 -27  -8   21.23   16.80
  11  16  -5   30.34   14.46
  11  16  -5    1.63   13.87
 -27  11  -5   18.67   15.75
  16 -27  -5   31.01   14.88
  11  16  -2   35.95   13.74
  16 -27  -2   46.35   11.96
 -27  11  -2   26.15   12.38
  11  16  -2   26.62   12.70
  11  16   1   19.24    9.84
  16 -27   1   21.06    8.43
  11  16   1   18.42   11.62
 -27  11   1   23.23   10.23
  11  16   4   90.04   15.55
  11  16   4   87.78   11.29
 -27  11   4   50.97   12.58
  10  16  -9   20.20   17.79
  10  16  -9   41.04   19.51
 -26  10  -9   15.15   20.55
  16 -26  -9   -7.94   17.38
  10  16  -6  267.60   27.63
 -26  10  -6  270.67   28.34
  10  16  -6  255.88   26.90
  16 -26  -6  246.32   25.62
  10  16  -3  118.27   18.95
  10  16  -3  126.69   18.87
 -26  10  -3  108.06   17.97
  16 -26  -3  113.94   15.52
  10  16   0  429.32   28.63
  10  16   0  373.06   24.26
  16 -26   0  362.25   19.96
 -26  10   0  372.39   24.89
  10  16   3    0.26    9.96
  16 -26   3   -0.87    6.16
  10  16   3    3.25    8.11
 -26  10   3   15.08    9.06
  10  16   6  243.52   18.85
 -26  10   6  226.95   19.54
   9  16  -7   14.91   14.23
 -25   9  -7    8.47   14.25
   9  16  -7    7.14   15.03
  16 -25  -7   -5.89   15.41
   9  16  -4  117.17   19.31
   9  16  -4  109.38   18.91
 -25   9  -4   79.82   17.73
  16 -25  -4  115.18   16.53
   9  16  -1  118.13   17.38
   9  16  -1  126.99   16.38
 -25   9  -1   94.31   15.22
  16 -25  -1  110.98   13.32
  16 -25   2  189.62   12.93
   9  16   2  207.91   20.06
   9  16   2  233.34   16.95
 -25   9   2  186.59   16.98
   9  16   5   46.45   11.61
   9  16   5   41.10    6.28
 -25   9   5   38.77   11.55
   8  16  -8   86.73   20.09
  16 -24  -8  106.29   22.85
   8  16  -8   29.40   16.80
 -24   8  -8   37.21   18.29
   8  16  -5   58.06   15.67
 -24   8  -5   47.27   10.34
 -24   8  -5   57.79   16.32
  16 -24  -5   20.78   13.74
   8  16  -5   36.91   14.48
  16 -24  -2   43.35   11.05
   8  16  -2   47.19   15.17
   8  16  -2   39.13   13.20
 -24   8  -2   45.49   13.30
  16 -24   1   18.35    7.07
   8  16   1    1.09   10.03
   8  16   1   23.70    9.36
 -24   8   1    0.93    8.07
   8  16   4  170.60   17.11
   8  16   4  205.77   12.62
 -24   8   4  171.30   15.34
   8  16   7   16.25    8.26
   7  16  -9   36.40   16.26
   7  16  -9   16.03   17.56
  16 -23  -9   15.74   16.37
 -23   7  -9   13.45   17.06
 -23   7  -6  319.12   19.39
  16 -23  -6  275.33   27.16
 -23   7  -6  286.46   28.07
   7  16  -6  301.04   28.40
   7  16  -6  308.98   27.20
   7  16  -3   25.11   12.31
 -23   7  -3   36.63   13.57
  16 -23  -3    8.60    9.51
   7  16  -3   37.55   13.65
 -23   7  -3   19.76    8.98
  16 -23   0  560.62   21.82
   7  16   0  583.01   31.18
   7  16   0  555.95   26.39
 -23   7   0  523.02   26.73
   7  16   3    8.55    6.93
   7  16   3    6.74    9.51
 -23   7   3    1.66    7.21
   7  16   6  230.35   17.08
 -23   7   6  191.49   14.78
   6  16 -10  124.64   23.41
   6  16 -10  127.96   21.47
 -22   6 -10  115.74   23.58
  16 -22 -10  103.76   25.39
 -22   6  -7   96.66   20.23
   6  16  -7  123.66   19.23
   6  16  -7   96.34   19.32
  16 -22  -7  107.74   19.63
 -22   6  -7   80.04   13.12
   6  16  -4  254.76   22.85
   6  16  -4  227.22   21.92
 -22   6  -4  217.18   16.46
  16 -22  -4  230.52   21.61
 -22   6  -4  279.10   25.41
  16 -22  -1   31.82    8.33
   6  16  -1   43.28   13.64
   6  16  -1   40.81   11.34
 -22   6  -1   25.03   10.07
   6  16   2  424.36   19.31
  16 -22   2  382.19   13.83
 -22   6   2  381.18   19.65
   6  16   2  425.04   24.74
   6  16   5    3.43    8.36
 -22   6   5    9.37    7.41
   5  16  -8  105.79   19.16
 -21   5  -8   67.28   18.56
  16 -21  -8   68.87   19.01
   5  16  -8   70.23   19.28
 -21   5  -8   74.47   12.62
   5  16  -5   11.25   12.34
 -21   5  -5   29.89   14.98
   5  16  -5   21.33   14.17
  16 -21  -5   18.45   11.47
 -21   5  -5   19.21    8.97
   5  16  -2  300.54   23.20
 -21   5  -2  286.40   19.29
   5  16  -2  306.81   22.45
 -21   5  -2  304.56   22.73
  16 -21  -2  290.70   18.91
   5  16   1   24.24   10.34
   5  16   1   24.71    8.71
 -21   5   1   32.99    8.11
  16 -21   1   16.93    5.48
   5  16   4   96.64   12.93
   5  16   4   87.02    7.49
 -21   5   4   84.86   10.30
   5  16   7   12.50    7.43
   4  16  -9   35.03   16.91
 -20   4  -9    1.31   14.79
  16 -20  -9    5.25   14.71
 -20   4  -9   22.40   11.78
   4  16  -9    6.45   13.35
   4  16  -6  408.45   28.74
   4  16  -6  390.41   29.66
 -20   4  -6  352.36   20.49
 -20   4  -6  378.01   29.64
  16 -20  -6  335.45   27.90
  16 -20  -6  344.04   21.81
   4  16  -3   97.90   15.22
 -20   4  -3   70.93   11.37
  16 -20  -3   77.46   12.23
 -20   4  -3   80.02   14.99
   4  16  -3   74.41   13.83
   4  16   0  170.32   15.18
   4  16   0  176.99   17.53
 -20   4   0  204.24   16.65
  16 -20   0  177.32   11.67
   4  16   3   12.98    8.52
   4  16   3   14.30    5.78
 -20   4   3    0.47    5.80
   4  16   6  143.50   13.59
 -19   3 -10  331.96   25.75
   3  16 -10  346.89   30.10
   3  16 -10  356.32   33.94
  16 -19 -10  384.94   37.34
 -19   3 -10  335.47   34.30
   3  16  -7   34.50    6.86
  16 -19  -7   46.41   11.70
   3  16  -7   57.47   16.24
 -19   3  -7   74.01   12.84
  16 -19  -7   64.14   16.61
 -19   3  -7   84.39   17.93
   3  16  -7   50.21   14.98
   3  16  -4  816.52   36.15
   3  16  -4  776.88   36.21
  16 -19  -4  786.08   34.17
 -19   3  -4  779.90   37.14
 -19   3  -4  805.20   29.26
   3  16  -4  723.22   25.74
   3  16  -1   14.98   10.23
 -19   3  -1    8.44    8.74
 -19   3  -1    9.67    8.41
  16 -19  -1   12.55    6.03
   3  16  -1   14.88    8.64
   3  16   2 1233.40   29.33
 -19   3   2 1239.37   30.37
   3  16   2 1256.98   38.62
 -19   3   5   17.62    5.09
   3  16   5   22.94    7.82
   3  16   8  510.22   18.06
   2  16 -11   19.53   14.31
 -18   2 -11   12.54   12.70
   2  16 -11   28.77   17.59
  16 -18 -11   21.42   21.00
 -18   2 -11   26.12   19.32
   2  16  -8   67.78   16.22
   2  16  -8   42.13   15.35
  16 -18  -8   58.87   18.66
 -18   2  -8   42.56   16.55
 -18   2  -8   71.77   13.31
  16 -18  -8   44.74   11.59
  16 -18  -5   65.23   11.21
 -18   2  -5   69.69   11.10
 -18   2  -5  109.93   17.32
   2  16  -5   83.87   16.30
  16 -18  -5  103.44   16.15
 -18   2  -5   86.92   11.88
   2  16  -5   71.83   14.75
   2  16  -5   95.08   11.13
  16 -18  -2  165.37   14.30
 -18   2  -2  168.36   14.97
 -18   2  -2  152.71   16.15
   2  16  -2  165.63   17.00
   2  16  -2  199.65   17.47
   2  16  -2  168.81   15.54
  16 -18   1   29.70    4.63
   2  16   1   35.43   10.12
   2  16   1   21.19    7.29
 -18   2   1   46.33    8.32
   2  16   4   48.63    4.42
 -18   2   4   47.64    6.58
   2  16   4   58.26   10.48
   2  16   7    0.31    6.52
   1  16  -9   16.06   13.79
   1  16  -9   19.64   13.16
  16 -17  -9   26.44   16.74
 -17   1  -9   24.55   15.90
 -17   1  -9   17.52   11.82
  16 -17  -9   13.50   10.14
   1  16  -6   23.15   12.83
 -17   1  -6   14.84    7.62
  16 -17  -6   19.42   11.78
   1  16  -6   23.69   12.00
 -17   1  -6   21.54   13.49
 -17   1  -6    9.43    7.92
   1  16  -6    9.90    7.07
  16 -17  -6    6.03    8.61
  16 -17  -3   97.77   13.82
   1  16  -3   96.25   14.73
 -17   1  -3  111.62   15.71
 -17   1  -3   74.02   11.36
   1  16  -3   91.69   14.35
   1  16  -3   94.04   11.90
  16 -17  -3   86.21   12.71
  16 -17   0   93.45    8.02
   1  16   0   83.46   13.76
   1  16   0  103.68   11.90
 -17   1   0  100.78   13.14
 -17   1   0  100.21   12.04
   1  16   0  104.52   14.00
   1  16   3  259.57   17.99
   1  16   3  230.44   10.78
   1  16   6   42.98    8.92
   0  16 -10  449.23   30.44
   0  16 -10  373.97   33.76
  16 -16 -10  421.61   36.96
 -16   0 -10  452.58   39.43
 -16   0 -10  399.24   28.99
  16 -16  -7   67.13   17.19
 -16   0  -7   51.41   17.51
 -16   0  -7   56.15   12.18
   0  16  -7   42.39   14.32
   0  16  -7   43.08    8.87
   0  16  -7   61.68   15.15
  16 -16  -7   52.30   12.22
   0  16  -4 1137.99   39.84
   0  16  -4 1155.96   42.27
 -16   0  -4 1126.90   32.66
  16 -16  -4 1174.72   40.14
 -16   0  -4 1126.85   34.40
  16 -16  -4 1163.51   36.88
   0  16  -4 1139.05   32.88
 -16   0  -4 1149.47   43.61
 -16   0  -1   14.03    8.56
   0  16  -1   -0.54    8.56
   0  16  -1   11.61    9.50
   0  16  -1   16.32    7.97
  16 -16  -1   17.06    6.73
 -16   0  -1   16.67    8.44
   0  16   2 2095.63   47.63
 -16   0   2 2144.46   34.71
   0  16   2 2176.29   36.24
   0  16   5   20.40    8.75
   0  16   8  352.49   15.30
  -1  16 -11    6.92   12.29
 -15  -1 -11    0.25   12.13
  16 -15 -11    2.01   17.51
 -15  -1 -11  -12.17   18.12
  -1  16 -11  -17.37   15.55
  -1  16  -8   13.56   13.99
  16 -15  -8   -4.81   13.44
 -15  -1  -8   25.45   11.59
  -1  16  -8    0.42    7.53
 -15  -1  -8   -7.05   14.04
  16 -15  -8   26.74   11.25
  -1  16  -8   20.39   11.44
 -15  -1  -5   14.35    7.21
  -1  16  -5   19.89   11.89
  16 -15  -5   -5.11   11.35
  16 -15  -5    9.28    9.92
 -15  -1  -5    8.27   11.78
 -15  -1  -5   13.21    7.74
 -15  -1  -5    1.59    8.69
  -1  16  -5   16.21    8.15
  16 -15  -5   15.48    8.99
  -1  16  -5   22.66   10.73
  16 -15  -2   10.46    8.58
  -1  16  -2   -8.24    9.09
  -1  16  -2    3.18    8.10
  16 -15  -2    1.07    6.82
 -15  -1  -2   -0.72    8.35
 -15  -1  -2   -1.48    6.85
 -15  -1  -2    2.40    7.24
 -15  -1  -2   12.15    7.64
  -1  16  -2   -3.47    7.72
  -1  16   1   65.68   11.40
  -1  16   1   49.78   12.13
  -1  16   1   46.69    8.18
 -15  -1   1   34.38   10.85
 -15  -1   1   61.86    8.41
  16 -15   1   47.15    4.31
  -1  16   4    2.03    1.52
  -1  16   4    3.87    1.73
  -1  16   4    5.37    7.58
  -1  16   7   38.46    8.40
  -1  16   7   49.40    8.70
  -2  16  -9   35.00   13.43
  -2  16  -9   59.11   17.17
 -14  -2  -9   30.92   12.64
  16 -14  -9   40.08   13.39
 -14  -2  -9   25.12   14.84
  -2  16  -9   32.47    9.98
  16 -14  -9   29.23   12.55
  16 -14  -9   31.47   17.40
 -14  -2  -6   78.56    8.71
  -2  16  -6   84.89   14.35
  16 -14  -6   97.57   16.35
  -2  16  -6  108.91   17.66
  16 -14  -6   93.46   14.79
 -14  -2  -6   63.13   11.85
 -14  -2  -6   73.69   10.78
  -2  16  -6   89.86   11.54
  16 -14  -6   60.07   11.79
  -2  16  -3   39.92   11.62
 -14  -2  -3   44.61    8.74
 -14  -2  -3   76.93   11.22
 -14  -2  -3   42.42    9.10
  16 -14  -3   39.85   10.85
  -2  16  -3   40.55    8.88
  16 -14  -3   54.60   11.27
  -2  16  -3   46.27    9.47
  -2  16  -3   41.26   11.75
  16 -14  -3   47.99   10.78
  16 -14   0  216.15   11.02
  16 -14   0  192.22   17.06
  -2  16   0  222.36   17.09
  -2  16   0  234.43   15.87
 -14  -2   0  193.36   13.97
 -14  -2   0  197.40   16.04
  -2  16   0  197.93   15.03
  -2  16   0  167.35   16.59
 -14  -2   3  157.88    6.94
  -2  16   3  179.77    9.51
  -2  16   6   61.96    9.49
  -2  16   6   59.38    9.89
  -3  16 -10  395.27   33.78
  -3  16 -10  412.72   27.94
  16 -13 -10  375.94   35.65
  16 -13 -10  385.28   26.47
 -13  -3 -10  436.10   38.58
  16 -13 -10  344.03   24.74
  -3  16 -10  338.67   22.33
 -13  -3 -10  383.29   29.33
 -13  -3  -7   63.02   13.54
  -3  16  -7   55.78   13.29
  16 -13  -7   77.77   16.97
  -3  16  -7   76.68   16.67
 -13  -3  -7   66.52   10.72
  -3  16  -7   64.80   11.43
  16 -13  -7   66.61   12.25
  16 -13  -7   53.11   12.72
  16 -13  -4 1746.87   48.76
  -3  16  -4 1713.95   45.83
  -3  16  -4 1630.22   48.60
 -13  -3  -4 1677.39   36.42
  16 -13  -4 1601.26   42.66
 -13  -3  -4 1594.81   41.22
 -13  -3  -4 1556.10   36.05
  -3  16  -4 1450.59   37.47
  16 -13  -4 1625.56   45.59
  -3  16  -4 1653.59   39.38
  16 -13  -1   35.73   11.00
  -3  16  -1   25.06    9.86
 -13  -3  -1   29.55    9.40
  -3  16  -1   17.01    7.77
 -13  -3  -1   28.21    8.24
  16 -13  -1   30.31   10.55
 -13  -3  -1   29.76    9.15
  -3  16  -1   19.68    8.34
  16 -13  -1   -0.70    6.18
  -3  16  -1   19.88    9.37
  -3  16   2 1499.07   30.12
 -13  -3   2 1456.16   24.76
  -3  16   2 1441.45   46.95
  -3  16   8  919.57   26.29
  -4  16 -11    3.15   16.09
 -12  -4 -11   -7.97   13.25
  -4  16 -11   11.47   14.04
  -4  16 -11   50.74   14.31
  16 -12 -11   65.54   22.66
 -12  -4 -11   20.61   18.04
  16 -12 -11   34.73   14.18
  -4  16  -8   92.48   14.29
  -4  16  -8   70.62   17.12
 -12  -4  -8   91.07   15.28
  16 -12  -8   95.67   14.98
  16 -12  -8  109.11   19.78
  -4  16  -8   89.19   13.56
  16 -12  -8   68.44   13.81
  -4  16  -5    4.34    9.08
 -12  -4  -5   25.93    7.28
  -4  16  -5   12.68   10.37
  16 -12  -5   29.02   11.40
  16 -12  -5   17.99    9.81
 -12  -4  -5   14.60    9.15
 -12  -4  -5   15.93    6.68
  -4  16  -5   18.09    7.65
  16 -12  -5    4.14    8.53
  -4  16  -5   35.03    9.03
  16 -12  -2  192.36   15.01
  -4  16  -2  190.88   16.75
  -4  16  -2  222.59   14.37
 -12  -4  -2  210.78   14.45
  16 -12  -2  207.10   17.35
 -12  -4  -2  207.57   14.99
  16 -12  -2  180.49   15.00
 -12  -4  -2  203.85   15.83
  16 -12  -2  193.65   16.19
  -4  16  -2  178.33   15.32
  -4  16   1   17.31   10.54
 -12  -4   1    5.12    9.84
  16 -12   1   18.53   10.26
  16 -12   1    7.21    3.52
  16 -12   1   11.79    8.55
  16 -12   1    9.56    3.16
 -12  -4   1   13.67    6.25
  -4  16   1   14.84    8.41
  -4  16   4   69.25    5.10
  -4  16   4   77.45    5.30
  -4  16   7  129.22   12.52
  -5  16  -9   85.98   15.26
 -11  -5  -9   53.08   14.94
  16 -11  -9  100.20   20.74
  16 -11  -9   95.36   15.68
  16 -11  -9   80.66   14.91
  -5  16  -9   71.42   12.92
  -5  16  -9   89.26   18.58
  16 -11  -6  405.43   27.84
  -5  16  -6  354.20   22.73
  16 -11  -6  350.94   22.85
  16 -11  -6  341.96   21.95
  -5  16  -6  362.77   20.76
 -11  -5  -6  338.45   15.51
 -11  -5  -6  370.53   23.80
  16 -11  -3   14.38    8.87
 -11  -5  -3   20.49    7.37
 -11  -5  -3   15.35    6.99
  -5  16  -3   16.46    5.87
  16 -11  -3   29.57    8.47
  -5  16  -3    7.46    7.15
  16 -11  -3   12.88    7.72
 -11  -5  -3   -0.97    6.94
 -11  -5   0  502.61   23.30
 -11  -5   0  475.68   23.42
 -11  -5   0  502.06   22.47
  16 -11   0  499.87   24.07
  16 -11   0  474.92   23.17
  -5  16   0  462.72   20.21
  16 -11   0  572.80   26.44
  -5  16   0  518.84   25.48
  -5  16   3  102.77    8.13
  -5  16   3  126.75   17.41
  -5  16   6   13.19    7.37
  -6  16 -10  421.06   28.79
  -6  16 -10  464.63   27.11
  16 -10 -10  376.41   26.71
  16 -10 -10  431.47   39.32
  16 -10 -10  399.02   27.51
  -6  16 -10  393.08   26.12
 -10  -6 -10  428.01   31.36
  -6  16 -10  423.53   34.28
  -6  16  -7   36.13   10.79
  16 -10  -7   25.27   14.07
 -10  -6  -7    5.81    9.70
  16 -10  -7   28.19   11.82
 -10  -6  -7   20.26    5.43
  16 -10  -7   22.30   10.89
  -6  16  -7   16.98    9.39
  -6  16  -7   14.76   12.30
  -6  16  -4 1307.71   39.17
 -10  -6  -4 1366.52   31.77
 -10  -6  -4 1255.81   27.87
  16 -10  -4 1379.11   41.39
  -6  16  -4 1259.30   30.64
  16 -10  -4 1395.38   40.04
  16 -10  -4 1229.07   34.61
  -6  16  -4 1293.16   36.53
 -10  -6  -4 1296.86   38.17
 -10  -6  -1  241.78   15.99
 -10  -6  -1  261.94   15.77
  16 -10  -1  251.43   18.71
  16 -10  -1  260.40   17.26
  -6  16  -1  268.62   15.02
  16 -10  -1  240.68   17.62
 -10  -6  -1  260.61   17.49
  -6  16  -1  273.20   18.27
  -6  16   2 1415.26   38.40
  16 -10   2 1544.86   38.57
 -10  -6   2 1626.95   45.48
  16 -10   2 1335.24   18.25
  -6  16   2 1471.94   30.69
 -10  -6   2 1531.69   25.48
  -6  16   2 1533.70   46.02
  -6  16   5    4.94    2.43
  -6  16   5    5.54    6.72
  -9  -7 -11   15.82   15.55
  -7  16 -11   10.68   15.68
  -7  16 -11    7.63   13.32
  16  -9 -11    4.55   11.81
  16  -9 -11   -3.79   12.07
  -7  16 -11   -7.57   11.63
  16  -9 -11    5.20   17.92
  16  -9  -8  109.67   20.13
  -7  16  -8  118.23   19.59
  -7  16  -8  118.03   15.58
  16  -9  -8   86.58   14.39
  16  -9  -8  127.73   16.75
  -7  16  -8  121.53   15.25
  -9  -7  -8  108.98   16.96
  -9  -7  -5   90.21   13.82
  -7  16  -5  104.75   13.95
  -9  -7  -5   82.05    7.43
  16  -9  -5   98.26   13.53
  16  -9  -5   75.81   10.69
  -7  16  -5   98.88   12.87
  -7  16  -5   84.96    9.80
  16  -9  -5  101.68   13.59
  -9  -7  -2  580.09   20.51
  16  -9  -2  591.99   26.70
  -9  -7  -2  559.20   24.52
  -9  -7  -2  618.34   23.89
  16  -9  -2  594.19   23.58
  16  -9  -2  570.84   25.55
  -7  16  -2  571.12   24.99
  -7  16  -2  627.43   20.64
  -7  16   1  374.39   18.63
  -9  -7   1  350.39   19.97
  16  -9   1  344.51   19.87
  -9  -7   1  398.52   22.09
  16  -9   1  356.03   20.66
  16  -9   1  367.48   12.67
  16  -9   1  382.32   22.19
  -7  16   1  391.21   23.22
  -9  -7   1  320.18   15.55
  -7  16   4  804.59   36.88
  -7  16   4  783.13   27.85
  -7  16   4  837.78   19.65
  -7  16   7   39.31    9.70
  -8  -8  -9   41.10   15.06
  16  -8  -9   23.18   11.89
  -8  16  -9   15.53   14.18
  -8  16  -9   28.12   12.60
  -8  16  -9   26.64   12.36
  16  -8  -9   14.25   11.52
  -8  16  -9   24.35   10.64
  16  -8  -9    2.85   16.72
  16  -8  -6  322.22   22.11
  -8  16  -6  351.09   22.03
  16  -8  -6  320.02   18.30
  -8  -8  -6  326.72   23.17
  -8  16  -6  347.40   21.86
  16  -8  -6  396.87   24.63
  -8  16  -6  292.17   16.39
  -8  16  -3    8.01    7.37
  -8  -8  -3    4.52    4.98
  16  -8  -3   16.33    9.86
  -8  16  -3   11.91    5.47
  -8  -8  -3   10.31    8.54
  16  -8  -3    3.26    6.56
  16  -8  -3   23.73    9.75
  -8  -8  -3    6.78    6.11
  16  -8   0   -3.82    5.10
  -8  -8   0   -2.16    6.90
  -8  -8   0    1.25    7.22
  -8  -8   0    7.30    6.31
  16  -8   0   -5.97    8.29
  16  -8   0    0.28    6.86
  -8  16   0   -1.76    6.10
  -8  16   0   -2.30    8.39
  -8  -8   0   -7.47    8.07
  16  -8   0    1.12    8.28
  -8  16   3   31.74   10.86
  16  -8   3   22.30    7.74
  -8  -8   3   30.89    3.31
  16  -8   3   20.33    4.20
  -8  16   3   43.08    9.46
  -8  16   3   38.31    6.91
  -8  16   6  202.78    9.32
  -8  16   6  215.07   15.86
  -9  16 -10  135.34   17.96
  -9  16 -10  153.02   16.62
  -9  16 -10  147.98   21.46
  16  -7 -10  165.45   19.69
  16  -7 -10  169.56   19.93
  16  -7 -10  176.19   27.79
  -9  16 -10  138.15   19.00
  -7  -9 -10  125.57   20.71
  -9  16  -7    9.52    7.21
  -9  16  -7   20.48   12.69
  -7  -9  -7   11.86   13.33
  16  -7  -7    9.62   10.45
  16  -7  -7    4.91   10.50
  -9  16  -7    5.55    9.71
  16  -7  -7   16.07    8.19
  -9  16  -7   22.69   10.56
  -7  -9  -4  831.18   31.74
  -7  -9  -4  769.71   17.46
  -9  16  -4  828.76   21.21
  16  -7  -4  890.53   33.09
  16  -7  -4  807.45   31.46
  16  -7  -4  881.92   26.13
  -9  16  -4  841.51   31.67
  -7  -9  -1  307.16   19.32
  -7  -9  -1  320.75   16.17
  -7  -9  -1  337.79   18.93
  16  -7  -1  329.82   17.45
  16  -7  -1  310.71   17.35
  16  -7  -1  330.29   19.86
  -9  16  -1  308.41   14.15
  -7  -9  -1  306.05   19.14
  16  -7  -1  305.94   19.47
  -9  16  -1  279.48   19.07
  16  -7   2  450.82   21.31
  -9  16   2  448.91   18.56
  -7  -9   2  462.45   15.25
  16  -7   2  399.78   22.32
  -9  16   2  445.37   25.45
  -9  16   2  398.58   20.49
  -7  -9   2  470.25   24.86
  16  -7   2  457.23   14.93
  -9  16   5   93.65   16.43
  16  -7   5  108.10    9.58
  -9  16   5  108.88    8.93
  -6 -10 -11   28.56   16.37
 -10  16 -11   58.77   18.64
  16  -6 -11   29.29   13.76
  16  -6 -11   35.18   14.54
 -10  16 -11   12.08   13.14
  16  -6 -11    2.85   18.97
 -10  16  -8  474.23   32.76
 -10  16  -8  522.53   26.71
 -10  16  -8  547.43   25.10
  16  -6  -8  518.58   28.90
 -10  16  -8  451.17   27.58
  16  -6  -8  483.12   28.94
  -6 -10  -8  544.59   32.69
 -10  16  -5   34.91    6.10
  -6 -10  -5   50.74   12.91
  16  -6  -5   42.67   11.29
  16  -6  -5   49.94    7.97
  16  -6  -5   33.51   10.71
  -6 -10  -2 1553.94   44.93
  -6 -10  -2 1498.07   30.11
  -6 -10  -2 1506.24   39.77
  16  -6  -2 1514.66   34.37
  16  -6  -2 1549.64   40.20
 -10  16  -2 1449.30   25.47
  16  -6  -2 1568.70   41.30
 -10  16  -2 1506.01   40.26
  16  -6  -2 1468.15   40.67
 -10  16   1  395.90   18.67
  16  -6   1  372.80   19.81
  -6 -10   1  376.05   21.22
  -6 -10   1  376.74   20.24
  16  -6   1  350.48   14.69
  16  -6   1  334.23   19.88
  16  -6   1  378.67   21.62
 -10  16   1  430.37   24.61
 -10  16   1  370.55   18.78
  -6 -10   1  354.76   16.40
  16  -6   4 1262.55   27.28
  16  -6   4 1340.66   33.27
 -10  16   4 1282.79   28.98
 -10  16   4 1281.59   45.04
 -10  16   7   34.88    6.66
  -5 -11  -9   19.73   13.79
 -11  16  -9   36.76   16.09
  16  -5  -9    5.54   11.86
 -11  16  -9   26.91    9.36
  16  -5  -9   20.51   12.08
 -11  16  -9   35.34   13.82
 -11  16  -9   35.31   11.35
  16  -5  -6   59.34   13.48
  16  -5  -6   66.92    8.59
 -11  16  -6   57.71   12.77
 -11  16  -6   69.59    8.04
  -5 -11  -6   84.92   14.79
  16  -5  -6   79.78   13.41
  16  -5  -3   81.25   12.25
  16  -5  -3   92.61    9.52
  16  -5  -3   52.99   11.87
 -11  16  -3   87.56   12.19
 -11  16  -3   91.84    6.32
  -5 -11  -3   94.11    7.66
  -5 -11  -3   82.49   12.25
  -5 -11   0  334.35   19.95
  -5 -11   0  395.62   19.19
 -11  16   0  342.56   15.24
  16  -5   0  372.53   19.73
  16  -5   0  380.83   20.77
  16  -5   0  352.17   20.48
  -5 -11   0  357.84   20.03
 -11  16   0  321.24   19.91
 -11  16   0  397.28   20.63
  -5 -11   0  372.67   19.15
  16  -5   0  388.86   17.34
 -11  16   3   17.26    9.54
  16  -5   3    3.76    8.46
  -5 -11   3   -5.47   10.69
  16  -5   3   -0.55    6.56
  -5 -11   3    6.58    4.11
 -11  16   3    1.47    5.77
  16  -5   3   -1.18    4.98
  16  -5   6  238.98   16.26
 -11  16   6  289.99   15.11
  -4 -12 -10   28.31   15.51
 -12  16 -10    2.52   14.62
 -12  16 -10   15.96    9.28
  16  -4 -10   35.20   13.37
  16  -4 -10   28.40   13.58
 -12  16 -10   27.71   13.27
 -12  16  -7  210.19   13.14
 -12  16  -7  190.65   12.39
  16  -4  -7  219.26   20.17
  16  -4  -7  206.94   20.41
 -12  16  -7  206.47   20.07
  -4 -12  -7  215.59   22.11
  16  -4  -7  151.19   10.18
  16  -4  -4   52.18   11.71
  16  -4  -4   84.81   12.90
  16  -4  -4   59.43    7.45
 -12  16  -4   66.94   12.08
 -12  16  -4   53.54    4.40
  -4 -12  -4   66.74   13.34
  -4 -12  -1   21.04    8.71
  -4 -12  -1    3.65    8.27
  -4 -12  -1    6.72    5.90
 -12  16  -1   18.66    4.94
  16  -4  -1   24.26    9.73
  16  -4  -1   23.09    7.27
  16  -4  -1   25.78   10.66
 -12  16  -1   18.27    9.60
  16  -4  -1   21.29    7.35
  16  -4   2  249.66   14.05
  16  -4   2  264.55   16.66
  -4 -12   2  280.68   19.33
 -12  16   2  245.27   15.44
  -4 -12   2  271.05   13.73
  16  -4   2  271.71   18.44
 -12  16   2  252.55   19.74
 -12  16   2  266.56   17.16
 -12  16   5   28.88   13.93
  16  -4   5   40.83    7.91
  16  -4   5   25.19    7.74
 -12  16   5   32.13    7.83
  -4 -12   5   17.94    4.36
  -3 -13 -11   36.87   19.18
 -13  16 -11   29.02   17.14
  16  -3 -11    8.54   17.51
  16  -3 -11   26.88   15.53
  16  -3 -11   19.90   14.44
 -13  16 -11    8.58   14.61
 -13  16  -8  777.62   24.68
  16  -3  -8  888.44   37.99
  16  -3  -8  850.49   39.22
 -13  16  -8  837.14   39.02
  -3 -13  -8  837.95   41.13
 -13  16  -8  819.75   31.88
 -13  16  -5  128.71    5.97
 -13  16  -5  123.85    5.94
  16  -3  -5  191.94   18.09
  16  -3  -5  166.72   17.98
  16  -3  -5  157.77    8.84
 -13  16  -5  158.97   17.45
  -3 -13  -5  196.38   18.97
  16  -3  -2 1179.97   28.99
  -3 -13  -2 1205.25   36.54
  16  -3  -2 1284.78   38.87
  16  -3  -2 1272.18   38.15
 -13  16  -2 1255.54   39.25
  -3 -13   1   22.07   10.16
  16  -3   1   34.07    9.38
  16  -3   1   24.30    8.43
 -13  16   1   16.38    9.55
  16  -3   1   28.89    7.39
  -3 -13   1   33.39    7.44
 -13  16   1   19.97    7.42
  16  -3   4 1464.96   34.90
 -13  16   4 1459.93   35.60
  -3 -13   4 1410.92   27.49
 -13  16   4 1561.72   49.15
  16  -3   4 1548.23   35.00
 -13  16   7    5.07    7.69
  -2 -14  -9   31.67   16.32
 -14  16  -9   18.25    9.74
  16  -2  -9   44.67   13.60
  16  -2  -9   50.58   15.53
 -14  16  -9   12.61    8.29
 -14  16  -9    7.89   13.55
  16  -2  -6  143.78   17.16
  16  -2  -6  105.42   16.27
 -14  16  -6   94.33    5.98
  16  -2  -6   66.05    4.06
 -14  16  -6  140.50   17.84
 -14  16  -6   94.66    5.71
  -2 -14  -6  119.37   17.10
  -2 -14  -3  100.15   13.14
  16  -2  -3  108.97   14.06
  16  -2  -3   91.10   13.66
 -14  16  -3  116.04   14.89
  16  -2   0  156.55   14.97
  -2 -14   0  189.18   15.69
  16  -2   0  167.61   15.17
  16  -2   0  178.28   13.73
 -14  16   0  177.67   16.46
  -2 -14   0  179.36   14.92
  16  -2   3   34.77   10.07
  16  -2   3   19.16    7.48
  16  -2   3   40.10    8.67
  -2 -14   3   25.07    9.58
  -2 -14   3   18.62    6.16
 -14  16   3   19.61    7.90
 -14  16   3   18.71   10.17
 -14  16   6   72.12   16.52
 -14  16   6   77.69   11.34
  16  -2   6   82.03    8.99
  -1 -15 -10   36.70   16.62
 -15  16 -10   13.17   15.19
 -15  16 -10   10.41   14.74
  16  -1 -10    8.21   12.07
  16  -1 -10   29.03   14.45
  -1 -15  -7   63.39   15.88
 -15  16  -7   31.90    4.71
  16  -1  -7   75.51   13.93
 -15  16  -7   49.10   14.62
  16  -1  -7   24.56   11.59
 -15  16  -7   42.61    5.31
  -1 -15  -4   25.31   10.35
  16  -1  -4    7.83    9.31
  16  -1  -4   24.48   11.31
 -15  16  -4   15.83   10.40
  16  -1  -1  105.71   13.70
  -1 -15  -1   91.08   11.96
  16  -1  -1  107.33   13.24
 -15  16  -1   97.66   13.69
  16  -1   2    6.24    7.53
  16  -1   2    8.50    6.21
  -1 -15   2    9.00    6.23
  -1 -15   2    2.20    9.47
  16  -1   2    0.61    8.43
 -15  16   2   16.97    9.93
 -15  16   5    7.16   11.11
  16  -1   5   21.75    7.38
  -1 -15   5    4.48    6.19
  16   0 -11   22.94   14.20
  16   0 -11   31.00   16.39
 -16  16 -11   48.55   18.74
 -16  16 -11   22.87   15.44
   0 -16 -11   -7.94   16.97
  16   0  -8  385.87   27.68
  16   0  -8  386.46   28.69
 -16  16  -8  351.62   28.57
 -16  16  -8  329.44   13.30
   0 -16  -8  348.71   29.16
   0 -16  -5   29.98   12.29
  16   0  -5   31.03   12.06
  16   0  -5   31.16   12.33
 -16  16  -5    0.45    9.75
   0 -16  -2 1945.94   48.47
  16   0  -2 2116.75   50.90
  16   0  -2 2003.48   48.85
 -16  16  -2 2034.16   50.83
  16   0   1   22.96    8.63
   0 -16   1   20.28    8.60
  16   0   1   18.29    7.58
  16   0   1    0.33    8.69
   0 -16   1    9.78    7.33
 -16  16   1   30.34   10.38
  16   0   4 1283.95   32.99
  16   0   4 1290.01   38.18
 -16  16   4 1191.87   42.91
 -16  16   7   57.70   16.92
   1 -17  -9   11.90   14.29
 -17  16  -9   -1.78    8.93
  16   1  -9   11.52   11.69
  16   1  -9   15.64   14.76
 -17  16  -9    0.31   13.85
   1 -17  -6   80.32   15.77
  16   1  -6   82.60   15.21
  16   1  -6   67.86   15.37
 -17  16  -6   98.99   16.30
   1 -17  -3  162.05   16.43
  16   1  -3  117.41   15.54
 -17  16  -3  146.38   16.49
  16   1  -3  166.90   17.24
  16   1   0   74.81   12.16
   1 -17   0   98.11   12.17
  16   1   0   70.33   11.72
 -17  16   0   78.41   12.56
  16   1   3  116.30   12.39
   1 -17   3  109.71   11.68
  16   1   3  143.73   14.29
 -17  16   3  131.79   17.06
   1 -17   3  124.36   14.56
  16   1   6   21.81    6.89
   1 -17   6   13.85    8.02
 -18  16 -10   34.19   16.65
  16   2 -10   30.17   15.28
  16   2 -10   53.54   18.06
   2 -18 -10   36.04   18.18
   2 -18  -7    9.31   11.81
  16   2  -7   17.03   11.90
  16   2  -7    4.36   12.19
 -18  16  -7   12.99   12.08
  16   2  -4   52.90   13.81
 -18  16  -4   71.76   13.76
  16   2  -4   80.94   13.94
   2 -18  -4   74.33   14.18
  16   2  -1   82.65   12.80
   2 -18  -1   61.12   11.07
 -18  16  -1   67.31   12.29
  16   2   2  290.98   18.70
   2 -18   2  236.75   18.15
  16   2   2  253.21   17.82
 -18  16   2  247.23   19.76
  16   2   5   92.19   10.48
 -18  16   5  103.48   16.56
  16   3 -11   42.52   17.63
  16   3 -11    2.86   16.87
 -19  16 -11   24.92   19.71
   3 -19 -11   -0.94   19.20
  16   3  -8  608.36   35.44
  16   3  -8  536.57   35.68
 -19  16  -8  561.21   36.75
   3 -19  -8  563.70   38.73
   3 -19  -5   37.75   13.57
  16   3  -5   30.28   11.60
  16   3  -5   32.96   13.44
 -19  16  -5   27.80   12.03
   3 -19  -2 1268.93   40.13
  16   3  -2 1269.23   42.33
  16   3  -2 1251.14   41.05
 -19  16  -2 1224.81   42.07
  16   3   1   15.29    9.58
   3 -19   1   26.42    9.52
  16   3   1   12.02    9.30
 -19  16   1   11.12    9.32
  16   3   4  766.57   27.85
  16   3   4  776.24   30.32
 -19  16   4  765.26   35.58
 -19  16   7   -2.36   13.30
  16   3   7    4.04    5.36
  16   4  -9    9.51   13.79
  16   4  -9   18.82   16.14
 -20  16  -9   23.20   15.61
   4 -20  -9   14.93   14.97
  16   4  -6  212.27   21.97
 -20  16  -6  242.15   23.66
   4 -20  -6  236.40   24.25
  16   4  -6  221.10   22.29
   4 -20  -3    6.53    9.76
  16   4  -3   19.11   11.23
  16   4  -3   -6.36   10.91
 -20  16  -3   18.33   10.29
  16   4   0  210.28   18.45
   4 -20   0  247.28   18.51
  16   4   0  242.71   18.72
 -20  16   0  258.36   20.68
  16   4   3   55.15   10.87
   4 -20   3   29.06   10.43
  16   4   3   26.06    9.45
 -20  16   3   34.66   12.04
  16   4   6  327.83   16.98
 -20  16   6  311.78   26.43
  16   5 -10   31.91   16.46
  16   5 -10   -2.34   16.33
 -21  16 -10   22.66   16.89
   5 -21 -10   26.75   19.90
   5 -21  -7    8.99   12.94
  16   5  -7   17.58   14.07
  16   5  -7   -6.67   12.19
 -21  16  -7    4.26   12.52
   5 -21  -4   49.28   14.12
  16   5  -4   42.47   12.47
  16   5  -4   30.44   13.49
 -21  16  -4   59.79   15.33
  16   5  -1   33.95   11.88
  16   5  -1   36.98   10.91
   5 -21  -1   35.18   10.40
 -21  16  -1   43.45   11.39
   5 -21   2  274.02   20.37
  16   5   2  314.45   20.94
  16   5   2  237.74   18.07
 -21  16   2  306.72   22.28
 -21  16   5   10.48   11.39
  16   5   5    4.90    8.19
  16   5   5    8.38    7.45
  16   6  -8  359.56   30.10
 -22  16  -8  338.03   30.69
   6 -22  -8  325.48   31.17
  16   6  -8  282.10   28.70
   6 -22  -5    7.29   12.97
  16   6  -5    0.22   11.57
  16   6  -5   -1.43   12.88
 -22  16  -5   15.46   12.79
   6 -22  -2  458.55   26.41
  16   6  -2  536.80   30.47
  16   6  -2  574.82   30.15
 -22  16  -2  511.54   29.31
  16   6   1   20.81    9.83
   6 -22   1   24.24   10.28
  16   6   1   12.55    9.73
 -22  16   1    6.78    9.69
  16   6   4  197.58   16.27
   6 -22   4  145.06   16.33
  16   6   4  157.16   15.59
 -22  16   4  173.26   19.97
 -22  16   7   36.77   16.16
  16   6   7   22.70    7.69
   7 -23  -9   35.30   18.14
  16   7  -9   14.04   14.85
  16   7  -9   -6.35   16.94
 -23  16  -9   25.72   17.50
  16   7  -6  336.56   27.51
  16   7  -6  312.99   27.40
 -23  16  -6  408.81   31.92
   7 -23  -6  333.21   28.67
   7 -23  -3   16.39   10.72
  16   7  -3    5.58   11.23
 -23  16  -3   23.45   12.76
  16   7  -3   16.29   12.24
  16   7   0  542.53   29.22
   7 -23   0  557.75   27.13
  16   7   0  542.06   27.40
 -23  16   0  548.04   29.59
  16   7   3   19.07    9.86
   7 -23   3   12.32   10.72
  16   7   3    9.63    9.36
 -23  16   3   16.74   11.13
  16   7   6  286.23   17.94
 -23  16   6  309.83   26.16
   8 -24  -7    8.21   14.79
  16   8  -7    5.26   13.37
  16   8  -7  -13.79   14.48
 -24  16  -7    9.83   13.92
  16   8  -4  113.96   17.66
  16   8  -4  112.89   17.55
 -24  16  -4  142.20   20.69
   8 -24  -4  119.48   18.12
  16   8  -1   27.70   12.17
   8 -24  -1   -1.10    8.57
  16   8  -1    5.13    9.51
 -24  16  -1   16.19   11.15
   8 -24   2   24.89   10.30
  16   8   2   35.45   11.66
  16   8   2   28.05    9.52
 -24  16   2   41.61   12.57
  16   8   5    6.37    8.74
  16   8   5   20.95    9.19
 -24  16   5   16.87   12.38
   9 -25  -8   43.37   19.60
  16   9  -8   59.67   19.09
  16   9  -8   56.33   18.33
 -25  16  -8   50.29   18.68
  16   9  -5   -2.41   11.99
  16   9  -5    3.66   13.13
 -25  16  -5   -3.49   12.35
   9 -25  -5   -0.12   12.58
   9 -25  -2  112.66   15.35
 -25  16  -2  127.60   18.63
  16   9  -2  144.43   18.94
  16   9  -2  134.16   17.73
  16   9   1   68.92   13.65
   9 -25   1   45.66   10.88
  16   9   1   51.12   11.82
 -25  16   1   44.90   12.08
  16   9   4   67.68   12.75
  16   9   4   50.13   12.61
 -25  16   4   23.71   12.60
 -25  16   7    8.66   14.10
  16   9   7   12.00    8.19
  10 -26  -9   15.24   18.02
  16  10  -9    2.03   15.91
  16  10  -9   -5.11   15.97
 -26  16  -9   31.39   19.18
  16  10  -6  315.72   30.26
  16  10  -6  366.66   30.90
 -26  16  -6  288.06   29.97
  10 -26  -6  371.68   31.27
  16  10  -3   -6.40   11.85
  10 -26  -3   10.04   10.44
 -26  16  -3   27.84   14.35
  16  10  -3    5.92   13.76
  16  10   0  503.35   30.55
  16  10   0  479.97   27.78
  10 -26   0  462.46   25.63
 -26  16   0  432.47   29.03
  16  10   3  123.16   15.04
  10 -26   3   99.59   14.67
  16  10   3  112.52   15.54
 -26  16   3   65.99   13.49
  16  10   6  272.49   19.28
 -26  16   6  187.21   22.60
  11 -27  -7   -7.41   17.00
  16  11  -7   28.40   16.06
  16  11  -7   20.39   17.56
 -27  16  -7   -0.54   15.63
  16  11  -4   51.11   16.41
  16  11  -4   62.51   16.50
 -27  16  -4   55.38   16.35
  11 -27  -4  106.89   17.61
  16  11  -1   12.18   12.54
  16  11  -1   30.02   12.64
  11 -27  -1    7.82    9.23
 -27  16  -1    0.95   11.93
  11 -27   2   66.75   13.51
  16  11   2   53.28   12.70
  16  11   2   78.18   13.94
 -27  16   2   66.47   14.31
  16  11   5   36.94   11.42
 -27  16   5   48.70   15.76
  16  11   5   37.67   10.51
  12 -28  -8   -2.84   16.19
  16  12  -8   12.12   15.20
  16  12  -8   28.73   18.40
 -28  16  -8   -1.12   16.72
  12 -28  -5    4.98   14.81
  16  12  -5    6.47   13.80
  16  12  -5   11.58   15.60
 -28  16  -5   -3.76   14.19
  16  12  -2  -15.79   12.71
  12 -28  -2   -0.31    9.32
  16  12  -2    1.81   11.43
 -28  16  -2   -3.34   11.89
  16  12   1   -6.32   10.95
  16  12   1   -1.80   11.19
  12 -28   1   15.02   10.36
 -28  16   1    8.93   10.84
  16  12   4   28.45   11.96
  16  12   4   40.76   10.84
 -28  16   4   42.87   13.72
 -28  16   7   -2.27   13.52
  16  13  -6  324.83   31.31
  16  13  -6  308.25   32.42
 -29  16  -6  283.42   30.66
  13 -29  -6  226.07   27.40
  16  13  -3   11.12   13.79
  13 -29  -3   17.94   12.88
  16  13  -3   19.24   15.03
 -29  16  -3   40.41   15.59
  16  13   0  395.81   29.23
  16  13   0  326.60   24.55
 -29  16   0  337.45   26.88
  13 -29   0  322.83   22.70
  13 -29   3   32.62   11.38
  16  13   3   40.28   12.12
  16  13   3   20.10   11.46
 -29  16   3   31.53   12.67
  16  13   6  303.71   22.10
 -29  16   6  262.39   26.53
  16  14  -7   37.07   19.13
  14 -30  -7    4.96   16.41
  16  14  -7   -8.21   18.13
 -30  16  -7   18.26   18.43
  16  14  -4   57.60   17.86
  14 -30  -4   30.92   14.76
  16  14  -4   15.74   15.11
 -30  16  -4   28.77   15.81
  16  14  -1   12.29   13.02
  16  14  -1   19.54   13.18
 -30  16  -1   25.52   15.11
  14 -30  -1   11.45   10.00
  14 -30   2   -1.83   10.01
  16  14   2    5.22   10.15
 -30  16   2    1.44   11.43
  16  14   2   -0.84   11.25
 -30  16   5   15.04   14.54
  16  14   5  -23.23   12.05
  15 -31  -5   16.51   15.71
  16  15  -5   21.08   16.82
  16  15  -5   49.53   18.37
 -31  16  -5   33.73   17.96
  16  15  -2   74.40   19.17
  16  15  -2   72.55   17.30
  15 -31  -2   51.93   13.87
 -31  16  -2   63.67   18.17
  15 -31   1   22.07   11.64
  16  15   1   23.05   11.45
  16  15   1    0.37   11.76
 -31  16   1    0.53   11.85
  16  15   4   16.64   13.24
  16  15   4   17.47   10.35
 -31  16   4    9.93   13.62
  16  16  -6  156.03   25.83
  16  16  -6  129.99   24.98
  16 -32  -6  105.88   24.38
 -32  16  -6  155.30   27.18
 -32  16  -3  -26.29   16.55
  16 -32  -3   11.94   13.21
  16  16  -3   -0.02   14.60
  16  16  -3    1.22   15.73
  16  16   0  287.93   27.92
  16  16   0  311.28   25.60
  16 -32   0  258.01   22.14
 -32  16   0  305.53   27.82
  16  16   3   18.64   13.74
  16  16   3   11.75   10.53
 -32  16   3   19.21   13.07
  16  17  -4   44.53   19.00
  17 -33  -4   33.84   15.12
  16  17  -4   33.51   17.06
 -33  16  -4   14.86   16.97
  16  17  -1   -1.94   13.57
  16  17  -1   -2.78   12.12
 -33  16  -1   15.85   14.71
  17 -33  -1   14.19   10.78
  16  17   2    9.81   14.10
  16  17   2   21.64   11.67
 -33  16   2   -0.82   12.06
  17 -33   2   14.64   11.22
  16  17   5   -5.93   12.90
 -33  16   5    1.57   13.89
  17 -32  -5   -6.39   14.53
  15  17  -5   -1.14   16.42
  15  17  -5    7.60   15.71
 -32  15  -5   20.43   16.13
  17 -32  -2    8.27   10.68
  15  17  -2   40.94   15.49
  15  17  -2   43.61   17.14
 -32  15  -2   41.39   16.33
  15  17   1   33.12   16.55
  15  17   1   37.04   13.63
  17 -32   1   26.89   11.02
 -32  15   1   10.82   13.86
  15  17   4   14.49   13.07
 -32  15   4  -12.73   12.72
  14  17  -6   84.35   21.13
  14  17  -6   57.12   19.72
 -31  14  -6   81.96   21.43
  17 -31  -6   91.86   20.21
  14  17  -3  213.23   27.17
  14  17  -3  267.30   27.11
 -31  14  -3  246.47   27.91
  17 -31  -3  201.40   21.67
  17 -31   0   60.57   12.28
  14  17   0   92.04   19.24
  14  17   0  124.06   17.19
 -31  14   0  103.09   18.24
  14  17   3  190.77   21.65
  14  17   3  212.06   18.91
 -31  14   3  151.36   19.23
  14  17   6   35.86   13.42
  13  17  -7   12.49   16.02
  17 -30  -7   43.19   17.50
  13  17  -7  -15.72   17.56
 -30  13  -7   24.06   18.53
  17 -30  -4    8.94   11.92
  13  17  -4   47.58   17.00
  13  17  -4   11.38   14.02
 -30  13  -4   21.97   16.65
  13  17  -1   10.39   12.11
  17 -30  -1   12.37   10.16
 -30  13  -1   -5.43   11.39
  13  17  -1   -3.87   13.18
  13  17   2   -1.26   11.45
  13  17   2    9.44   10.05
  17 -30   2   -1.91    8.52
 -30  13   2   11.03   10.86
  13  17   5   -4.67   10.75
 -30  13   5    8.94   12.23
  12  17  -8    9.47   18.16
 -29  12  -8  -13.34   19.35
  12  17  -8  -18.89   18.92
  17 -29  -8    5.05   18.06
  17 -29  -5   40.84   15.29
  12  17  -5   20.46   14.40
  12  17  -5   49.08   16.61
 -29  12  -5   28.41   15.99
  12  17  -2   94.77   18.37
  12  17  -2   81.28   16.60
 -29  12  -2   92.29   18.43
  17 -29  -2   79.27   14.59
  12  17   1   74.11   16.13
  12  17   1   58.35   13.32
 -29  12   1   77.39   14.60
  17 -29   1   57.79   10.78
  12  17   4   41.21   10.92
  12  17   4   60.04   15.34
 -29  12   4   36.69   12.60
  11  17  -6  164.01   24.62
  11  17  -6  181.93   26.38
 -28  11  -6  154.68   24.44
  17 -28  -6  124.13   21.17
  11  17  -3  157.97   21.93
  11  17  -3  212.42   23.52
 -28  11  -3  199.28   22.72
  17 -28  -3  155.40   18.57
  11  17   0  133.87   19.45
  17 -28   0  141.39   14.52
  11  17   0  134.25   17.19
 -28  11   0  159.59   18.60
  11  17   3  291.60   23.67
  17 -28   3  244.98   15.10
  11  17   3  314.67   19.78
 -28  11   3  276.08   21.75
  11  17   6    8.76    9.64
  10  17  -7   59.79   17.82
 -27  10  -7   42.95   18.65
  17 -27  -7   35.46   18.61
  17 -27  -4   71.42   15.22
  10  17  -4   44.78   17.09
  10  17  -4   60.98   17.02
 -27  10  -4   70.26   16.89
  17 -27  -1  100.04   13.26
  10  17  -1  109.89   18.11
  10  17  -1   75.13   14.59
 -27  10  -1  114.02   17.39
  10  17   2   64.93   15.27
  17 -27   2   50.05    8.96
  10  17   2   58.23   10.86
 -27  10   2   35.43   11.90
  10  17   5   54.93   12.32
 -27  10   5   52.96   12.57
   9  17  -8  -17.78   16.67
   9  17  -8   26.60   17.62
 -26   9  -8   -6.90   15.52
  17 -26  -8    0.56   15.83
   9  17  -5   14.11   13.71
 -26   9  -5   27.65    9.24
 -26   9  -5   14.61   13.33
   9  17  -5   39.59   16.73
  17 -26  -5    2.06   11.96
   9  17  -2  147.44   19.29
   9  17  -2  107.25   18.20
 -26   9  -2  134.53   18.39
  17 -26  -2  142.81   15.98
   9  17   1   46.34   13.62
   9  17   1   30.49   10.21
  17 -26   1   35.41    8.24
 -26   9   1   44.56   11.55
   9  17   4   39.55   12.17
   9  17   4   41.21    8.66
 -26   9   4   21.67    9.62
   9  17   7   23.09    9.54
   8  17  -9  138.25   24.12
   8  17  -9  137.19   24.47
  17 -25  -9  134.68   25.71
 -25   8  -9  163.63   26.44
   8  17  -6  100.58   20.08
   8  17  -6  110.36   20.30
 -25   8  -6   96.72   12.71
 -25   8  -6  153.59   23.27
  17 -25  -6  101.70   18.56
   8  17  -3  155.82   19.20
   8  17  -3  120.61   19.90
 -25   8  -3  112.34   17.75
  17 -25  -3  127.31   16.40
   8  17   0  213.17   21.05
  17 -25   0  178.64   14.20
   8  17   0  210.33   18.27
 -25   8   0  153.69   16.65
   8  17   3  240.48   20.82
   8  17   3  215.85   15.18
 -25   8   3  223.29   17.60
 -25   8   6   17.77    9.58
   8  17   6    3.93    8.93
   7  17  -7  107.08   20.90
  17 -24  -7   54.67   17.49
   7  17  -7   84.04   17.91
 -24   7  -7   97.25   21.73
 -24   7  -7   82.55   13.30
   7  17  -4   47.78   14.71
   7  17  -4   64.87   15.73
 -24   7  -4   63.62   15.97
 -24   7  -4   56.73   11.25
  17 -24  -4   52.95   13.91
   7  17  -1  283.00   23.96
   7  17  -1  277.37   21.84
 -24   7  -1  261.87   22.48
  17 -24  -1  245.68   16.51
   7  17   2   79.35   14.45
   7  17   2   91.68   11.14
 -24   7   2   78.93   11.78
  17 -24   2   85.00    8.32
   7  17   5  289.50   20.81
 -24   7   5  254.79   17.69
 -23   6  -8   42.85   11.62
   6  17  -8   53.93   17.96
 -23   6  -8   69.53   19.63
  17 -23  -8   98.46   20.45
   6  17  -8   67.57   18.17
   6  17  -5   29.49   14.50
   6  17  -5    9.94   12.14
 -23   6  -5   20.35    9.21
 -23   6  -5   16.00   15.05
  17 -23  -5   19.46   12.40
   6  17  -2   15.61   12.76
   6  17  -2   31.88   12.25
 -23   6  -2   17.94    9.89
  17 -23  -2   21.76    9.21
   6  17   1    8.03   10.54
   6  17   1    0.55    7.79
 -23   6   1    6.87    8.54
  17 -23   1   18.10    6.03
   6  17   4   62.48    7.74
   6  17   4   46.12   11.70
 -23   6   4   55.75    9.54
   6  17   7    3.59    7.83
   5  17  -9   51.21   16.47
   5  17  -9   65.91   20.51
 -22   5  -9   31.98   17.52
  17 -22  -9   78.06   21.57
  17 -22  -6   39.79   14.31
   5  17  -6   31.23   14.14
   5  17  -6   27.44   14.26
 -22   5  -6   22.41   14.62
 -22   5  -6   19.90    9.23
   5  17  -3   96.63   16.32
   5  17  -3  136.29   17.60
  17 -22  -3  110.64   15.37
 -22   5  -3   86.28   15.27
 -22   5  -3  104.67   12.91
 -22   5   0   65.36   11.86
   5  17   0   77.77   12.50
  17 -22   0   69.82    9.07
   5  17   0   73.59   13.76
   5  17   3  106.19   10.24
 -22   5   3   89.80   11.07
   5  17   3   98.11   13.80
   5  17   6   10.46    8.30
   4  17 -10  167.29   23.87
   4  17 -10  159.00   25.27
 -21   4 -10  174.90   28.25
  17 -21 -10  102.79   25.13
   4  17  -7  173.21   21.63
   4  17  -7  154.48   21.97
  17 -21  -7  157.50   21.83
 -21   4  -7  164.86   16.60
 -21   4  -7  167.18   23.76
   4  17  -4  207.04   15.31
   4  17  -4  254.58   23.63
   4  17  -4  266.57   23.62
 -21   4  -4  240.71   17.73
  17 -21  -4  234.86   20.99
 -21   4  -4  276.44   24.19
   4  17  -1  751.83   34.05
   4  17  -1  799.11   31.70
 -21   4  -1  828.85   33.54
  17 -21  -1  727.81   24.94
   4  17   2  136.79   15.56
   4  17   2  155.30   12.68
  17 -21   2  108.63    6.12
 -21   4   2  161.14   12.95
   4  17   5  475.75   24.09
 -21   4   5  361.01   16.18
  17 -20  -8   49.84   12.55
   3  17  -8   62.54   15.80
   3  17  -8   50.16   16.63
  17 -20  -8   50.77   18.78
 -20   3  -8   65.09   19.28
 -20   3  -8   69.04   13.49
   3  17  -5   -1.80    6.79
  17 -20  -5   15.15   10.36
   3  17  -5   36.99   14.03
  17 -20  -5    8.62   11.32
 -20   3  -5    3.85   11.92
 -20   3  -5   10.06    8.70
   3  17  -5    1.99   11.24
   3  17  -2   31.76   10.29
   3  17  -2   68.93   12.97
   3  17  -2   35.98   12.08
 -20   3  -2   51.41   11.02
 -20   3  -2   28.67   11.54
  17 -20  -2   31.75    9.25
   3  17   1   15.98   10.00
  17 -20   1   30.30    5.31
   3  17   1   24.66    7.92
 -20   3   1   24.41    8.12
   3  17   4   82.04    6.28
 -20   3   4   95.93    9.33
   3  17   4   89.69   12.84
   3  17   7   29.76    8.92
   2  17  -9    6.66   12.21
   2  17  -9   34.22   16.12
  17 -19  -9   39.89   17.91
 -19   2  -9   30.08   17.84
 -19   2  -9   40.90   13.65
  17 -19  -9   22.17   11.52
  17 -19  -6   45.88   11.75
   2  17  -6   64.27   14.56
   2  17  -6   90.75   16.57
 -19   2  -6   83.24   12.83
  17 -19  -6   63.14   14.75
 -19   2  -6   62.27   17.67
   2  17  -6   68.11   10.35
   2  17  -3  286.01   23.05
   2  17  -3  302.74   22.60
  17 -19  -3  290.50   20.00
 -19   2  -3  290.09   19.40
 -19   2  -3  290.75   23.24
   2  17  -3  263.43   18.03
   2  17   0    7.62    9.03
   2  17   0   -3.11    7.60
 -19   2   0   -0.43    7.11
  17 -19   0    1.95    5.03
   2  17   3  175.87   16.50
   2  17   3  161.76   10.18
 -19   2   3  150.98   10.56
   2  17   6   74.70   11.02
 -18   1 -10  203.09   21.64
   1  17 -10  186.35   23.11
   1  17 -10  246.21   30.62
 -18   1 -10  147.26   26.68
  17 -18 -10  154.40   27.03
   1  17  -7  481.09   30.69
   1  17  -7  496.64   33.78
 -18   1  -7  484.46   26.33
 -18   1  -7  489.96   34.57
  17 -18  -7  431.34   25.84
   1  17  -7  424.77   20.11
   1  17  -4  414.12   26.64
   1  17  -4  430.58   28.12
  17 -18  -4  427.13   25.53
 -18   1  -4  381.62   27.15
 -18   1  -4  432.24   22.97
  17 -18  -4  401.27   23.49
   1  17  -4  385.01   21.04
   1  17  -1  555.74   28.77
   1  17  -1  531.09   25.74
  17 -18  -1  507.94   20.24
 -18   1  -1  482.61   24.65
 -18   1  -1  470.09   24.28
   1  17  -1  468.78   25.86
   1  17   2  338.84   15.97
 -18   1   2  298.88   14.72
   1  17   2  287.42   20.45
   1  17   5  456.86   22.85
   1  17   8    4.30    6.79
  17 -17 -11  -18.93   18.52
   0  17 -11   -3.93   13.90
   0  17 -11   27.11   17.52
 -17   0 -11    9.01   13.81
 -17   0 -11   22.64   18.01
   0  17  -8   76.38   18.90
  17 -17  -8    6.73   14.36
 -17   0  -8   11.50   10.20
 -17   0  -8   29.08   15.11
   0  17  -8   14.65   12.41
   0  17  -8   52.57    9.97
  17 -17  -8   32.26   11.40
 -17   0  -5    9.02    8.65
   0  17  -5    8.88   11.26
 -17   0  -5   13.15    8.32
   0  17  -5   -1.88   10.73
  17 -17  -5   -3.02   10.11
 -17   0  -5   16.17   12.04
   0  17  -5   11.90    8.25
  17 -17  -5  -20.91   10.49
 -17   0  -2   85.02   12.07
  17 -17  -2   80.88   12.73
   0  17  -2  103.83   14.36
  17 -17  -2   97.09   12.21
 -17   0  -2  100.02   13.76
   0  17  -2  102.40   14.29
   0  17  -2   87.03   13.11
   0  17   1   13.53   11.55
   0  17   1    1.30    8.49
  17 -17   1    6.48    3.07
   0  17   1    6.00    6.65
 -17   0   1    6.10    6.24
   0  17   4    5.21    2.47
   0  17   4    7.96    2.66
 -17   0   4    8.27    2.95
   0  17   7   -3.87    7.33
  -1  17  -9   -0.43   15.04
 -16  -1  -9   35.94   12.48
 -16  -1  -9   22.29   15.33
  17 -16  -9   24.98   18.03
  -1  17  -9    0.16   11.71
  -1  17  -9   14.60    9.10
  17 -16  -9   17.96   11.24
 -16  -1  -6   32.59    7.91
  -1  17  -6   23.24   14.82
 -16  -1  -6    5.51   12.94
  17 -16  -6   12.81   12.29
 -16  -1  -6   37.58   11.17
  -1  17  -6   27.56   12.49
  17 -16  -6   31.73   12.20
  -1  17  -6   23.36    8.46
  17 -16  -6   25.82   11.45
  -1  17  -3  158.75   16.89
 -16  -1  -3  137.08   13.33
  17 -16  -3  146.33   15.98
  -1  17  -3  131.98   16.45
 -16  -1  -3  155.87   17.32
 -16  -1  -3  120.51   13.76
  17 -16  -3  141.04   15.67
  -1  17  -3  131.81   13.67
 -16  -1   0   90.51   13.60
  -1  17   0   95.05   13.34
  -1  17   0   82.84   11.24
  17 -16   0   83.18    7.88
 -16  -1   0  105.36   12.08
  -1  17   0   84.06   13.46
 -16  -1   3  124.36    7.74
  -1  17   3  126.94    8.71
  -1  17   6   83.35   11.24
  -2  17 -10  161.32   20.49
  -2  17 -10  216.23   29.39
  17 -15 -10  173.97   27.22
 -15  -2 -10  183.72   29.08
  17 -15 -10  160.80   18.08
 -15  -2 -10  213.28   22.78
 -15  -2  -7  492.89   27.69
  -2  17  -7  506.33   29.52
  -2  17  -7  566.49   34.73
  17 -15  -7  562.68   35.48
  17 -15  -7  503.93   28.80
 -15  -2  -7  489.48   36.15
  17 -15  -7  502.92   26.79
  -2  17  -7  479.29   23.35
  -2  17  -4  134.86   16.21
  17 -15  -4  127.53   15.82
 -15  -2  -4  125.53   12.57
 -15  -2  -4  142.59   14.29
 -15  -2  -4  120.40   13.22
  -2  17  -4  155.01   18.51
 -15  -2  -4  125.42   16.31
  17 -15  -4  122.15   14.95
  -2  17  -4  136.46   14.10
  17 -15  -4  125.60   16.31
  -2  17  -1  411.45   23.85
  -2  17  -1  388.68   21.99
  17 -15  -1  396.09   17.92
 -15  -2  -1  422.04   22.72
 -15  -2  -1  423.62   22.61
  -2  17  -1  458.17   24.54
  17 -15  -1  413.42   23.73
  -2  17   2  439.99   27.79
  -2  17   2  423.66   22.67
  -2  17   2  408.80   17.07
 -15  -2   2  444.78   15.60
  -2  17   5  766.69   28.24
  -2  17   8  110.54   11.32
  -3  17 -11   33.54   13.84
 -14  -3 -11   27.00   14.97
  -3  17 -11   27.25   17.76
  17 -14 -11   10.47   17.49
 -14  -3 -11   23.55   18.50
  17 -14  -8   18.43   15.54
  -3  17  -8   36.22   14.50
  17 -14  -8   22.75   12.10
 -14  -3  -8   25.26   14.19
  -3  17  -8    9.14   10.54
  -3  17  -8   30.13   10.38
  17 -14  -8   28.64   11.59
 -14  -3  -8    8.22   12.01
  -3  17  -5   12.10   10.05
  -3  17  -5   20.40   11.49
  17 -14  -5    8.92   10.24
 -14  -3  -5   26.19    7.59
  17 -14  -5   13.90   11.02
 -14  -3  -5   15.49    8.35
 -14  -3  -5    7.62    9.03
  -3  17  -5    7.17    7.85
  17 -14  -5   26.35   10.30
  17 -14  -2   64.32   10.75
 -14  -3  -2   53.37   10.28
  -3  17  -2   49.68   11.03
  -3  17  -2   59.37   11.92
  -3  17  -2   48.34    9.56
 -14  -3  -2   47.09    9.50
 -14  -3  -2   46.03    9.84
  17 -14  -2   39.08   11.26
  -3  17  -2   73.55   12.33
  17 -14  -2   47.76   11.13
  -3  17   1  158.88   13.14
  17 -14   1  130.14    6.68
 -14  -3   1  174.08   12.21
 -14  -3   1  155.14   17.07
  17 -14   1  140.45    6.97
  -3  17   1  153.62   17.65
  -3  17   4   17.05    3.16
  -3  17   4   14.88    3.29
  -3  17   7   60.08   10.15
  -3  17   7   36.24    9.36
  -4  17  -9   55.16   17.00
 -13  -4  -9   49.01   13.81
  -4  17  -9   37.48   12.57
  17 -13  -9   48.62   18.15
  17 -13  -9   42.34   13.48
  17 -13  -9   37.78   11.89
  -4  17  -9   22.98   10.29
  17 -13  -6  150.14   20.41
 -13  -4  -6  156.19   11.20
 -13  -4  -6  143.26   16.27
  -4  17  -6  141.88   16.43
  -4  17  -6  155.47   19.71
  17 -13  -6  162.34   17.70
 -13  -4  -6  127.99   12.15
  17 -13  -6  156.55   16.38
  -4  17  -6  142.29   14.32
  17 -13  -3  111.34   13.60
  -4  17  -3  106.31   14.61
 -13  -4  -3  102.62   11.26
  -4  17  -3   94.43   11.58
 -13  -4  -3   96.04   10.79
  17 -13  -3  110.06   14.61
 -13  -4  -3  115.15   13.22
  17 -13  -3   79.30   12.47
  -4  17  -3  102.41   13.09
  -4  17  -3  105.18   14.10
  -4  17   0  149.66   13.60
  17 -13   0  173.16   10.71
  17 -13   0  149.31   15.60
 -13  -4   0  155.32   14.82
 -13  -4   0  156.37   13.56
  -4  17   0  156.66   13.85
  -4  17   0  146.59   15.11
  17 -13   0  145.32   15.65
  -4  17   3  181.81   19.81
  -4  17   3  192.55   10.74
 -13  -4   3  150.70    5.60
  -4  17   3  186.85   10.33
 -13  -4   3  129.50    5.70
  -4  17   6   39.58    9.52
  -5  17 -10  129.86   23.25
  -5  17 -10  201.20   21.12
  17 -12 -10  125.16   23.04
  17 -12 -10  159.60   20.40
  17 -12 -10  131.29   18.58
  -5  17 -10  127.21   16.49
 -12  -5 -10  136.69   20.81
  -5  17  -7  173.21   18.07
  -5  17  -7  170.10   21.97
  17 -12  -7  148.58   21.58
  17 -12  -7  156.07   17.87
 -12  -5  -7  143.05   11.85
  17 -12  -7  141.83   17.59
  -5  17  -7  179.54   16.41
 -12  -5  -7  152.06   18.08
  17 -12  -4  490.44   27.24
  -5  17  -4  509.67   28.44
 -12  -5  -4  479.24   20.75
 -12  -5  -4  477.69   24.24
 -12  -5  -4  442.64   19.17
  -5  17  -4  466.73   21.02
  17 -12  -4  490.05   27.08
  17 -12  -4  473.45   24.60
  -5  17  -4  491.58   26.10
  -5  17  -4  477.63   23.44
 -12  -5  -1  664.19   25.57
  17 -12  -1  548.40   26.86
  -5  17  -1  604.88   23.45
  17 -12  -1  621.01   27.80
  -5  17  -1  658.17   28.52
 -12  -5  -1  639.54   27.14
 -12  -5   2  208.08   10.40
 -12  -5   2  175.22   17.49
  -5  17   2  183.76   18.91
 -11  -6 -11   39.81   15.48
  -6  17 -11   69.63   17.51
  -6  17 -11   73.35   21.41
  17 -11 -11   99.13   25.38
  17 -11 -11   78.81   16.54
  17 -11 -11   13.97   12.43
  -6  17  -8   17.43   14.75
 -11  -6  -8   -1.68   10.75
  17 -11  -8   14.50   15.11
  17 -11  -8   14.29   11.97
  17 -11  -8   10.07   10.67
  -6  17  -8   21.50   10.40
  -6  17  -8   14.37   10.94
 -11  -6  -5  156.05   11.08
 -11  -6  -5  159.76   12.15
  -6  17  -5  133.78   17.88
  17 -11  -5  155.07   16.34
 -11  -6  -5  162.40   16.50
  -6  17  -5  133.68   12.69
  17 -11  -5  149.65   16.12
  -6  17  -5  142.13   14.63
  -6  17  -5  166.85   17.26
 -11  -6  -2   55.08    9.65
 -11  -6  -2   55.29   10.05
 -11  -6  -2   51.22    8.58
  17 -11  -2   46.13   11.34
  17 -11  -2   48.98    9.76
  -6  17  -2   50.81   10.55
  17 -11  -2   46.43   11.34
  -6  17  -2   61.03    8.54
  17 -11   1 1215.31   36.91
  -6  17   1 1220.19   34.92
 -11  -6   1 1189.42   38.14
  17 -11   1 1215.74   21.24
  -6  17   1 1251.09   41.68
  17 -11   1 1135.06   37.23
  -6  17   4   97.98   16.69
  -6  17   4  103.36    7.64
  -6  17   7  157.83   14.24
  -7  17  -9   10.86   14.13
  -7  17  -9   13.74   10.45
  17 -10  -9   13.65   10.75
 -10  -7  -9    4.37   12.17
  17 -10  -9   24.54   16.36
  17 -10  -9  -14.59   11.74
  -7  17  -9   31.45   11.72
  -7  17  -6  139.81   18.88
 -10  -7  -6   89.98    7.60
  17 -10  -6   92.87   14.45
  -7  17  -6  119.83   15.03
  17 -10  -6  111.36   14.89
  17 -10  -6   91.01   12.07
  -7  17  -6   94.01   13.57
  -7  17  -6  103.41   11.98
 -10  -7  -6  104.25   14.76
 -10  -7  -3   71.17   10.25
  -7  17  -3   51.96    7.95
 -10  -7  -3   43.50    7.54
  17 -10  -3   45.00   10.74
  17 -10  -3   40.64    8.57
  -7  17  -3   70.44   11.12
 -10  -7  -3   43.89    9.73
  17 -10  -3   48.73   11.18
 -10  -7   0   95.09   11.39
 -10  -7   0  104.89   13.41
  17 -10   0   80.68   12.32
  -7  17   0   98.85   10.98
  17 -10   0   91.65   12.55
  17 -10   0  104.01    9.11
  17 -10   0  103.04   14.04
  -7  17   0   98.23   13.95
  17 -10   3  237.23    7.81
  17 -10   3  338.16   19.62
 -10  -7   3  274.13    7.41
 -10  -7   3  299.50    7.42
  -7  17   3  348.16   14.86
  -7  17   3  263.95   22.60
  -7  17   6   28.92    2.75
  -8  17 -10  119.66   22.22
  -8  17 -10  111.52   17.50
  17  -9 -10  128.06   24.78
  17  -9 -10  129.16   19.12
  -8  17 -10   70.69   14.00
  17  -9 -10   92.39   18.16
  -8  17 -10   96.52   16.90
  -9  -8 -10  117.10   21.23
  -8  17  -7  310.47   26.00
  -8  17  -7  288.33   21.27
  17  -9  -7  301.38   23.21
  17  -9  -7  276.08   21.89
  -8  17  -7  296.77   21.38
  17  -9  -7  267.54   18.16
  -9  -8  -7  207.15   20.39
  -9  -8  -4  162.13   16.62
  -9  -8  -4  142.34    9.86
  -8  17  -4  144.42   11.00
  17  -9  -4  131.95   15.07
  17  -9  -4  166.18   16.50
  17  -9  -4  153.67   13.37
  -8  17  -4  150.54   15.02
  -9  -8  -1  870.67   27.16
  17  -9  -1  912.89   32.96
  17  -9  -1  885.66   27.65
  17  -9  -1  923.03   30.63
  -8  17  -1  910.61   25.62
  -9  -8  -1  877.59   31.51
  17  -9  -1  852.01   31.52
  -8  17  -1  919.09   32.69
  -9  -8  -1  919.07   30.54
  -8  17   2  389.23   21.42
  -9  -8   2  424.18   24.81
  17  -9   2  383.95   20.29
  -8  17   2  429.83   18.49
  -9  -8   2  446.50   15.05
  -8  17   2  436.38   26.99
  17  -9   2  424.18   23.87
  17  -9   2  434.81   13.35
  -8  17   5  862.93   40.63
  -8  17   5  803.15   18.90
  17  -8 -11  154.26   28.36
  -9  17 -11  153.98   24.45
  17  -8 -11  134.03   19.47
  17  -8 -11  114.05   18.05
  -9  17 -11   94.42   18.12
  -8  -9 -11  175.37   24.30
  -9  17  -8   98.71   14.96
  -9  17  -8   94.50   17.50
  -8  -9  -8   77.89   17.11
  17  -8  -8  110.21   16.43
  17  -8  -8   69.49   14.24
  -9  17  -8   91.66   14.51
  -8  -9  -5  877.58   34.78
  17  -8  -5  984.85   36.61
  -9  17  -5  919.15   24.85
  -8  -9  -5  774.89   16.61
  17  -8  -5  928.34   35.41
  17  -8  -5  865.63   27.61
  -9  17  -5  996.98   35.76
  -8  -9  -2  337.96   16.36
  17  -8  -2  311.80   20.48
  -8  -9  -2  348.06   20.11
  -8  -9  -2  327.02   18.61
  17  -8  -2  308.85   17.58
  17  -8  -2  354.34   21.23
  -9  17  -2  333.47   14.63
  -9  17  -2  319.65   20.00
  -8  -9   1  878.48   31.02
  -9  17   1  894.12   28.32
  17  -8   1  909.29   31.20
  17  -8   1  879.60   32.69
  -9  17   1  914.39   34.75
  17  -8   1  890.84   21.71
  -8  -9   1  916.36   25.93
  -9  17   1  883.74   28.05
  17  -8   4   48.01    6.21
  17  -8   4   41.11    8.84
  -9  17   4   50.54    7.45
  -9  17   7  221.54    9.92
  17  -7  -9  146.24   24.16
 -10  17  -9  128.62   21.46
 -10  17  -9  157.24   16.89
  17  -7  -9  120.74   18.25
 -10  17  -9  139.45   15.87
  17  -7  -9  132.47   18.02
 -10  17  -9  132.80   18.41
  -7 -10  -9  165.61   22.42
  -7 -10  -6   30.90   11.60
  17  -7  -6   42.40   12.50
 -10  17  -6   32.69    7.10
  17  -7  -6   36.90   11.55
  17  -7  -6   30.17    8.22
 -10  17  -6   49.70   12.14
  -7 -10  -3   98.84    8.53
  17  -7  -3   91.66   13.92
  17  -7  -3  100.85   10.45
  17  -7  -3  104.22   13.86
  -7 -10  -3   96.18   12.91
 -10  17  -3  117.73   14.27
 -10  17  -3  113.76    8.43
  -7 -10   0   40.32    8.65
 -10  17   0   44.93    7.69
  -7 -10   0   47.04    9.27
  17  -7   0   31.19    7.29
  17  -7   0   15.44    8.85
  17  -7   0   47.55    9.63
  -7 -10   0   44.73    9.99
 -10  17   0   38.41   10.75
  17  -7   0   55.03   11.48
 -10  17   3   63.39   14.02
  17  -7   3   66.30   11.96
  17  -7   3   67.78   10.02
  17  -7   3   78.72    7.45
 -10  17   3   59.56    8.56
  -7 -10   3   76.13    6.00
  -7 -10   3   75.70   13.35
  17  -7   6   57.47    8.74
 -10  17   6   37.84    6.98
  -6 -11 -10    6.33   14.16
  17  -6 -10   22.34   20.51
 -11  17 -10   24.34   10.58
 -11  17 -10   23.12   15.65
 -11  17 -10   18.60   11.04
  17  -6 -10   19.22   12.55
  17  -6 -10    8.97   12.45
 -11  17 -10   41.83   14.02
 -11  17  -7  154.36   12.70
 -11  17  -7  164.16   16.67
  17  -6  -7  122.74   16.42
  17  -6  -7  119.33   17.24
  17  -6  -7  146.86   12.10
 -11  17  -7  124.92   16.46
  -6 -11  -7  164.05   20.06
 -11  17  -7  126.41   11.47
  -6 -11  -4   73.81    5.97
  17  -6  -4   81.57   13.38
  -6 -11  -4   53.90   11.40
  17  -6  -4   65.35   13.10
  17  -6  -4   79.03    9.24
 -11  17  -4   59.66   11.63
 -11  17  -4   82.89    7.13
  -6 -11  -1  626.52   26.34
  -6 -11  -1  672.56   23.69
 -11  17  -1  661.62   19.38
  17  -6  -1  616.75   27.57
  17  -6  -1  698.23   25.80
  17  -6  -1  668.80   24.71
  -6 -11  -1  659.16   27.69
  17  -6  -1  595.51   26.63
 -11  17  -1  696.27   29.01
  -6 -11  -1  599.34   27.33
  17  -6   2   14.98    8.65
 -11  17   2   14.15    7.11
  17  -6   2   -3.61    7.20
  17  -6   2    9.66    5.35
  -6 -11   2    4.45    8.39
  -6 -11   2    8.49    5.04
 -11  17   2   10.41    6.80
 -11  17   2    8.91    9.08
  17  -6   5  168.83   12.42
 -11  17   5  179.23   12.79
  17  -6   5  195.06   13.90
 -12  17 -11  144.63   24.28
  17  -5 -11   86.99   23.77
  17  -5 -11  111.99   19.15
  17  -5 -11  169.51   23.11
 -12  17 -11  147.16   21.85
  -5 -12 -11  130.86   22.90
 -12  17  -8  343.46   22.33
 -12  17  -8  362.63   19.49
  17  -5  -8  376.53   26.52
  17  -5  -8  364.46   26.29
 -12  17  -8  347.33   26.08
  -5 -12  -8  369.35   28.53
 -12  17  -5  735.28   17.41
  17  -5  -5  762.56   32.99
  17  -5  -5  773.22   33.33
  17  -5  -5  744.12   21.82
 -12  17  -5  733.28   32.19
  -5 -12  -5  738.22   33.63
  -5 -12  -2  297.99   14.99
 -12  17  -2  273.33   10.68
  17  -5  -2  295.30   20.33
  17  -5  -2  281.63   15.83
  17  -5  -2  266.69   20.10
 -12  17  -2  265.93   19.71
  -5 -12  -2  326.50   20.00
  -5 -12   1 1061.03   35.65
  17  -5   1 1015.41   32.92
 -12  17   1 1024.59   29.43
  17  -5   1 1013.26   27.09
  17  -5   1  949.30   33.23
 -12  17   1  997.39   31.51
 -12  17   1  970.12   36.13
  -5 -12   1 1017.55   28.69
  -5 -12   1  997.29   32.90
  17  -5   4  145.42   12.79
  17  -5   4  142.14   11.82
 -12  17   4  148.76   12.24
  -5 -12   4  144.41    8.28
 -12  17   4  146.52   18.00
 -12  17   7  316.30   16.61
 -13  17  -9   15.71   14.44
  -4 -13  -9   13.85   13.93
  17  -4  -9   39.00   13.54
 -13  17  -9   10.64    8.73
 -13  17  -9   17.16   10.22
  17  -4  -9    3.05   11.86
 -13  17  -9   18.54   12.86
  -4 -13  -6   58.41   14.91
  17  -4  -6   56.63   13.25
 -13  17  -6   53.22    5.77
 -13  17  -6   54.05    5.95
  17  -4  -6   65.02    7.13
  17  -4  -6   32.01   11.10
 -13  17  -6   50.27   13.53
  17  -4  -3  157.22   16.08
  17  -4  -3  164.48   11.65
  17  -4  -3  183.56   17.14
 -13  17  -3  176.72   16.86
  -4 -13  -3  175.19   16.91
 -13  17   0  136.14   10.26
  -4 -13   0  154.04   13.51
  17  -4   0  146.53   15.03
  17  -4   0  121.87   14.45
  -4 -13   0  167.91   15.48
 -13  17   0  163.51   16.32
  17  -4   0  140.92   12.05
  -4 -13   0  173.27   14.58
  17  -4   3   73.04   10.36
 -13  17   3   86.45   10.89
  -4 -13   3   84.14    8.37
  17  -4   3   97.05   10.30
  17  -4   3   83.66   12.75
 -13  17   3   93.72   14.52
  -4 -13   3  105.09   14.68
 -13  17   6   77.28   17.37
  17  -4   6   65.47   11.34
 -13  17   6   76.85   10.56
  -3 -14 -10   38.01   16.09
 -14  17 -10   18.34   16.19
  17  -3 -10   11.63   13.28
  17  -3 -10   19.25   14.19
 -14  17 -10  -11.79   13.97
  17  -3  -7   -5.64   10.63
 -14  17  -7   -0.78    4.18
  17  -3  -7    0.41    2.69
  17  -3  -7    8.19   10.94
 -14  17  -7    4.07   11.22
  -3 -14  -7   -3.14   12.75
  17  -3  -4   63.71   13.35
  17  -3  -4   58.22    7.02
  17  -3  -4   49.49   12.35
 -14  17  -4   53.77   11.51
  -3 -14  -4   60.54   13.61
  17  -3  -1  229.39   16.21
  17  -3  -1  282.91   19.99
  -3 -14  -1  223.22   18.09
  17  -3  -1  235.19   18.06
 -14  17  -1  231.59   19.16
  -3 -14   2   38.52   10.78
  17  -3   2   16.10    8.28
  17  -3   2   34.08    8.02
  -3 -14   2   24.97    7.07
 -14  17   2   27.05    8.37
 -14  17   2   18.95    9.82
  17  -3   2   14.94    8.58
 -14  17   5   14.90   13.02
  17  -3   5   -0.69    6.41
 -14  17   5    0.61    7.53
  -3 -14   5    2.94    4.80
  17  -3   5    9.75    7.78
  -2 -15 -11  123.21   23.99
 -15  17 -11  128.94   23.82
  17  -2 -11  115.24   19.61
 -15  17 -11  126.96   22.89
  17  -2  -8  477.29   29.71
 -15  17  -8  347.29   14.59
  17  -2  -8  449.47   31.19
 -15  17  -8  415.24   29.32
  -2 -15  -8  431.28   32.02
  17  -2  -5  557.59   29.65
  17  -2  -5  560.75   30.57
 -15  17  -5  554.73   29.82
  -2 -15  -5  541.48   30.70
  -2 -15  -2  639.39   28.73
  17  -2  -2  650.23   29.37
  17  -2  -2  704.97   30.10
 -15  17  -2  672.56   30.31
  17  -2   1  771.10   29.31
  17  -2   1  723.14   25.70
  17  -2   1  737.26   29.28
  -2 -15   1  692.62   25.80
 -15  17   1  743.05   31.43
  -2 -15   1  744.53   30.39
 -15  17   4   20.80   12.49
  17  -2   4    7.56    8.97
  17  -2   4   26.92    8.54
  -2 -15   4   29.10    7.43
  17  -2   4   19.08    7.82
  -1 -16  -9   51.11   16.52
 -16  17  -9   22.23    9.74
  17  -1  -9   38.97   14.60
  17  -1  -9   13.04   13.54
 -16  17  -9   13.07   13.24
  17  -1  -6   25.46   12.68
  17  -1  -6   52.99   13.07
  -1 -16  -6   52.54   14.42
 -16  17  -6   49.65   14.28
  -1 -16  -3  243.78   19.34
  17  -1  -3  222.25   19.31
  17  -1  -3  231.03   19.76
 -16  17  -3  241.39   19.97
  -1 -16   0   89.14   13.42
  17  -1   0   93.92   13.14
  17  -1   0   89.44   13.16
 -16  17   0   88.76   13.97
  -1 -16   3   53.82   12.19
  17  -1   3   68.88   10.64
  -1 -16   3   70.69    9.50
  17  -1   3   73.33   10.71
  17  -1   3   82.51   13.33
 -16  17   3   77.46   14.56
 -16  17   6   30.25   15.46
  17  -1   6   12.44    6.40
  -1 -16   6    9.69    6.44
   0 -17 -10   61.98   20.35
  17   0 -10   47.78   16.19
  17   0 -10   51.62   17.77
 -17  17 -10   50.74   16.50
   0 -17  -7   20.83   12.65
  17   0  -7    8.48   12.57
  17   0  -7   23.53   13.28
 -17  17  -7   12.67   11.90
   0 -17  -4  -11.06   10.40
  17   0  -4    8.13   10.06
  17   0  -4   11.55   11.09
 -17  17  -4   19.22   10.67
  17   0  -1    7.67    9.00
  17   0  -1    6.50    9.04
 -17  17  -1    1.09    8.28
   0 -17  -1   11.07    8.50
   0 -17   2   98.79   13.69
  17   0   2   94.58   12.63
   0 -17   2   85.57   11.01
  17   0   2  104.75   13.43
 -17  17   2  120.07   15.09
 -17  17   5    3.81   11.60
  17   0   5    5.55    6.34
   0 -17   5    3.30    6.80
   1 -18 -11   22.37   18.77
 -18  17 -11   57.81   19.21
  17   1 -11   22.27   16.84
  17   1 -11   83.89   20.79
 -18  17 -11   40.45   18.41
  17   1  -8  160.64   21.82
  17   1  -8  139.60   20.45
 -18  17  -8  140.64   21.13
   1 -18  -8  142.20   21.61
  17   1  -5  356.69   25.59
  17   1  -5  393.93   27.03
 -18  17  -5  381.53   27.20
   1 -18  -5  409.98   27.58
   1 -18  -2  420.63   24.70
  17   1  -2  429.24   25.92
  17   1  -2  424.03   24.93
 -18  17  -2  406.16   25.68
  17   1   1  533.06   25.86
  17   1   1  468.58   24.45
 -18  17   1  452.29   26.22
   1 -18   1  506.73   26.02
  17   1   4  176.92   14.72
   1 -18   4  171.32   14.92
  17   1   4  195.09   17.59
 -18  17   4  214.95   21.28
 -18  17   7  797.21   41.95
  17   1   7  811.69   22.63
   2 -19  -9   93.41   20.44
  17   2  -9  108.83   18.81
  17   2  -9   70.78   18.89
 -19  17  -9  110.57   20.90
   2 -19  -6   48.58   14.23
  17   2  -6   48.14   14.54
 -19  17  -6   80.95   16.66
  17   2  -6   59.71   14.74
   2 -19  -3  162.08   17.59
  17   2  -3  150.37   17.67
  17   2  -3  141.21   17.25
 -19  17  -3  140.36   16.85
   2 -19   0    6.86    9.30
  17   2   0    1.48    9.23
  17   2   0   12.56    9.33
 -19  17   0   -4.65    9.34
  17   2   3  326.65   20.13
  17   2   3  312.99   20.53
   2 -19   3  271.93   20.88
 -19  17   3  271.64   22.30
 -19  17   6   30.31   13.72
  17   2   6   16.37    7.67
   3 -20 -10   60.61   21.36
  17   3 -10   28.75   15.57
  17   3 -10   23.01   16.73
 -20  17 -10   23.04   16.56
   3 -20  -7   44.33   15.15
  17   3  -7    5.69   11.80
  17   3  -7   24.48   13.99
 -20  17  -7   13.93   14.13
   3 -20  -4   52.33   13.35
  17   3  -4   72.41   14.17
  17   3  -4   59.34   14.10
 -20  17  -4   80.94   14.74
  17   3  -1   97.72   15.08
  17   3  -1   76.87   13.04
 -20  17  -1   71.84   13.41
   3 -20  -1   63.90   11.84
  17   3   2   52.60   10.67
   3 -20   2   37.56   11.03
  17   3   2   61.78   11.22
 -20  17   2   49.06   11.90
 -20  17   5   13.74   12.70
  17   3   5   20.34   10.58
  17   3   5   30.61    9.08
  17   4  -8  225.21   24.67
  17   4  -8  243.94   25.76
 -21  17  -8  259.93   28.36
   4 -21  -8  229.78   27.10
  17   4  -5  267.66   23.92
  17   4  -5  295.11   25.67
 -21  17  -5  239.57   23.44
   4 -21  -5  237.06   23.41
  17   4  -2  185.36   19.69
  17   4  -2  232.70   20.35
 -21  17  -2  198.46   19.10
   4 -21  -2  175.40   17.97
  17   4   1  621.15   29.40
  17   4   1  600.32   27.60
 -21  17   1  524.29   28.33
   4 -21   1  600.51   28.04
  17   4   4  235.67   17.24
   4 -21   4  162.90   17.70
  17   4   4  191.24   17.38
 -21  17   4  213.18   21.36
  17   4   7  350.82   16.79
 -21  17   7  346.68   29.62
   5 -22  -9   70.90   18.79
  17   5  -9   78.60   19.13
  17   5  -9   27.28   17.79
 -22  17  -9  122.07   25.01
  17   5  -6  144.41   20.13
  17   5  -6  177.52   22.04
 -22  17  -6  186.78   23.80
   5 -22  -6  149.42   20.65
   5 -22  -3   91.70   14.76
  17   5  -3  106.26   16.76
  17   5  -3   80.37   15.92
 -22  17  -3  105.66   16.99
   5 -22   0   58.27   11.93
  17   5   0   49.97   11.34
  17   5   0   57.17   12.73
 -22  17   0   52.84   13.43
  17   5   3  160.64   15.67
   5 -22   3  194.89   18.59
  17   5   3  184.78   16.73
 -22  17   3  162.92   18.46
 -22  17   6    8.64   13.19
  17   5   6    2.00    7.00
   6 -23 -10   15.04   20.98
  17   6 -10   36.34   18.65
  17   6 -10   40.68   18.63
 -23  17 -10   11.08   18.51
   6 -23  -7   14.53   15.24
  17   6  -7   49.03   15.87
  17   6  -7   44.51   16.56
 -23  17  -7   33.83   15.65
  17   6  -4   58.38   14.77
  17   6  -4   27.31   11.38
 -23  17  -4   75.67   16.03
   6 -23  -4   84.42   15.75
  17   6  -1    9.73   10.60
  17   6  -1    0.25   10.73
 -23  17  -1   21.96   12.50
   6 -23  -1   14.77    9.74
  17   6   2   11.50    9.53
   6 -23   2   11.73    9.53
  17   6   2   13.36   10.25
 -23  17   2    9.89    9.94
  17   6   5   61.03   11.88
  17   6   5   49.11   10.25
 -23  17   5   34.74   12.43
  17   7  -8  197.25   25.66
  17   7  -8  147.59   23.45
 -24  17  -8  157.01   24.36
   7 -24  -8  155.60   24.99
  17   7  -5  261.25   24.93
  17   7  -5  264.15   25.73
 -24  17  -5  312.56   27.99
   7 -24  -5  237.54   23.75
   7 -24  -2  137.16   16.89
  17   7  -2  161.99   19.50
  17   7  -2  151.66   18.66
 -24  17  -2   91.99   16.66
  17   7   1  168.16   18.34
  17   7   1  171.07   17.30
 -24  17   1  123.08   16.82
   7 -24   1  150.49   16.28
   7 -24   4   40.01   12.70
  17   7   4   21.92    9.45
 -24  17   4   46.52   13.85
  17   7   4   30.23   10.75
 -24  17   7   90.04   19.81
  17   7   7   76.27   10.35
   8 -25  -9   67.36   21.35
  17   8  -9   91.99   20.87
  17   8  -9   44.29   17.91
 -25  17  -9   76.99   22.60
  17   8  -6   84.86   18.08
  17   8  -6   97.11   19.91
 -25  17  -6   48.33   16.93
   8 -25  -6  121.36   21.21
   8 -25  -3  250.58   22.77
  17   8  -3  251.66   24.88
  17   8  -3  262.69   23.89
 -25  17  -3  269.98   24.97
  17   8   0  126.24   17.48
   8 -25   0  137.94   15.96
  17   8   0  103.08   15.03
 -25  17   0  141.55   18.28
  17   8   3  155.85   16.63
   8 -25   3  144.48   16.68
 -25  17   3  163.44   20.42
  17   8   3  158.36   16.43
 -25  17   6    5.54   13.69
  17   8   6   22.92    9.44
  17   9  -7   57.21   19.16
 -26  17  -7   20.33   15.46
   9 -26  -7   36.15   15.77
   9 -26  -4   24.52   13.49
  17   9  -4   28.95   14.20
 -26  17  -4   28.89   14.28
  17   9  -4   34.05   14.43
  17   9  -1    0.20   11.87
  17   9  -1   23.13   11.93
 -26  17  -1    6.08   11.61
   9 -26  -1   -1.19    9.23
  17   9   2   82.69   14.77
   9 -26   2   47.80   12.30
  17   9   2   33.88   10.99
 -26  17   2   92.34   15.93
  17   9   5   80.09   13.35
  17   9   5   80.34   13.75
 -26  17   5   97.90   18.28
 -26  17   8  -27.98   16.76
  10 -27  -8   33.43   17.61
  17  10  -8    7.91   15.77
  17  10  -8   38.50   19.09
 -27  17  -8  -13.34   17.69
  10 -27  -5   32.82   15.17
  17  10  -5   41.01   16.45
  17  10  -5   24.09   14.17
 -27  17  -5   32.42   15.11
  17  10  -2   55.03   15.02
  17  10  -2   81.51   16.41
  10 -27  -2   53.45   12.78
 -27  17  -2   39.60   13.27
  17  10   1  120.12   17.66
  17  10   1   97.88   14.68
 -27  17   1  126.30   18.15
  10 -27   1   73.22   13.68
  17  10   4   -6.96   10.55
  17  10   4    1.06    9.30
 -27  17   4   14.36   12.07
 -27  17   7   14.74   14.28
  11 -28  -6   24.56   16.37
  17  11  -6   49.48   17.70
  17  11  -6   28.25   19.14
 -28  17  -6   16.39   16.85
  11 -28  -3  239.25   23.55
  17  11  -3  267.45   26.57
  17  11  -3  261.73   25.24
 -28  17  -3  274.71   27.80
  17  11   0  135.55   19.69
  17  11   0  147.73   18.54
  11 -28   0  136.65   16.61
 -28  17   0   98.83   16.96
  17  11   3  213.01   20.58
  17  11   3  167.50   17.31
  11 -28   3  182.53   19.00
 -28  17   3  177.76   21.54
 -28  17   6   22.60   15.01
  17  11   6   34.87   11.47
  12 -29  -7   11.04   15.84
  17  12  -7  -17.56   15.40
  17  12  -7  -11.89   15.70
 -29  17  -7   -0.18   17.41
  17  12  -4   49.15   16.26
  12 -29  -4   10.48   13.23
  17  12  -4   16.98   14.77
 -29  17  -4   47.02   15.97
  17  12  -1  129.04   19.58
  17  12  -1   90.22   17.16
 -29  17  -1   83.90   16.32
  12 -29  -1   76.97   13.86
  17  12   2   55.78   14.79
  12 -29   2   47.89   12.12
  17  12   2   21.85   11.09
 -29  17   2   43.32   14.46
 -29  17   5    4.02   13.02
  17  12   5   29.93   11.98
  13 -30  -5    5.16   13.09
  17  13  -5   29.00   16.48
  17  13  -5   12.36   16.86
 -30  17  -5   20.65   15.62
  17  13  -2   -2.66   13.29
  17  13  -2   -6.69   11.96
  13 -30  -2   13.66   12.31
 -30  17  -2   18.39   13.11
  17  13   1   41.25   14.42
  13 -30   1   -2.11   10.08
  17  13   1   15.18   10.53
 -30  17   1   16.71   12.06
  17  13   4   17.14   11.95
  17  13   4   10.57   10.01
 -30  17   4   26.22   13.27
  14 -31  -6   68.99   20.41
  17  14  -6   85.65   21.94
  17  14  -6   96.59   22.41
 -31  17  -6   69.97   21.62
  14 -31  -3  143.41   19.31
  17  14  -3  229.84   26.43
  17  14  -3  197.31   24.21
 -31  17  -3  223.00   25.92
  17  14   0  138.86   20.51
  17  14   0   97.94   17.34
  14 -31   0   94.19   15.42
 -31  17   0   78.57   17.78
  17  14   3  299.23   26.36
  17  14   3  303.06   23.24
 -31  17   3  248.26   25.30
  14 -31   3  264.58   21.56
 -31  17   6   44.30   17.61
  17  14   6   21.98   11.98
  17  15  -4  -16.82   14.92
  15 -32  -4   17.93   13.75
  17  15  -4    5.11   14.86
 -32  17  -4   18.35   16.87
  17  15  -1   16.24   15.90
  17  15  -1   11.99   13.39
 -32  17  -1    3.90   13.15
  15 -32  -1    5.11   11.14
  17  15   2   19.31   13.32
  17  15   2   20.44   12.30
  15 -32   2   32.46   12.49
 -32  17   2   21.02   12.79
  17  15   5   19.90   13.05
 -32  17   5   15.34   15.10
  16 -33  -5    5.72   14.72
  17  16  -5   12.54   16.51
 -33  17  -5  -17.58   17.14
  17  16  -5   11.20   16.32
  17  16  -2    7.26   16.11
  17  16  -2    8.11   13.48
  16 -33  -2   36.36   13.92
 -33  17  -2   27.22   15.44
  17  16   1   11.64   14.73
  17  16   1    0.34   11.11
  16 -33   1   18.96   12.09
 -33  17   1   16.51   13.60
  17  16   4    2.88   12.58
 -33  17   4  -15.38   14.61
  17 -34  -3  123.67   20.07
  17  17  -3  158.79   26.11
  17  17  -3  135.40   23.19
 -34  17  -3  135.57   23.75
  17  17   0  112.53   22.15
  17  17   0  106.96   19.02
 -34  17   0   95.27   18.94
  17  17   3  157.43   22.20
  17  17   3  141.62   18.71
 -34  17   3  172.61   22.69
  17  18  -4   -9.28   16.12
  18 -35  -4   18.36   15.01
  17  18  -4   13.76   17.09
 -35  17  -4  -13.20   17.77
  18 -35  -1    5.92   11.15
  17  18  -1   15.87   16.22
  17  18  -1    8.34   14.67
 -35  17  -1    9.44   15.68
  17  18   2   -6.09   14.93
  17  18   2   13.46   11.73
 -35  17   2   11.10   14.13
  18 -34  -5   -1.01   14.54
  16  18  -5   -5.56   17.66
  16  18  -5   24.42   17.47
 -34  16  -5  -13.36   17.42
  16  18  -2   31.83   17.75
  16  18  -2   59.51   18.38
  18 -34  -2   23.11   13.33
 -34  16  -2   49.45   17.86
  16  18   1    1.30   13.90
  16  18   1   -5.49   11.63
 -34  16   1   15.25   14.01
  18 -34   1   11.94   11.21
  16  18   4   70.74   18.09
 -34  16   4   21.48   15.02
  18 -33  -6   13.62   15.61
  15  18  -6   21.17   17.60
  15  18  -6   12.79   17.16
 -33  15  -6   36.89   19.92
  18 -33  -3  141.13   19.93
  15  18  -3  211.54   26.94
  15  18  -3  163.24   23.83
 -33  15  -3  190.01   25.87
  18 -33   0   35.87   11.88
  15  18   0   65.86   18.72
  15  18   0   84.31   17.12
 -33  15   0   46.95   15.76
  15  18   3   66.52   16.83
  15  18   3   79.79   14.67
 -33  15   3   53.14   15.24
  14  18  -4    8.31   16.16
  18 -32  -4   15.01   13.07
  14  18  -4   17.96   14.81
 -32  14  -4    8.94   15.29
  14  18  -1    8.34   12.66
 -32  14  -1    2.28   12.66
  18 -32  -1   24.41   11.40
  14  18  -1   -0.24   14.41
  14  18   2    7.70   12.41
  14  18   2   18.72   11.27
 -32  14   2   15.26   12.53
  18 -32   2   20.47   10.32
  14  18   5   22.27   12.89
 -32  14   5   20.92   13.08
  18 -31  -5  -23.56   14.98
  13  18  -5    8.85   14.60
  13  18  -5   10.87   15.68
 -31  13  -5   31.38   17.02
  18 -31  -2   78.68   14.93
  13  18  -2   97.11   18.01
 -31  13  -2   71.70   17.42
  13  18  -2   62.41   18.15
  18 -31   1   46.06   11.27
  13  18   1   30.78   12.13
 -31  13   1   62.99   15.29
  13  18   4   57.83   15.76
 -31  13   4   42.95   14.09
  18 -30  -6   62.25   19.12
  12  18  -6   38.62   17.76
  12  18  -6   23.47   16.82
 -30  12  -6   22.14   17.68
  12  18  -3  213.26   26.57
  12  18  -3  228.52   25.09
 -30  12  -3  212.73   24.70
  18 -30  -3  148.22   19.09
  12  18   0   88.00   15.78
 -30  12   0   91.75   17.03
  12  18   0   57.04   16.42
  18 -30   0   58.07   11.68
  12  18   3  176.40   16.48
 -30  12   3  144.16   18.49
  12  18   6   69.20   14.11
  11  18  -7   60.41   19.81
  11  18  -7   -2.08   16.67
 -29  11  -7   25.23   17.96
  18 -29  -7    6.62   16.58
  18 -29  -4   36.07   14.73
  11  18  -4   37.08   16.60
  11  18  -4   58.90   17.71
 -29  11  -4   38.44   16.34
  11  18  -1   26.80   15.47
  11  18  -1   17.84   12.20
  18 -29  -1   13.92    8.84
 -29  11  -1   22.46   13.02
  11  18   2   27.46   13.85
  18 -29   2    4.08    7.67
  11  18   2   26.55   10.90
 -29  11   2    9.28   11.19
  11  18   5    3.00   10.52
 -29  11   5    6.20   11.57
  10  18  -8   16.20   17.02
  10  18  -8    6.75   16.14
 -28  10  -8   27.41   19.05
  18 -28  -8   27.63   18.38
  10  18  -5   56.63   17.64
  10  18  -5   86.75   18.78
 -28  10  -5   98.90   20.32
  18 -28  -5   79.14   17.16
  10  18  -2   14.19   13.18
  18 -28  -2   12.50   10.66
  10  18  -2    0.91   11.57
 -28  10  -2   16.84   13.58
  10  18   1  147.77   19.30
  18 -28   1  118.44   12.79
  10  18   1  113.03   14.85
 -28  10   1  113.90   15.97
  10  18   4    7.99    7.60
 -28  10   4   16.15   10.03
  10  18   4   35.32   12.44
   9  18  -6   10.00   14.43
   9  18  -6   26.05   17.05
 -27   9  -6   30.63   16.81
  18 -27  -6   15.32   15.59
  18 -27  -3   78.69   13.97
   9  18  -3   78.56   16.58
 -27   9  -3   84.50   17.52
   9  18  -3   79.38   16.69
   9  18   0   89.93   17.15
  18 -27   0   87.39   11.36
   9  18   0  112.30   15.25
 -27   9   0  106.67   15.04
   9  18   3  215.18   21.44
   9  18   3  187.62   15.22
 -27   9   3  157.08   15.97
   9  18   6  149.30   16.99
   8  18  -7   48.34   17.08
   8  18  -7   93.77   21.29
 -26   8  -7  123.91   22.82
  18 -26  -7   65.82   19.38
   8  18  -4   43.85   15.95
   8  18  -4   22.83   15.10
 -26   8  -4   25.15    9.79
 -26   8  -4   33.76   14.97
  18 -26  -4    1.94   10.92
   8  18  -1   97.17   17.72
   8  18  -1   91.35   15.22
 -26   8  -1   63.52   15.40
  18 -26  -1   75.84   11.76
   8  18   2   74.28   15.15
  18 -26   2   84.42    8.86
   8  18   2   91.03   12.06
 -26   8   2   81.66   13.21
   8  18   5   56.91   12.96
 -26   8   5   51.91   12.08
   7  18  -8   25.41   16.37
   7  18  -8   11.90   17.19
 -25   7  -8   59.67   21.00
  18 -25  -8   10.52   15.96
   7  18  -5  229.66   24.97
   7  18  -5  203.29   24.20
 -25   7  -5  169.74   16.18
 -25   7  -5  152.12   22.46
  18 -25  -5  226.71   23.10
  18 -25  -2   15.18    9.16
   7  18  -2   17.11   13.62
   7  18  -2   25.72   12.24
 -25   7  -2   16.11   12.56
   7  18   1  112.55   16.68
   7  18   1   96.71   13.16
  18 -25   1   91.77    9.86
 -25   7   1   82.59   12.87
   7  18   4   28.37   11.34
   7  18   4   24.28    6.58
 -25   7   4   13.42    7.84
   7  18   7   41.00   10.72
   6  18  -9   73.45   20.03
   6  18  -9  124.51   24.91
  18 -24  -9   45.04   20.47
 -24   6  -9  116.03   25.84
 -24   6  -6   97.83   13.15
   6  18  -6  138.11   21.15
   6  18  -6  138.94   22.02
 -24   6  -6  106.09   20.48
  18 -24  -6  120.09   19.38
 -24   6  -3  187.85   17.49
   6  18  -3  242.27   22.85
 -24   6  -3  204.30   21.59
  18 -24  -3  193.31   18.44
   6  18  -3  189.34   21.29
  18 -24   0  128.74   11.65
   6  18   0  152.06   18.38
   6  18   0  143.97   15.69
 -24   6   0  143.64   16.03
   6  18   3  146.11   17.32
   6  18   3  162.24   12.68
 -24   6   3  154.61   14.23
   6  18   6  148.70   15.56
 -24   6   6   96.21   10.47
   5  18 -10   12.81   15.99
   5  18 -10   -4.96   15.84
 -23   5 -10   41.78   22.10
  18 -23 -10   -2.94   17.21
   5  18  -7  192.70   23.73
   5  18  -7  190.99   24.67
  18 -23  -7  166.10   23.78
 -23   5  -7  227.63   27.89
 -23   5  -7  159.09   16.85
 -23   5  -4   -5.52    8.88
   5  18  -4    2.71   11.73
   5  18  -4   19.86   13.98
 -23   5  -4   17.37   14.07
  18 -23  -4    8.55   10.70
   5  18  -1  335.60   25.47
 -23   5  -1  313.41   22.98
   5  18  -1  341.77   22.95
  18 -23  -1  344.71   18.84
   5  18   2  204.56   19.59
  18 -23   2  153.46    8.02
   5  18   2  209.75   14.90
 -23   5   2  194.74   15.25
   5  18   5  246.64   19.28
 -23   5   5  173.90   13.08
 -22   4  -8   25.70   10.98
   4  18  -8   16.88   14.99
   4  18  -8   14.90   15.40
 -22   4  -8   -6.93   14.82
  18 -22  -8   27.37   16.18
 -22   4  -5   65.75   17.53
   4  18  -5   42.11   14.65
   4  18  -5   38.64   15.30
  18 -22  -5   73.43   15.55
 -22   4  -5   66.31   13.03
  18 -22  -2   83.82   12.01
   4  18  -2   81.73   15.57
 -22   4  -2   79.55   13.84
   4  18  -2   99.89   16.22
 -22   4  -2   68.48   14.13
  18 -22   1   56.14    6.65
   4  18   1   55.65   10.80
 -22   4   1   72.59   11.30
   4  18   1   59.47   12.90
   4  18   4   23.39    5.36
 -22   4   4   10.87    6.76
   4  18   4   21.26   10.58
   4  18   7   47.25   10.50
 -21   3  -9   33.41   19.35
  18 -21  -9   -0.54   15.52
   3  18  -9   49.53   16.12
 -21   3  -9   12.66   11.69
   3  18  -9   21.84   15.29
   3  18  -6  216.46   22.18
  18 -21  -6  272.84   25.97
 -21   3  -6  266.54   27.01
 -21   3  -6  255.72   19.68
   3  18  -6  279.30   26.36
  18 -21  -6  220.48   19.40
   3  18  -6  200.61   14.08
   3  18  -3   73.11   12.54
   3  18  -3   75.00   15.36
   3  18  -3   66.40   14.21
 -21   3  -3   97.42   13.23
  18 -21  -3   87.01   13.31
 -21   3  -3   86.92   16.77
   3  18   0  102.61   15.60
   3  18   0  110.33   13.39
 -21   3   0  109.95   13.04
  18 -21   0   82.40    8.69
   3  18   3   28.06    6.22
   3  18   3   17.05    9.78
 -21   3   3   27.62    7.43
   3  18   6   75.88   11.79
   2  18 -10   10.72   14.71
   2  18 -10   29.96   18.54
  18 -20 -10   23.76   17.86
 -20   2 -10   -4.82   19.15
 -20   2 -10   23.17   13.88
   2  18  -7  654.49   36.55
   2  18  -7  600.99   37.85
 -20   2  -7  627.13   40.73
 -20   2  -7  592.28   29.40
  18 -20  -7  662.45   38.94
  18 -20  -7  539.36   28.32
   2  18  -7  475.56   20.38
   2  18  -4   56.54   10.46
  18 -20  -4   42.38   11.45
  18 -20  -4   74.17   13.86
 -20   2  -4   69.52   16.06
   2  18  -4   66.22   15.15
 -20   2  -4   59.67   12.04
   2  18  -4   72.30   14.00
   2  18  -1 1098.19   39.60
   2  18  -1 1110.37   40.19
 -20   2  -1 1132.98   38.42
  18 -20  -1 1086.79   29.53
 -20   2  -1 1065.79   37.79
   2  18  -1 1066.63   36.99
   2  18   2  249.74   14.98
 -20   2   2  232.48   14.31
   2  18   2  264.78   20.52
   2  18   5  308.35   19.99
 -20   2   5  171.14    7.80
   1  18  -8   10.73   12.59
   1  18  -8   10.89   13.88
  18 -19  -8   -7.59   15.43
 -19   1  -8   -9.04   15.19
 -19   1  -8   10.81   10.94
  18 -19  -8   23.69   11.63
  18 -19  -5   53.62   12.34
   1  18  -5   61.18   14.33
 -19   1  -5   20.27    9.87
  18 -19  -5   19.81   11.96
 -19   1  -5   34.42   14.04
   1  18  -5   47.90   14.02
   1  18  -5   38.39    9.80
 -19   1  -2    4.67    8.99
   1  18  -2    0.99    8.99
   1  18  -2    7.86   10.36
   1  18  -2    7.58    9.54
 -19   1  -2   -0.84    8.71
  18 -19  -2   -2.69    7.57
   1  18   1   35.15   10.89
   1  18   1   36.02    8.44
 -19   1   1   51.56    9.26
  18 -19   1   38.93    4.73
   1  18   4   -0.07    8.47
   1  18   4    3.59    3.28
 -19   1   4   -1.02    4.01
   1  18   7    9.52    8.31
   0  18  -9    1.05   13.12
   0  18  -9  -10.12   15.75
  18 -18  -9  -15.56   16.75
 -18   0  -9  -11.69   15.85
 -18   0  -9   10.73   11.40
  18 -18  -9    6.48   10.86
 -18   0  -6   75.51   11.06
   0  18  -6   59.13   14.70
  18 -18  -6   49.54   14.06
 -18   0  -6   90.17   19.87
   0  18  -6  100.68   16.32
   0  18  -6   69.65   11.16
 -18   0  -6   70.84   12.89
  18 -18  -6   51.31   12.75
   0  18  -3   -0.90    8.06
  18 -18  -3   -1.38   10.35
   0  18  -3    1.07    9.78
   0  18  -3    2.63   10.29
  18 -18  -3    5.91    8.61
 -18   0  -3   18.74   11.73
 -18   0  -3   -0.89    8.18
   0  18   0  117.97   16.33
   0  18   0  123.74   15.22
   0  18   0  165.75   14.85
 -18   0   0  124.97   15.67
  18 -18   0  139.67    9.52
 -18   0   0  127.50   13.04
   0  18   3   17.08   10.36
   0  18   3    6.23    5.12
 -18   0   3    4.64    4.38
   0  18   6  153.72   14.27
  -1  18 -10   50.36   20.69
  18 -17 -10   60.38   21.95
 -17  -1 -10   42.63   15.40
 -17  -1 -10   39.37   20.78
  -1  18 -10    8.76   13.77
  -1  18  -7  911.99   40.70
  18 -17  -7  953.16   45.50
 -17  -1  -7  878.09   36.41
  -1  18  -7  915.47   44.53
 -17  -1  -7  988.23   48.45
  18 -17  -7  790.96   34.08
  -1  18  -7  782.76   29.22
  -1  18  -4  157.70   18.56
 -17  -1  -4  166.02   20.05
 -17  -1  -4  202.94   17.13
  -1  18  -4  183.92   20.56
  18 -17  -4  153.18   17.42
  -1  18  -4  185.67   16.54
  18 -17  -4  155.27   17.32
  -1  18  -1  357.27   23.26
  -1  18  -1  466.44   24.89
  18 -17  -1  408.63   18.27
 -17  -1  -1  406.60   23.91
 -17  -1  -1  471.00   24.32
  -1  18  -1  427.58   25.03
  -1  18   2  500.14   25.72
  -1  18   2  447.12   18.75
 -17  -1   2  466.58   17.43
  -1  18   5  394.19   21.86
  -1  18   8  141.74   12.52
  -2  18 -11    6.28   13.06
  -2  18 -11   -5.71   16.33
 -16  -2 -11    7.72   12.90
  18 -16 -11    2.09   18.80
 -16  -2 -11   18.20   19.81
  -2  18  -8   62.96   15.43
 -16  -2  -8   97.78   15.47
  -2  18  -8   94.84   19.46
  18 -16  -8   74.42   19.60
 -16  -2  -8   77.11   20.03
  18 -16  -8   83.44   15.20
  -2  18  -8   75.97   12.57
  -2  18  -5   77.93   15.19
 -16  -2  -5   80.53   11.12
  -2  18  -5  104.83   17.02
 -16  -2  -5   95.27   13.42
  18 -16  -5   94.89   15.48
 -16  -2  -5   93.46   16.33
  -2  18  -5  102.88   13.35
  18 -16  -5   89.85   15.70
  18 -16  -5   76.71   12.89
 -16  -2  -2  270.07   19.05
  -2  18  -2  250.28   20.19
  -2  18  -2  252.12   20.06
  18 -16  -2  259.12   20.96
 -16  -2  -2  258.58   20.13
  18 -16  -2  200.82   18.65
  -2  18  -2  255.09   19.55
  18 -16  -2  233.01   16.99
  -2  18   1   48.16   11.59
  -2  18   1   82.22   10.99
 -16  -2   1   92.66   10.35
  18 -16   1   71.81    5.06
 -16  -2   1   86.83   14.79
  18 -16   1   63.56    5.35
  -2  18   1   91.00   15.21
  -2  18   4   42.65    4.23
  -2  18   4   39.41    4.39
  -2  18   7   -0.80    7.48
  -3  18  -9   35.54   13.20
  18 -15  -9   38.10   16.80
 -15  -3  -9   47.03   13.93
  18 -15  -9   75.08   15.63
 -15  -3  -9   68.46   20.23
  -3  18  -9   22.06    9.63
  18 -15  -9   39.70   12.74
  -3  18  -9   38.31   16.42
 -15  -3  -6   33.32    8.34
  -3  18  -6   35.55   12.82
  -3  18  -6   14.03   13.50
  18 -15  -6   30.17   12.92
 -15  -3  -6   23.42    9.14
 -15  -3  -6   17.27   10.07
  -3  18  -6   17.75    8.79
  18 -15  -6   15.72   11.03
  18 -15  -6    6.39   12.35
 -15  -3  -3  197.82   16.19
  -3  18  -3  241.13   20.48
  -3  18  -3  236.42   20.16
  18 -15  -3  239.08   19.27
  18 -15  -3  216.67   19.46
 -15  -3  -3  255.61   18.63
  18 -15  -3  224.99   19.69
  -3  18  -3  240.01   18.36
  18 -15   0  173.36   16.89
  -3  18   0  163.12   15.96
  -3  18   0  202.28   15.78
  18 -15   0  180.47   10.85
 -15  -3   0  218.68   15.52
 -15  -3   0  179.36   16.70
  -3  18   0  173.13   18.38
  -3  18   3  189.63   20.60
  -3  18   3  198.17   11.11
 -15  -3   3  151.46    7.24
  -4  18 -10   22.47   17.88
  -4  18 -10   21.67   13.43
 -14  -4 -10   56.29   16.10
  18 -14 -10   33.84   19.19
  18 -14 -10    5.74   12.41
 -14  -4 -10   14.78   18.85
  18 -14 -10   20.13   12.71
  -4  18  -7  481.03   28.80
  -4  18  -7  587.63   35.36
  18 -14  -7  518.96   34.45
 -14  -4  -7  538.05   29.17
  18 -14  -7  477.84   27.51
  -4  18  -7  435.23   24.09
  18 -14  -7  511.71   29.57
  -4  18  -4  425.30   25.74
  -4  18  -4  421.45   27.11
 -14  -4  -4  345.47   19.05
 -14  -4  -4  395.92   22.81
 -14  -4  -4  335.77   18.71
  18 -14  -4  397.75   25.02
  18 -14  -4  338.82   22.27
  -4  18  -4  384.60   22.01
  18 -14  -4  394.52   25.34
  -4  18  -1  694.23   28.86
 -14  -4  -1  669.04   28.60
  18 -14  -1  661.59   30.53
  18 -14  -1  668.41   23.67
  -4  18  -1  571.87   25.00
  18 -14  -1  668.87   29.97
  -4  18  -1  627.42   29.56
  -4  18   2  478.85   19.43
 -14  -4   2  500.22   16.18
  -4  18   2  456.98   28.98
  -4  18   8  268.13   17.34
  -5  18 -11   16.10   14.08
  -5  18 -11   11.52   12.80
  -5  18 -11   30.00   16.77
 -13  -5 -11   54.89   17.70
  18 -13 -11   44.44   20.77
 -13  -5 -11   47.21   20.87
  18 -13 -11   18.38   14.06
  -5  18  -8  283.23   27.55
  18 -13  -8  292.53   29.73
  18 -13  -8  253.53   22.96
  18 -13  -8  254.63   21.53
  -5  18  -8  211.34   18.29
  -5  18  -8  306.84   23.62
 -13  -5  -8  244.54   22.43
  -5  18  -5   30.12   11.73
 -13  -5  -5   19.70    7.55
  -5  18  -5   22.14   12.80
  18 -13  -5   16.11   10.21
  18 -13  -5   23.71   10.91
 -13  -5  -5   20.38    7.60
 -13  -5  -5   17.95   10.28
  -5  18  -5   37.09   10.26
  18 -13  -5   22.86   10.36
  -5  18  -2  230.03   18.83
 -13  -5  -2  244.94   16.73
  18 -13  -2  210.58   18.77
 -13  -5  -2  189.10   16.70
  18 -13  -2  218.15   18.33
  -5  18  -2  186.77   16.86
  -5  18  -2  181.70   14.21
  18 -13   1  731.01   15.92
  18 -13   1  690.86   31.36
  18 -13   1  717.48   16.64
  18 -13   1  741.25   30.86
 -13  -5   1  766.90   24.20
  -5  18   1  759.89   34.01
 -13  -5   1  748.55   31.63
  -5  18   4  152.67    8.62
  -5  18   4  144.08    8.40
  -6  18  -9  157.51   23.43
  18 -12  -9  124.65   21.60
  18 -12  -9  170.43   20.42
  18 -12  -9  167.47   18.99
  -6  18  -9  105.95   15.30
 -12  -6  -9  117.30   18.18
  -6  18  -9  161.03   18.73
  -6  18  -6   23.16   10.83
  -6  18  -6    1.70   11.51
  18 -12  -6   12.42   12.03
  18 -12  -6    9.00   11.18
 -12  -6  -6    8.82    9.77
 -12  -6  -6    5.43    6.33
  18 -12  -6   31.34   12.43
  -6  18  -6   -3.41    8.95
 -12  -6  -3  291.40   17.68
  -6  18  -3  279.55   16.47
 -12  -6  -3  281.15   16.35
  18 -12  -3  328.23   22.10
 -12  -6  -3  301.85   19.90
  18 -12  -3  262.63   19.99
  -6  18  -3  295.64   19.56
  18 -12   0    6.52    9.53
  18 -12   0   17.23    5.76
  18 -12   0    2.00    8.55
 -12  -6   0   16.34    8.81
  -6  18   0    0.38    6.30
  -6  18   0   -0.94    8.73
 -12  -6   3  445.93    9.57
  -6  18   3  522.46   18.26
 -12  -6   3  454.10    9.81
  -6  18   3  525.70   32.13
  -7  18 -10   33.92   12.43
  -7  18 -10   31.87   13.45
 -11  -7 -10   23.06   15.46
  -7  18 -10   38.46   16.18
  18 -11 -10   39.35   20.30
  18 -11 -10   32.02   13.68
  18 -11 -10   39.92   14.90
  -7  18 -10   18.72   12.29
  18 -11  -7  242.26   26.42
  -7  18  -7  203.68   19.54
  18 -11  -7  253.34   22.09
  -7  18  -7  233.26   23.96
  18 -11  -7  244.60   20.89
  -7  18  -7  234.53   19.69
 -11  -7  -7  254.62   22.29
 -11  -7  -4  360.22   18.91
 -11  -7  -4  397.41   23.14
  -7  18  -4  347.79   17.49
  18 -11  -4  391.75   24.28
 -11  -7  -4  374.02   17.16
  18 -11  -4  332.62   20.01
  18 -11  -4  407.51   23.88
  -7  18  -4  413.56   23.39
 -11  -7  -1  863.38   28.97
  18 -11  -1  858.11   33.23
  -7  18  -1  863.91   27.23
  18 -11  -1  817.69   32.00
  -7  18  -1  877.49   33.77
 -11  -7  -1  837.47   31.86
  18 -11   2  413.52   22.44
 -11  -7   2  439.37   25.78
  -7  18   2  401.95   17.96
  18 -11   2  400.14   11.19
 -11  -7   2  446.65   15.64
  -7  18   2  448.26   28.06
  -7  18   5  719.32   15.82
 -10  -8 -11   59.20   18.73
  -8  18 -11   92.30   21.49
  18 -10 -11  128.40   27.34
  18 -10 -11   72.23   16.96
  18 -10 -11   83.91   16.83
  -8  18 -11   75.79   16.86
  18 -10  -8  129.23   21.60
  -8  18  -8  102.13   19.42
  -8  18  -8  110.92   16.12
 -10  -8  -8   89.83   15.95
  18 -10  -8  118.39   17.11
  18 -10  -8  105.79   16.29
  -8  18  -8  109.63   15.77
 -10  -8  -5  385.54   24.65
  -8  18  -5  323.16   22.00
 -10  -8  -5  323.10   13.80
  18 -10  -5  400.35   25.34
  -8  18  -5  324.02   16.76
  18 -10  -5  348.74   23.33
  18 -10  -5  285.39   18.26
  -8  18  -5  282.17   20.58
  -8  18  -2   37.69    7.67
 -10  -8  -2   53.21    9.04
  18 -10  -2   49.91   10.91
  18 -10  -2   34.75    9.56
  -8  18  -2   55.56   12.15
 -10  -8  -2   50.93    9.66
  18 -10  -2   49.69   11.59
 -10  -8  -2   41.24   10.97
  -8  18   1  458.67   21.98
  18 -10   1  512.71   25.03
 -10  -8   1  475.99   25.53
  18 -10   1  494.23   15.66
  18 -10   1  481.15   25.89
  -8  18   1  455.13   26.64
 -10  -8   1  465.54   19.41
  -8  18   4  345.34   14.61
  -8  18   4  362.53   27.51
  -9  18  -9   62.81   17.09
  -9  18  -9   84.94   14.62
  -9  18  -9  103.89   15.92
  18  -9  -9   77.70   19.22
  18  -9  -9  100.39   17.08
  18  -9  -9  107.97   17.55
  -9  -9  -9  110.02   19.52
  -9  18  -9  121.61   18.62
  -9  18  -6   -6.85   10.13
  -9  18  -6    4.91    6.37
  -9  -9  -6    6.30   10.69
  18  -9  -6    4.50    9.53
  -9  -9  -6   -1.85    2.99
  18  -9  -6   -3.73   11.06
  18  -9  -6    7.87    8.02
  -9  18  -6   17.36   10.44
  -9  -9  -3  335.64   19.20
  -9  -9  -3  307.15   15.30
  -9  -9  -3  327.95   20.79
  18  -9  -3  342.31   22.73
  18  -9  -3  333.14   19.39
  18  -9  -3  306.20   20.98
  -9  18  -3  344.11   21.45
  -9  18  -3  323.96   15.45
  -9  -9   0   10.79    8.52
  -9  -9   0   -0.72    6.87
  -9  -9   0    2.94    7.20
  18  -9   0   -7.89    9.02
  -9  18   0    8.34    6.74
  18  -9   0    3.64    5.55
  -9  18   0    5.71    8.47
  18  -9   0   15.76    9.39
  18  -9   3  299.58   18.78
  18  -9   3  244.57   10.36
  -9  18   3  246.15   14.26
  -9  -9   3  299.48    9.71
  -9  18   3  224.08   22.35
  -9  18   6   39.71    5.80
  -8 -10 -10   17.08   14.05
 -10  18 -10   36.53   17.74
  18  -8 -10   55.37   20.12
 -10  18 -10   24.05   11.24
  18  -8 -10   36.90   14.95
  18  -8 -10   40.83   14.17
 -10  18 -10    4.60   11.91
 -10  18 -10   28.03   14.00
 -10  18  -7  170.83   17.77
  18  -8  -7  155.45   18.76
  18  -8  -7  182.65   19.18
  18  -8  -7  170.23   14.59
 -10  18  -7  167.88   17.92
 -10  18  -7  154.38   13.21
  -8 -10  -7  158.63   19.34
 -10  18  -4  272.47   13.33
  -8 -10  -4  243.36   11.77
  -8 -10  -4  301.56   21.58
  18  -8  -4  278.10   20.91
  18  -8  -4  283.74   21.45
  18  -8  -4  261.41   16.29
 -10  18  -4  283.88   20.16
  18  -8  -1  763.20   30.78
 -10  18  -1  674.94   21.88
  18  -8  -1  729.41   27.73
  -8 -10  -1  699.73   28.88
  18  -8  -1  699.15   29.98
 -10  18  -1  696.11   29.87
  18  -8  -1  708.69   25.28
  -8 -10  -1  741.30   25.47
  -8 -10  -1  686.17   29.98
  18  -8   2  148.89    9.97
 -10  18   2  167.13   15.24
  18  -8   2  189.15   15.61
 -10  18   2  162.09   12.88
  -8 -10   2  168.21   10.65
  18  -8   2  122.84   14.94
 -10  18   2  118.76   16.69
  -8 -10   2  177.81   17.79
 -10  18   5  244.91   24.16
 -10  18   5  270.61   13.62
  18  -8   5  234.22   12.82
 -11  18 -11  146.70   24.21
  18  -7 -11  137.25   21.58
 -11  18 -11  134.37   20.91
  18  -7 -11  146.16   20.96
  -7 -11 -11  152.76   24.58
  18  -7 -11  179.16   29.86
 -11  18  -8   73.60   13.90
  -7 -11  -8   61.12   15.56
  18  -7  -8   84.22   16.04
 -11  18  -8   73.74   17.30
  18  -7  -8   65.84   15.70
 -11  18  -8   59.57   14.69
 -11  18  -8   59.94   10.87
  -7 -11  -5 1116.87   40.63
 -11  18  -5 1113.85   24.83
  18  -7  -5 1186.32   41.98
  18  -7  -5 1178.57   40.98
  18  -7  -5 1129.12   30.54
 -11  18  -5 1149.11   39.50
  18  -7  -2  381.48   23.44
  -7 -11  -2  374.42   22.50
  -7 -11  -2  366.50   16.92
 -11  18  -2  368.17   14.59
  18  -7  -2  393.67   19.95
  18  -7  -2  372.94   22.71
 -11  18  -2  394.75   23.44
 -11  18   1 1211.29   33.61
  -7 -11   1 1206.36   39.28
  18  -7   1 1219.14   36.65
  18  -7   1 1166.90   27.53
  18  -7   1 1189.96   38.22
 -11  18   1 1160.99   40.45
 -11  18   1 1144.37   33.77
  -7 -11   1 1191.15   31.04
  18  -7   4  665.10   20.56
 -11  18   4  683.56   23.34
 -11  18   4  698.80   36.06
 -11  18   7   36.56    6.90
 -12  18  -9   45.72   10.92
  -6 -12  -9   31.69   15.40
 -12  18  -9   15.96   15.67
 -12  18  -9   23.32   11.32
  18  -6  -9   33.19   13.35
  18  -6  -9   39.24   14.63
 -12  18  -9   34.02   12.16
  -6 -12  -6   21.29   12.52
  18  -6  -6  -11.53   10.41
  18  -6  -6   16.25   11.31
  18  -6  -6    8.17    6.71
 -12  18  -6   -0.80    9.90
 -12  18  -6    8.37    4.89
  -6 -12  -3  434.13   16.18
  -6 -12  -3  429.89   24.07
  18  -6  -3  433.39   25.17
  18  -6  -3  419.41   19.24
 -12  18  -3  412.81   13.16
  18  -6  -3  450.30   25.32
 -12  18  -3  392.79   23.39
  -6 -12   0    9.91    8.31
 -12  18   0    9.89    5.78
  18  -6   0  -16.58    8.77
  18  -6   0   -1.54    8.00
  -6 -12   0   15.32    8.38
  18  -6   0    6.23    6.30
  -6 -12   0    6.54    7.50
  18  -6   0    4.15    8.83
 -12  18   0   19.88   10.15
  18  -6   3  282.95   18.12
  -6 -12   3  284.48   22.26
 -12  18   3  273.15   16.47
  -6 -12   3  320.53   13.02
  18  -6   3  274.36   14.50
 -12  18   3  258.19   21.87
  18  -6   3  271.36   19.72
  18  -6   6   17.77    7.83
 -12  18   6   14.98    7.19
 -13  18 -10   13.08   15.43
 -13  18 -10   22.41   11.21
  18  -5 -10   47.13   15.01
  18  -5 -10   23.92   14.79
 -13  18 -10   26.39   13.25
  -5 -13 -10   36.44   16.42
 -13  18  -7  143.99   10.97
  18  -5  -7  169.12   19.44
  18  -5  -7  179.19   20.05
 -13  18  -7  218.93   21.04
  -5 -13  -7  207.83   23.15
  -5 -13  -4  155.28   16.54
  18  -5  -4  150.74   16.56
  18  -5  -4  134.03   10.99
  18  -5  -4  131.47   16.21
 -13  18  -4  116.99    6.17
 -13  18  -4  139.34   16.14
  -5 -13  -1  692.55   24.70
  18  -5  -1  672.44   26.44
  18  -5  -1  696.37   29.79
  18  -5  -1  693.50   26.54
  -5 -13  -1  671.80   28.50
 -13  18  -1  645.18   18.94
  18  -5  -1  653.55   29.21
 -13  18  -1  634.72   29.45
  18  -5   2  167.64   12.49
  18  -5   2  189.43   15.67
  -5 -13   2  177.58   16.76
 -13  18   2  138.74   13.13
  -5 -13   2  152.86   11.46
  18  -5   2  169.87   15.89
 -13  18   2  187.12   18.47
 -13  18   2  184.09   15.38
 -13  18   5    2.55   11.86
  18  -5   5    2.17    6.81
  18  -5   5    1.95    6.45
  -5 -13   5    3.20    3.48
 -13  18   5   -3.83    7.87
  18  -4 -11  278.11   34.84
  18  -4 -11  262.80   26.25
  18  -4 -11  265.95   28.42
 -14  18 -11  264.23   27.90
  -4 -14 -11  230.37   28.65
 -14  18 -11  347.80   34.03
 -14  18  -8   82.22   14.30
  -4 -14  -8   72.88   17.19
 -14  18  -8   85.72    9.26
  18  -4  -8   89.79   17.07
  18  -4  -8   91.87   16.44
 -14  18  -8   95.74   17.13
  18  -4  -5  686.37   32.82
  18  -4  -5  614.97   18.75
  18  -4  -5  748.28   34.12
 -14  18  -5  618.33   31.17
  -4 -14  -5  695.78   33.51
 -14  18  -2  203.82    8.42
  -4 -14  -2  221.65   18.16
  18  -4  -2  205.87   18.13
  18  -4  -2  261.70   16.04
  18  -4  -2  237.68   19.16
 -14  18  -2  234.99   19.86
  -4 -14   1  582.03   28.11
  18  -4   1  625.23   27.22
  18  -4   1  555.66   22.03
  18  -4   1  618.77   27.91
 -14  18   1  592.83   29.47
  -4 -14   1  623.46   24.35
  18  -4   4  624.36   24.95
 -14  18   4  593.69   24.33
  18  -4   4  549.46   22.52
  -4 -14   4  554.50   18.15
 -14  18   4  649.08   34.39
  18  -4   4  596.23   29.17
  -3 -15  -9   39.17   14.57
  18  -3  -9   41.26   14.51
  18  -3  -9   28.49   15.14
 -15  18  -9   44.85   12.50
 -15  18  -9   61.53   16.31
  18  -3  -6  162.41   19.11
  18  -3  -6  173.00   20.17
 -15  18  -6  175.98   19.54
  -3 -15  -6  176.48   20.92
  -3 -15  -3   78.21   13.57
  18  -3  -3   87.96   14.69
  18  -3  -3   73.65    8.79
  18  -3  -3   75.24   13.61
 -15  18  -3   87.89   14.14
  18  -3   0  120.98   13.94
  18  -3   0  124.34   12.44
  18  -3   0  119.53   14.21
  -3 -15   0  129.13   14.13
 -15  18   0  137.30   16.10
  -3 -15   0   99.98   12.72
  -3 -15   3  229.60   20.62
  18  -3   3  271.57   17.37
  -3 -15   3  239.09   14.06
  18  -3   3  262.80   16.54
  18  -3   3  276.81   20.40
 -15  18   3  249.20   22.45
 -15  18   6   -0.40   12.31
  18  -3   6    6.59    7.43
  -3 -15   6   -2.84    5.20
  -2 -16 -10  -16.30   16.05
 -16  18 -10   19.07   16.97
  18  -2 -10   16.20   13.75
  18  -2 -10   36.83   16.16
 -16  18 -10  -12.22   14.70
  -2 -16  -7   21.08   14.42
  18  -2  -7   17.87   11.96
  18  -2  -7    8.58   12.38
 -16  18  -7   -4.25   11.10
  -2 -16  -4   76.73   14.52
  18  -2  -4   31.81   11.64
  18  -2  -4   59.23   13.19
 -16  18  -4   61.81   13.72
  -2 -16  -1   39.46   10.10
  18  -2  -1   38.95   11.03
  18  -2  -1   19.55    9.96
 -16  18  -1   28.70   10.08
  18  -2   2  171.02   14.43
  18  -2   2  178.90   15.96
  -2 -16   2  166.56   17.58
  -2 -16   2  141.44   12.77
  18  -2   2  161.84   16.56
 -16  18   2  185.55   19.16
 -16  18   5   72.19   15.86
  18  -2   5   83.11   11.08
  -2 -16   5   61.91    8.48
 -17  18 -11  133.40   25.32
  18  -1 -11  175.33   24.35
  18  -1 -11  189.04   25.65
 -17  18 -11  152.90   25.33
  -1 -17 -11  157.36   26.06
  -1 -17  -8   26.43   14.53
  18  -1  -8   16.97   12.94
  18  -1  -8   28.74   15.29
 -17  18  -8   -3.62   12.88
  18  -1  -5  524.70   30.28
  18  -1  -5  464.39   29.24
 -17  18  -5  451.53   28.27
  -1 -17  -5  432.40   28.67
  -1 -17  -2  313.78   21.69
  18  -1  -2  312.24   22.72
  18  -1  -2  288.29   20.93
 -17  18  -2  273.48   21.50
  18  -1   1  569.85   26.81
  18  -1   1  518.81   25.89
  -1 -17   1  468.33   22.72
 -17  18   1  500.96   27.70
  -1 -17   1  509.27   26.87
  18  -1   4  426.50   21.19
  -1 -17   4  372.42   19.00
 -17  18   4  401.70   27.62
  18  -1   4  405.04   23.84
 -17  18   7  457.99   33.75
   0 -18  -9  -26.22   16.96
 -18  18  -9   -2.97    9.84
  18   0  -9  -19.39   13.10
  18   0  -9   19.80   16.24
 -18  18  -9    6.03   13.85
  18   0  -6  154.65   19.12
  18   0  -6  182.69   21.39
 -18  18  -6  162.99   21.41
   0 -18  -6  150.63   20.31
  18   0  -3    9.96   10.58
   0 -18  -3   -4.13    9.69
  18   0  -3   24.82   12.01
 -18  18  -3    7.20   11.23
  18   0   0  155.37   16.45
   0 -18   0  132.41   15.88
  18   0   0  139.01   15.50
 -18  18   0  135.12   15.79
  18   0   3    6.58    7.73
   0 -18   3   -2.42    7.35
   0 -18   3   12.43   10.57
 -18  18   3    9.42   10.62
  18   0   3    8.45   10.28
 -18  18   6   56.16   16.52
  18   0   6   44.16    8.76
   0 -18   6   26.76    9.17
   1 -19 -10   68.39   20.75
  18   1 -10   42.36   16.42
  18   1 -10   55.55   18.71
 -19  18 -10   48.52   18.24
  18   1  -7   36.41   15.31
 -19  18  -7    8.81   13.15
  18   1  -7   15.09   13.43
   1 -19  -7   26.80   14.19
  18   1  -4   -6.55   10.27
   1 -19  -4    1.87   10.93
  18   1  -4    4.02   10.83
 -19  18  -4   -4.80    9.95
  18   1  -1   44.36   11.55
  18   1  -1    9.67    9.86
 -19  18  -1   29.16   11.14
   1 -19  -1   24.70   10.44
  18   1   2    3.31    8.20
   1 -19   2   23.19   10.03
  18   1   2   11.52    9.33
 -19  18   2   16.21   10.85
 -19  18   5   41.88   14.71
  18   1   5   36.49    9.34
   1 -19   5   16.56    8.80
   2 -20  -8   35.68   18.10
  18   2  -8   79.59   17.65
  18   2  -8   24.94   14.84
 -20  18  -8   49.45   15.67
  18   2  -5  499.36   30.77
 -20  18  -5  511.38   31.79
  18   2  -5  498.11   31.77
   2 -20  -5  459.33   30.21
   2 -20  -2  118.76   15.15
  18   2  -2  143.40   18.34
  18   2  -2  128.06   16.71
 -20  18  -2  134.24   17.24
  18   2   1  812.89   32.74
  18   2   1  751.81   31.29
 -20  18   1  840.93   35.87
   2 -20   1  829.13   33.74
  18   2   4  181.37   15.56
   2 -20   4  166.32   18.75
  18   2   4  177.55   17.83
 -20  18   4  183.58   20.73
 -20  18   7  315.41   29.59
  18   2   7  294.43   15.74
   3 -21  -9   84.12   21.40
  18   3  -9   76.97   18.36
  18   3  -9   67.15   18.20
 -21  18  -9   81.73   19.37
   3 -21  -6   25.70   13.51
  18   3  -6   53.99   15.80
 -21  18  -6   62.59   15.57
  18   3  -6   37.69   14.33
  18   3  -3   75.43   15.22
   3 -21  -3   58.83   13.39
  18   3  -3   96.42   15.64
 -21  18  -3   65.88   14.10
  18   3   0   91.92   14.43
   3 -21   0   84.31   12.82
  18   3   0   85.84   13.23
 -21  18   0   67.03   14.73
  18   3   3   94.32   12.58
   3 -21   3  111.45   15.77
  18   3   3  108.24   15.18
 -21  18   3   99.02   16.22
  18   3   6  289.37   17.68
 -21  18   6  314.62   27.96
   4 -22 -10   23.93   19.24
  18   4 -10   18.74   16.61
  18   4 -10   13.24   16.62
 -22  18 -10   13.02   16.44
   4 -22  -7   10.98   12.96
  18   4  -7   40.35   14.97
  18   4  -7   39.63   15.13
 -22  18  -7   10.14   13.37
   4 -22  -4   10.02   10.29
  18   4  -4    9.95   11.20
 -22  18  -4   -6.09   12.71
  18   4  -4    3.07   12.00
  18   4  -1   96.54   15.76
   4 -22  -1  108.17   14.76
  18   4  -1   86.68   14.15
 -22  18  -1  111.48   16.47
  18   4   2   59.14   12.15
   4 -22   2   27.04   11.44
  18   4   2   36.40   11.10
 -22  18   2   31.49   13.01
 -22  18   5   70.45   16.46
  18   4   5   63.73   13.16
  18   4   5   89.54   12.21
   5 -23  -8   18.60   16.02
  18   5  -8   -5.39   15.83
 -23  18  -8    8.51   13.36
  18   5  -8    9.99   15.57
  18   5  -5  321.39   26.91
  18   5  -5  313.00   27.28
 -23  18  -5  285.24   26.84
   5 -23  -5  265.85   25.56
   5 -23  -2  101.97   15.13
  18   5  -2  133.54   18.19
  18   5  -2  109.29   16.32
 -23  18  -2   88.18   15.96
  18   5   1  254.38   21.33
  18   5   1  231.13   19.75
 -23  18   1  254.62   22.13
   5 -23   1  294.59   21.91
  18   5   4   15.58   10.17
   5 -23   4    6.53   11.59
 -23  18   4   -6.52   12.22
  18   5   4    4.91    9.66
 -23  18   7   78.72   19.00
  18   5   7  158.09   13.48
  18   6  -9  157.95   24.45
  18   6  -9  152.59   25.86
 -24  18  -9  162.97   25.90
   6 -24  -9  160.09   26.44
   6 -24  -6   53.49   16.49
  18   6  -6   66.79   17.43
  18   6  -6   46.23   16.40
 -24  18  -6   88.25   20.18
   6 -24  -3  223.40   21.43
  18   6  -3  243.65   23.49
  18   6  -3  252.22   23.99
 -24  18  -3  232.20   23.87
  18   6   0  159.49   18.73
   6 -24   0  104.78   15.20
  18   6   0  125.97   16.34
 -24  18   0  143.30   18.07
  18   6   3  147.61   16.48
   6 -24   3  118.36   17.00
  18   6   3  109.77   14.99
 -24  18   3   98.47   16.39
  18   6   6  182.86   15.90
 -24  18   6  185.12   23.32
   7 -25  -7   45.95   18.67
  18   7  -7   57.70   18.31
  18   7  -7   35.10   16.98
 -25  18  -7   42.72   17.44
  18   7  -4   60.27   16.60
   7 -25  -4   34.15   13.98
  18   7  -4   45.38   15.26
 -25  18  -4   47.16   16.36
  18   7  -1   67.49   14.96
   7 -25  -1   66.72   14.07
  18   7  -1   78.31   15.11
 -25  18  -1   73.77   16.38
  18   7   2   43.37   12.70
   7 -25   2   17.74   11.37
  18   7   2   29.84   10.74
 -25  18   2   16.11   10.33
  18   7   5  156.71   15.97
  18   7   5  129.18   15.60
 -25  18   5  183.92   22.38
 -25  18   8   35.01   17.66
  18   8  -8   -9.50   15.27
   8 -26  -8    1.62   15.80
  18   8  -8   -0.05   17.76
 -26  18  -8    1.56   15.59
   8 -26  -5   66.38   17.08
  18   8  -5   94.29   18.79
  18   8  -5   89.74   17.98
 -26  18  -5   86.71   19.04
   8 -26  -2   91.25   16.33
  18   8  -2  106.89   18.20
  18   8  -2   96.19   17.20
 -26  18  -2   66.24   15.63
  18   8   1   62.46   14.48
   8 -26   1   41.09   11.58
  18   8   1   67.11   13.54
 -26  18   1   61.67   14.40
  18   8   4   42.09   12.03
   8 -26   4   44.47   13.95
 -26  18   4   29.86   13.63
  18   8   4   42.73   12.54
 -26  18   7   34.30   16.14
  18   9  -6  110.33   20.94
  18   9  -6  135.06   23.08
 -27  18  -6  103.86   21.20
   9 -27  -6  140.60   22.44
   9 -27  -3  226.29   22.00
  18   9  -3  267.46   25.62
  18   9  -3  237.97   24.25
 -27  18  -3  186.20   22.83
  18   9   0  101.45   16.95
   9 -27   0   86.17   14.43
  18   9   0   89.86   14.92
 -27  18   0   91.17   16.49
  18   9   3  118.22   16.46
   9 -27   3  107.18   15.88
  18   9   3  103.75   15.55
 -27  18   3   82.90   16.97
  18   9   6  134.01   15.65
 -27  18   6  120.73   21.32
  10 -28  -7   11.48   16.13
  18  10  -7   73.91   20.32
  18  10  -7   29.16   17.34
 -28  18  -7   34.87   17.18
  18  10  -4   -5.58   12.80
  10 -28  -4  -10.49   12.58
  18  10  -4    7.92   13.05
 -28  18  -4  -11.75   15.17
  18  10  -1   49.58   13.91
 -28  18  -1   41.69   13.40
  18  10  -1   54.70   15.99
  10 -28  -1   51.10   12.29
  10 -28   2    3.62   10.67
  18  10   2    2.31   10.49
  18  10   2    9.39    9.84
 -28  18   2   12.01   10.96
  18  10   5   48.86   12.45
  18  10   5   42.43   12.60
 -28  18   5   57.90   17.27
 -28  18   8    7.97   15.41
  11 -29  -8   48.52   21.42
  18  11  -8   62.46   21.57
  18  11  -8    2.23   16.92
 -29  18  -8   55.24   20.83
  18  11  -5   13.37   15.95
  11 -29  -5    6.36   13.18
  18  11  -5    2.98   14.56
 -29  18  -5  -20.14   14.62
  18  11  -2   22.88   13.96
  18  11  -2   25.91   14.03
  11 -29  -2   -0.33   11.57
 -29  18  -2   13.70   12.30
  18  11   1   23.15   12.18
  11 -29   1   43.71   13.08
  18  11   1   27.55   12.41
 -29  18   1   24.58   12.08
  18  11   4   36.50   11.64
  18  11   4   45.50   12.77
 -29  18   4   60.83   16.61
 -29  18   7    9.81   15.41
  12 -30  -6   56.68   19.00
  18  12  -6   25.59   16.33
  18  12  -6   59.81   19.94
 -30  18  -6   27.41   18.78
  12 -30  -3  304.13   26.41
  18  12  -3  339.28   29.59
  18  12  -3  386.41   32.06
 -30  18  -3  374.34   32.09
  12 -30   0   82.30   14.84
  18  12   0   91.35   17.10
  18  12   0   86.36   16.21
 -30  18   0  101.61   19.49
  18  12   3  219.74   22.55
  18  12   3  223.72   20.01
 -30  18   3  217.86   23.57
  12 -30   3  175.57   20.09
 -30  18   6   21.27   16.95
  18  12   6  103.66   15.82
  13 -31  -7   -5.40   16.70
  18  13  -7   18.60   16.99
  18  13  -7    0.35   16.85
 -31  18  -7    0.61   19.74
  18  13  -4   59.07   19.03
  13 -31  -4   69.70   16.75
  18  13  -4   55.24   17.38
 -31  18  -4   82.20   19.40
  18  13  -1   70.52   16.63
 -31  18  -1   60.05   16.93
  13 -31  -1   43.30   13.45
  18  13   2   46.63   14.77
  13 -31   2   25.28   12.05
  18  13   2   33.64   12.19
 -31  18   2    4.83   12.34
  18  13   5    4.65   11.02
 -31  18   5    1.16   13.76
  18  14  -5    3.97   16.61
  14 -32  -5    7.54   13.84
  18  14  -5   37.29   17.90
 -32  18  -5    6.32   15.38
  18  14  -2   14.34   14.99
  18  14  -2   21.61   15.04
  14 -32  -2   21.37   12.32
 -32  18  -2   16.09   14.13
  18  14   1   -5.07   14.37
  18  14   1   21.33   12.24
  14 -32   1   12.68   10.80
 -32  18   1   30.81   14.17
  18  14   4   46.58   14.87
  18  14   4   17.72   11.55
 -32  18   4   25.45   14.96
  18  15  -6   27.91   18.84
  15 -33  -6    1.05   15.65
  18  15  -6   -2.46   17.24
 -33  18  -6  -12.43   18.44
  18  15  -3   90.06   21.32
  18  15  -3  105.87   21.19
  15 -33  -3   56.65   16.07
 -33  18  -3  106.86   21.39
  18  15   0   59.07   17.69
  15 -33   0   35.62   12.86
  18  15   0   34.87   14.74
 -33  18   0   72.67   19.18
  18  15   3  149.60   18.39
 -33  18   3  106.93   19.76
  18  16  -4   80.33   22.13
  16 -34  -4   38.30   17.40
  18  16  -4   84.87   21.83
 -34  18  -4   13.52   17.23
  16 -34  -1   21.77   12.18
  18  16  -1   10.64   16.02
  18  16  -1   -8.58   13.36
 -34  18  -1   15.25   16.49
  18  16   2   16.10   14.80
  18  16   2   18.54   12.87
 -34  18   2   10.00   13.97
  16 -34   2   17.36   12.93
  18  16   5  -14.99   13.70
 -34  18   5   -2.68   15.93
  18  17  -2   16.00   15.75
  18  17  -2   23.57   16.17
 -35  18  -2   20.46   15.11
  17 -35  -2   -1.62   12.45
  17 -35   1   33.64   13.60
  18  17   1   27.10   17.09
  18  17   1   37.82   15.04
 -35  18   1   11.67   14.33
  18  17   4   13.27   14.54
 -35  18   4   27.84   17.32
  18  18  -3   56.83   20.55
  18  18  -3   70.16   20.40
  18 -36  -3   37.00   15.78
 -36  18  -3   87.18   23.30
  18  18   0   30.76   17.25
  18 -36   0   22.57   13.22
  18  18   0   59.54   18.11
 -36  18   0   31.45   16.67
  18  18   3   44.68   17.55
 -36  18   3   23.77   14.50
  19 -37  -1   31.12   14.30
  18  19  -1   57.09   21.41
  18  19  -1    9.20   15.26
 -37  18  -1   12.39   16.40
  17  19  -2   37.26   18.92
  17  19  -2   42.95   17.73
 -36  17  -2   19.42   17.24
  19 -36  -2   53.29   15.92
  17  19   1   28.94   17.40
  17  19   1    8.90   12.55
 -36  17   1   28.82   15.86
  16  19  -3   20.94   17.72
  16  19  -3   17.20   16.83
  19 -35  -3   -6.73   13.33
 -35  16  -3   -4.16   16.92
  16  19   0  166.39   25.76
  16  19   0  166.95   21.56
  19 -35   0  110.82   17.12
 -35  16   0  136.28   22.10
  16  19   3   10.29   14.61
 -35  16   3  -12.03   13.26
  15  19  -4   27.55   16.86
  19 -34  -4   41.93   15.97
  15  19  -4   25.10   17.09
 -34  15  -4    8.19   17.19
  15  19  -1    2.11   15.18
  15  19  -1   -9.54   14.11
 -34  15  -1    0.36   14.90
  19 -34  -1   11.75   11.69
  15  19   2    5.56   13.56
  15  19   2   13.99   12.26
 -34  15   2   28.28   14.67
  15  19   5   29.99   15.01
  19 -33  -5   50.82   18.46
  14  19  -5   60.23   20.50
  14  19  -5   15.07   18.04
 -33  14  -5    7.93   16.91
  14  19  -2    7.48   15.32
  14  19  -2   29.33   15.32
  19 -33  -2    5.95   11.01
 -33  14  -2   -9.13   14.16
  14  19   1   61.57   17.20
  14  19   1   27.83   12.95
  19 -33   1   35.36   11.64
 -33  14   1   61.89   16.18
  14  19   4   63.69   17.17
 -33  14   4   27.83   13.44
  13  19  -6  179.20   29.35
  13  19  -6  157.31   26.90
 -32  13  -6   97.33   23.41
  19 -32  -6  137.02   24.06
  13  19  -3   24.07   16.29
  19 -32  -3   26.24   13.56
  13  19  -3   42.12   16.84
 -32  13  -3   48.59   18.12
  13  19   0  276.23   28.48
  19 -32   0  179.94   17.46
  13  19   0  256.96   24.00
 -32  13   0  180.09   22.00
  13  19   3   37.10   15.46
  13  19   3   19.35   10.28
 -32  13   3   -1.68   10.92
  13  19   6  125.64   18.60
  19 -31  -7    6.41   18.52
  12  19  -7   11.08   16.88
  12  19  -7    3.23   15.89
 -31  12  -7  -20.63   18.20
  19 -31  -4  -11.62   12.32
  12  19  -4  -12.20   15.54
  12  19  -4   30.11   16.33
 -31  12  -4   -6.60   15.15
  12  19  -1   39.89   16.21
  12  19  -1   13.08   12.21
  19 -31  -1    3.63    9.15
 -31  12  -1   17.52   12.70
  12  19   2   26.77   13.74
  12  19   2   70.76   13.03
 -31  12   2   48.61   14.23
  19 -31   2   27.93    9.34
  12  19   5   16.10   12.00
  19 -30  -5   49.59   15.86
  11  19  -5   19.46   16.33
 -30  11  -5   43.30   18.51
  11  19  -5   44.83   19.43
  11  19  -2   24.20   14.50
  11  19  -2   34.00   13.54
  19 -30  -2   12.16   10.07
 -30  11  -2   59.71   16.97
  11  19   1   58.65   16.40
  19 -30   1   32.55    9.37
  11  19   1   54.65   13.25
 -30  11   1   65.73   14.33
  11  19   4  136.47   19.01
 -30  11   4   71.06   14.46
  10  19  -6  232.98   28.46
  10  19  -6  284.25   31.01
 -29  10  -6  237.62   29.16
  19 -29  -6  233.14   27.38
  19 -29  -3   70.28   13.91
  10  19  -3   70.70   19.34
  10  19  -3  107.33   19.04
 -29  10  -3   93.74   18.52
  10  19   0  371.08   29.67
  19 -29   0  299.80   18.97
  10  19   0  315.92   23.87
 -29  10   0  333.47   25.28
  10  19   3   40.89   13.89
  10  19   3   28.98    9.52
 -29  10   3   21.21   10.34
  10  19   6  130.71   17.12
   9  19  -7  -23.24   17.42
   9  19  -7  -26.76   17.38
 -28   9  -7  -24.15   16.26
  19 -28  -7    8.98   14.38
  19 -28  -4   74.25   15.38
   9  19  -4  117.79   20.67
   9  19  -4  115.96   20.24
 -28   9  -4  103.17   20.53
  19 -28  -1  120.79   14.13
   9  19  -1  183.94   22.26
   9  19  -1  124.78   18.24
 -28   9  -1  137.49   18.75
   9  19   2   33.20   10.90
  19 -28   2   19.57    6.97
 -28   9   2   24.84   11.39
   9  19   2   39.73   14.30
   9  19   5   20.52   12.14
 -28   9   5    4.77    9.66
   8  19  -8   38.50   18.95
   8  19  -8   25.06   18.38
 -27   8  -8   10.48   19.76
  19 -27  -8   18.81   17.04
 -27   8  -5   80.45   13.51
   8  19  -5  121.35   20.83
   8  19  -5  145.59   22.00
  19 -27  -5  118.71   19.89
 -27   8  -5  111.14   20.16
   8  19  -2  120.66   20.17
   8  19  -2   82.60   16.29
 -27   8  -2   77.70   16.22
  19 -27  -2   98.67   14.12
   8  19   1   79.85   16.35
   8  19   1   68.75   12.67
  19 -27   1   79.88    9.80
 -27   8   1   68.55   13.17
   8  19   4  110.79   11.14
 -27   8   4  113.20   14.09
   7  19  -9    4.87   15.67
   7  19  -9   11.28   18.01
 -26   7  -9   10.06   18.91
  19 -26  -9   30.18   20.61
   7  19  -6  269.45   27.77
   7  19  -6  314.89   30.76
 -26   7  -6  291.32   20.99
  19 -26  -6  280.63   28.26
 -26   7  -6  304.80   31.13
   7  19  -3   25.85   14.44
   7  19  -3   55.43   16.13
 -26   7  -3   41.61   13.21
  19 -26  -3   38.11   11.76
   7  19   0  244.45   23.62
   7  19   0  212.47   19.42
  19 -26   0  217.99   15.36
 -26   7   0  215.94   20.22
   7  19   3   69.67   14.93
   7  19   3   97.64   11.64
 -26   7   3   98.88   12.75
   7  19   6  125.97   16.13
 -25   6  -7   31.39   11.46
   6  19  -7   -1.88   13.12
   6  19  -7    5.11   15.04
 -25   6  -7   45.40   18.00
  19 -25  -7   46.16   17.24
   6  19  -4  126.89   19.62
   6  19  -4  145.06   21.10
 -25   6  -4  172.19   22.28
  19 -25  -4  122.31   17.34
 -25   6  -4  117.84   14.97
  19 -25  -1   12.40    8.10
   6  19  -1    0.93   11.13
   6  19  -1    6.22   10.23
 -25   6  -1    0.41   10.98
   6  19   2  177.30   19.75
   6  19   2  205.65   15.52
 -25   6   2  185.81   16.25
   6  19   5   24.07   10.88
 -25   6   5    3.90    8.20
   5  19  -8   54.48   19.80
 -24   5  -8   12.43   11.03
 -24   5  -8   -7.91   15.86
  19 -24  -8   49.91   17.42
   5  19  -8   30.43   15.91
   5  19  -5  106.01   18.74
 -24   5  -5   87.67   13.70
   5  19  -5   88.92   17.32
 -24   5  -5   94.87   19.35
  19 -24  -5   81.89   17.59
   5  19  -2  254.08   23.87
   5  19  -2  299.49   23.66
 -24   5  -2  265.39   23.37
  19 -24  -2  246.97   18.28
 -24   5  -2  236.12   19.42
   5  19   1  103.93   17.04
   5  19   1   86.71   12.23
  19 -24   1   87.38    8.39
 -24   5   1  107.34   13.53
   5  19   4    8.77    9.35
   5  19   4   25.08    6.29
 -24   5   4   18.13    7.33
   5  19   7   58.28   11.74
   4  19  -9   54.49   18.44
   4  19  -9   33.82   18.66
 -23   4  -9   -5.59   16.90
  19 -23  -9   19.07   17.03
   4  19  -6  258.53   25.95
   4  19  -6  239.29   26.74
  19 -23  -6  240.27   26.33
 -23   4  -6  238.48   28.41
 -23   4  -6  210.55   18.82
   4  19  -3   24.36   12.34
 -23   4  -3    9.09    9.03
 -23   4  -3   34.56   14.25
  19 -23  -3   28.70   11.12
   4  19  -3   14.07   12.23
   4  19   0  333.52   25.02
   4  19   0  391.88   23.11
 -23   4   0  377.70   23.42
  19 -23   0  364.44   16.86
   4  19   3    2.63    9.63
   4  19   3    1.61    5.96
 -23   4   3   11.29    7.18
   4  19   6  157.98   15.91
   3  19 -10  110.59   20.95
   3  19 -10  145.72   26.24
 -22   3 -10  198.45   28.76
  19 -22 -10  120.76   25.08
  19 -22  -7    2.16   10.91
 -22   3  -7   13.99   11.14
   3  19  -7   11.98   14.60
 -22   3  -7   33.34   16.29
  19 -22  -7   33.57   15.97
   3  19  -7   17.33   13.60
   3  19  -4  196.25   21.86
 -22   3  -4  204.96   18.61
   3  19  -4  234.90   23.57
  19 -22  -4  246.46   22.33
 -22   3  -4  229.26   23.57
   3  19  -4  214.45   17.49
   3  19  -1   23.08   11.45
   3  19  -1   40.03   11.00
 -22   3  -1   24.54   11.31
 -22   3  -1   15.08   10.16
  19 -22  -1   21.04    7.57
   3  19   2  530.95   28.83
   3  19   2  456.03   20.82
 -22   3   2  525.86   22.61
 -22   3   5   14.23    4.88
   3  19   5   29.91   10.60
  19 -21  -8   35.38   12.63
   2  19  -8   48.34   16.81
   2  19  -8   51.80   17.80
  19 -21  -8   66.82   19.11
 -21   2  -8   52.75   20.35
 -21   2  -8   33.83   12.55
   2  19  -5   57.76   11.16
  19 -21  -5   74.51   14.40
   2  19  -5   68.60   16.06
   2  19  -5   82.72   17.51
  19 -21  -5   30.62   14.01
 -21   2  -5   90.78   17.49
 -21   2  -5   67.27   12.99
   2  19  -2   -0.54   11.42
   2  19  -2   19.97   12.90
   2  19  -2   33.70   11.34
 -21   2  -2   27.09   10.42
 -21   2  -2   17.48   11.04
  19 -21  -2   22.19    8.47
   2  19   1   74.89   14.30
  19 -21   1   76.63    6.73
   2  19   1  112.11   12.51
 -21   2   1   98.62   12.05
   2  19   4   35.25   10.93
   2  19   4   40.73    5.32
 -21   2   4   38.23    6.63
   2  19   7   20.62    8.71
  19 -20  -9   25.12   12.78
   1  19  -9   22.31   14.52
   1  19  -9   12.08   16.48
  19 -20  -9   20.05   18.37
 -20   1  -9   20.05   16.15
 -20   1  -9   23.49   12.70
   1  19  -6  140.64   19.00
   1  19  -6  198.76   23.84
  19 -20  -6  179.25   21.54
 -20   1  -6  163.12   22.17
 -20   1  -6  145.74   16.68
  19 -20  -6  166.51   18.11
   1  19  -6  138.99   14.30
   1  19  -3   18.67   10.20
   1  19  -3   10.05   11.25
 -20   1  -3   11.76    9.56
  19 -20  -3    1.64    8.09
   1  19  -3    3.40   10.85
 -20   1  -3   30.19   12.43
   1  19   0   50.10   13.57
   1  19   0   48.15   12.81
   1  19   0   34.65   10.14
 -20   1   0   51.23   13.40
 -20   1   0   43.91   10.55
  19 -20   0   41.03    6.79
   1  19   3   53.40   11.41
   1  19   3   48.06    7.61
 -20   1   3   51.81    7.58
   1  19   6   46.46   10.73
 -19   0 -10  176.82   21.69
   0  19 -10  222.48   25.41
   0  19 -10  198.88   28.43
  19 -19 -10  208.56   30.46
 -19   0 -10  176.15   27.84
   0  19  -7   45.71   15.39
   0  19  -7   16.85   14.40
  19 -19  -7   13.45   16.21
 -19   0  -7   54.75   17.30
 -19   0  -7   51.70   13.76
   0  19  -7   45.31   10.50
  19 -19  -7   59.34   13.83
   0  19  -4  314.49   23.95
   0  19  -4  360.61   27.19
  19 -19  -4  403.73   26.66
 -19   0  -4  413.13   29.34
 -19   0  -4  352.41   22.61
   0  19  -4  384.17   22.91
  19 -19  -4  340.63   24.16
   0  19  -1   13.84   10.85
   0  19  -1   16.87   11.13
   0  19  -1    4.44    9.21
 -19   0  -1    7.22    8.90
  19 -19  -1    5.60    6.43
 -19   0  -1   -0.31    9.49
   0  19   2  849.11   34.16
   0  19   2  882.24   26.58
 -19   0   2  839.77   24.80
   0  19   5   11.69    9.39
   0  19   8  386.39   19.48
  -1  19  -8   -3.94   12.33
  -1  19  -8   11.51   14.71
  19 -18  -8   -8.92   14.21
 -18  -1  -8   14.96   15.23
 -18  -1  -8    3.41   10.55
  -1  19  -8    4.95    8.76
  19 -18  -8    1.93   10.43
  -1  19  -5   36.44   13.68
  19 -18  -5    8.82   10.92
  -1  19  -5   44.49   13.29
 -18  -1  -5   50.20   15.49
 -18  -1  -5   25.27   10.67
  -1  19  -5   30.95   10.31
  19 -18  -5   27.46   10.90
  -1  19  -2   -0.89    9.07
  19 -18  -2   25.57   12.23
  -1  19  -2   24.49   10.84
  -1  19  -2   24.92   10.47
  19 -18  -2   13.39    8.06
 -18  -1  -2   27.61   11.81
 -18  -1  -2    4.48    8.45
  -1  19   1   31.81   13.55
  -1  19   1   30.13    9.19
 -18  -1   1   52.70    9.60
  -1  19   1   32.03   11.25
  19 -18   1   32.21    4.05
  -1  19   4    6.69    8.58
  -1  19   4    0.91    2.99
 -18  -1   4    5.05    1.88
  -1  19   4    5.34    3.42
  -1  19   7   28.77    9.90
  -2  19  -9    7.31   15.70
  19 -17  -9   16.85   16.61
  -2  19  -9   -1.29   12.65
 -17  -2  -9   22.73   17.24
 -17  -2  -9   26.06   13.49
  19 -17  -9   -1.96   12.36
 -17  -2  -6   25.55    9.32
  -2  19  -6   30.73   15.30
  -2  19  -6   24.10   11.94
  19 -17  -6   38.87   16.03
  19 -17  -6   38.71   13.41
 -17  -2  -6   55.28   16.01
 -17  -2  -6   40.88   12.35
  -2  19  -6   26.69   10.49
  19 -17  -6   57.45   13.34
  -2  19  -3  308.21   23.20
  -2  19  -3  274.15   23.10
  19 -17  -3  279.70   22.62
 -17  -2  -3  277.21   23.07
  19 -17  -3  286.21   20.32
 -17  -2  -3  317.68   21.19
  19 -17  -3  280.50   21.78
  -2  19  -3  262.22   19.76
 -17  -2   0    1.23    9.44
  -2  19   0   -5.96    9.91
  -2  19   0   15.56    8.35
  19 -17   0    7.60    5.15
 -17  -2   0    3.66    7.53
  -2  19   0    1.83    9.46
  -2  19   3  124.80    9.61
  -2  19   3  126.98   15.68
 -17  -2   3  116.08    7.56
  -2  19   6   94.14   12.96
 -16  -3 -10  331.76   27.73
  -3  19 -10  342.69   28.24
  19 -16 -10  404.86   37.85
 -16  -3 -10  425.88   38.75
  -3  19 -10  358.56   34.01
  19 -16 -10  327.47   25.27
  -3  19  -7    2.69   11.82
  -3  19  -7   25.60   15.09
  19 -16  -7   24.55   14.72
  19 -16  -7   14.54   11.74
 -16  -3  -7   41.48   18.30
 -16  -3  -7   11.63   10.82
  -3  19  -7    0.37    9.18
  19 -16  -7    5.39   10.66
  -3  19  -4  808.00   37.30
  -3  19  -4  836.47   36.18
  19 -16  -4  740.99   34.75
 -16  -3  -4  789.16   38.63
 -16  -3  -4  737.74   31.22
  19 -16  -4  742.22   34.75
  19 -16  -4  789.10   33.91
  -3  19  -4  745.70   30.62
  -3  19  -1    9.07   10.24
  19 -16  -1   14.71   10.64
  -3  19  -1   -5.84    9.69
  -3  19  -1   14.94    9.87
  19 -16  -1   20.31    7.88
  19 -16  -1   12.51   11.70
 -16  -3  -1    3.25    8.60
 -16  -3  -1    2.92    8.70
  -3  19   2 1143.99   45.51
  -3  19   2 1231.48   30.98
 -16  -3   2 1224.02   26.68
  -3  19   8  496.09   22.77
  -4  19 -11   38.47   14.39
  -4  19 -11   84.42   21.59
 -15  -4 -11   32.62   15.80
  19 -15 -11   66.40   23.39
 -15  -4 -11   65.57   22.48
  -4  19  -8   44.87   14.18
  -4  19  -8   80.26   18.35
  19 -15  -8   55.22   17.63
  19 -15  -8   79.27   15.46
 -15  -4  -8   53.89   15.21
 -15  -4  -8   95.16   20.60
  -4  19  -8   68.73   12.96
  19 -15  -8   55.66   13.63
  -4  19  -5  115.67   16.41
 -15  -4  -5  119.11   12.91
  -4  19  -5  129.38   19.30
  19 -15  -5  110.73   17.15
 -15  -4  -5  113.74   15.49
 -15  -4  -5  102.10   12.70
  19 -15  -5  120.01   16.98
  19 -15  -5  122.68   16.04
  -4  19  -5  109.03   13.85
  -4  19  -2  102.64   14.50
  -4  19  -2  120.92   15.34
  19 -15  -2  133.81   13.54
  19 -15  -2  101.31   15.61
  19 -15  -2   98.65   13.98
  -4  19  -2   91.56   14.03
 -15  -4  -2  115.65   13.92
  -4  19   1   36.77   10.98
  -4  19   1   54.23    9.85
  19 -15   1   37.23    4.47
  19 -15   1   33.37    4.52
 -15  -4   1   54.76    8.41
 -15  -4   1   54.49   11.81
  -4  19   4   -3.52    3.68
  -4  19   4    4.20    4.07
  -5  19  -9   68.69   15.12
  -5  19  -9   53.84   18.14
 -14  -5  -9   47.00   13.13
  19 -14  -9   72.04   15.79
  -5  19  -9   67.68   14.17
  19 -14  -9   37.57   13.26
  -5  19  -6  120.77   16.46
 -14  -5  -6  102.21   10.98
  19 -14  -6  114.90   18.38
 -14  -5  -6   90.51   15.26
  19 -14  -6  105.20   16.74
 -14  -5  -6   65.35    9.98
  19 -14  -6  110.10   15.93
  -5  19  -6   65.01   12.49
  -5  19  -6  108.41   17.93
  -5  19  -3  224.41   19.75
  19 -14  -3  228.67   18.31
 -14  -5  -3  237.98   16.62
  19 -14  -3  247.99   21.39
 -14  -5  -3  255.31   18.83
  19 -14  -3  237.35   19.97
  -5  19  -3  229.64   18.93
  -5  19  -3  219.76   20.23
  -5  19   0   56.84   13.18
  19 -14   0   56.02   12.42
  19 -14   0   71.73    8.39
 -14  -5   0   37.50   11.21
  19 -14   0   86.98   14.09
 -14  -5   0   59.23   10.28
  -5  19   3  124.55   18.91
  -5  19   3  151.36   11.20
 -14  -5   3  115.21    5.69
  -5  19   3  124.92   10.13
 -14  -5   3  111.84    6.33
  -6  19 -10  196.59   27.69
  -6  19 -10  175.02   20.89
  19 -13 -10  191.74   28.54
  19 -13 -10  192.15   21.38
  19 -13 -10  189.63   20.68
  -6  19 -10  152.78   18.63
 -13  -6 -10  154.91   21.76
  19 -13  -7   10.51   14.02
  -6  19  -7   15.65   10.64
  19 -13  -7   -0.67   11.55
 -13  -6  -7   25.97   12.62
  19 -13  -7   26.88   12.10
  -6  19  -7   10.50    9.51
  -6  19  -7   51.66   16.00
  19 -13  -4 1271.85   43.39
  -6  19  -4 1204.67   41.63
  -6  19  -4 1361.29   46.44
 -13  -6  -4 1274.46   35.38
  -6  19  -4 1095.90   32.70
 -13  -6  -4 1161.73   31.83
 -13  -6  -4 1254.96   41.09
  19 -13  -4 1302.31   44.19
  19 -13  -4 1179.10   40.21
  -6  19  -4 1262.51   39.35
 -13  -6  -1  103.96   13.29
  19 -13  -1   88.06   14.08
  -6  19  -1   98.29   11.66
  19 -13  -1   89.53   14.16
  -6  19  -1   77.61   13.81
  19 -13   2 1052.68   36.47
 -13  -6   2 1134.50   24.76
 -13  -6   2 1177.65   42.97
  -6  19   2 1127.97   43.28
 -13  -6   2 1098.41   25.86
  -6  19   5   54.04    4.23
  -6  19   5   54.14    4.01
  -7  19 -11   23.52   17.34
 -12  -7 -11   -6.47   14.86
  19 -12 -11    6.48   17.96
  19 -12 -11    6.34   13.84
  19 -12 -11   16.43   13.99
  -7  19  -8  184.89   24.20
  19 -12  -8  184.67   24.29
  19 -12  -8  179.41   20.40
  -7  19  -8  204.36   20.56
  19 -12  -8  169.81   19.84
  -7  19  -8  159.37   18.10
 -12  -7  -8  189.17   21.35
 -12  -7  -5   15.22    8.12
  -7  19  -5   19.29   10.35
  -7  19  -5   18.91   12.89
 -12  -7  -5   19.70    7.07
  19 -12  -5   31.97   12.17
 -12  -7  -5   15.39    9.83
  19 -12  -5   13.31    9.82
  -7  19  -5   25.36   10.32
  -7  19  -5   11.49    7.25
 -12  -7  -2  265.92   17.56
  19 -12  -2  252.76   20.25
 -12  -7  -2  240.39   18.64
  19 -12  -2  242.43   19.87
  -7  19  -2  282.05   21.23
  -7  19  -2  259.77   16.17
  -7  19   1   60.99   14.36
  19 -12   1   33.07   11.43
 -12  -7   1   41.52    8.78
  19 -12   1   48.62   12.10
 -12  -7   1   33.46   10.86
  19 -12   1   47.52    5.95
  -7  19   4  183.70   22.14
  -7  19   4  152.10   10.06
  -8  19  -9  131.51   22.98
  19 -11  -9  146.99   24.39
  -8  19  -9  164.11   19.05
  19 -11  -9  137.90   19.30
  19 -11  -9  145.85   19.19
  -8  19  -9  136.51   17.61
 -11  -8  -9  157.57   21.00
  -8  19  -6   65.99   16.55
 -11  -8  -6   47.79    6.67
  19 -11  -6   54.17   13.77
 -11  -8  -6   52.72   13.08
  -8  19  -6   42.15   12.32
  -8  19  -6   27.90    8.46
  19 -11  -6   55.09   13.58
  -8  19  -6   36.98   11.64
 -11  -8  -3  227.03   16.73
 -11  -8  -3  247.39   15.40
  19 -11  -3  299.62   22.20
 -11  -8  -3  252.29   19.05
  19 -11  -3  222.88   18.78
  -8  19  -3  267.84   19.62
  -8  19  -3  232.42   14.52
 -11  -8   0  280.84   18.40
 -11  -8   0  251.21   19.67
  19 -11   0  262.22   20.17
  19 -11   0  284.14   14.26
  -8  19   0  255.10   16.68
  19 -11   0  237.84   19.80
  -8  19   0  278.87   22.31
  -8  19   3   67.00   14.71
  19 -11   3   45.35    4.20
  19 -11   3   61.57   10.91
 -11  -8   3   60.22    4.67
  -8  19   3   59.03    8.20
 -11  -8   3   68.13    4.82
  -8  19   6  106.55    5.48
  -9  19 -10  198.45   21.02
  -9  19 -10  191.07   26.18
  19 -10 -10  218.05   30.62
  19 -10 -10  142.55   19.73
  19 -10 -10  188.89   22.01
  -9  19 -10  111.83   17.73
 -10  -9 -10  159.60   23.63
  -9  19 -10  172.38   20.22
  -9  19  -7   65.06   16.28
  -9  19  -7   55.69   13.86
 -10  -9  -7   54.59   14.03
  19 -10  -7   50.76   12.93
  19 -10  -7   31.59   12.87
  -9  19  -7   53.67   13.10
 -10  -9  -4  505.77   18.75
 -10  -9  -4  482.96   26.59
  19 -10  -4  582.72   30.12
  19 -10  -4  524.84   24.72
  19 -10  -4  522.64   27.94
  -9  19  -4  536.90   27.40
  -9  19  -4  521.19   20.12
 -10  -9  -1  196.47   17.72
  19 -10  -1  190.16   14.45
 -10  -9  -1  181.22   14.76
  19 -10  -1  209.51   17.88
  -9  19  -1  182.44   13.45
  19 -10  -1  185.81   17.85
 -10  -9  -1  236.03   18.91
  -9  19  -1  207.31   18.52
 -10  -9   2  843.36   35.37
  19 -10   2  925.00   33.09
  -9  19   2  837.92   27.04
 -10  -9   2  925.91   23.23
  -9  19   2  861.49   38.85
  19 -10   2  839.28   34.50
  19 -10   2  859.93   19.68
  -9  19   5  190.99   22.72
  -9  19   5  126.92    9.58
  -9 -10 -11    5.74   15.13
 -10  19 -11   18.11   18.13
  19  -9 -11   18.52   19.36
  19  -9 -11   17.16   14.68
  19  -9 -11   15.45   13.98
 -10  19 -11   13.67   13.51
 -10  19  -8  303.93   29.18
 -10  19  -8  321.29   24.05
  19  -9  -8  374.80   27.19
  19  -9  -8  271.28   23.83
 -10  19  -8  285.14   23.46
  -9 -10  -8  267.78   24.99
  -9 -10  -5  130.49   16.14
  -9 -10  -5  127.99    8.32
 -10  19  -5  137.33   11.09
  19  -9  -5  144.75   18.04
  19  -9  -5  181.99   19.09
  19  -9  -5  147.01   14.07
 -10  19  -5  121.87   15.52
  -9 -10  -2  775.35   25.55
  19  -9  -2  792.12   33.32
  -9 -10  -2  792.86   31.46
  19  -9  -2  795.09   29.16
 -10  19  -2  760.92   23.20
  19  -9  -2  815.20   33.15
  19  -9  -2  753.65   29.90
 -10  19  -2  759.35   31.87
 -10  19   1  138.73   13.27
  19  -9   1  123.73   14.30
  -9 -10   1  110.68   14.46
  19  -9   1  146.42   10.33
  19  -9   1  118.55   15.14
 -10  19   1  133.22   16.53
 -10  19   1  120.92   12.61
  -9 -10   1  122.73   11.81
  19  -9   4  511.09   15.91
  19  -9   4  606.28   25.90
 -10  19   4  545.28   20.15
 -10  19   4  600.15   35.18
 -11  19  -9   93.17   14.83
  19  -8  -9  158.18   24.79
 -11  19  -9  135.63   22.56
  19  -8  -9  163.31   20.68
  19  -8  -9  141.47   19.45
 -11  19  -9  115.01   18.34
  -8 -11  -9  139.61   20.76
 -11  19  -9   97.38   14.34
  -8 -11  -6  129.70   17.00
  19  -8  -6  118.49   16.44
 -11  19  -6   95.75    9.77
  19  -8  -6  121.33   16.11
  19  -8  -6   97.55   11.51
 -11  19  -6  124.86   16.64
  -8 -11  -3  154.77   11.51
  -8 -11  -3  122.24   14.75
  19  -8  -3  160.41   17.40
  19  -8  -3  135.80   13.13
  19  -8  -3  167.66   17.16
 -11  19  -3  120.36    9.64
 -11  19  -3  128.46   15.49
  19  -8   0  308.23   16.13
  -8 -11   0  259.00   17.43
 -11  19   0  295.34   16.66
  19  -8   0  309.18   21.68
 -11  19   0  289.57   21.70
  19  -8   0  333.71   22.16
  -8 -11   0  286.83   18.43
  -8 -11   0  280.87   19.93
  19  -8   3  201.44   15.88
  -8 -11   3  193.19   19.68
  19  -8   3  208.49   11.57
 -11  19   3  188.77   13.82
  -8 -11   3  194.47    9.59
 -11  19   3  199.71   20.40
  19  -8   3  192.47   18.63
  19  -8   6   58.36    9.25
 -11  19   6   55.75    8.16
 -12  19 -10   77.27   20.40
 -12  19 -10   68.78   14.47
  -7 -12 -10   25.80   16.10
  19  -7 -10   72.41   21.76
  19  -7 -10  104.60   18.79
  19  -7 -10  103.21   19.39
 -12  19 -10   63.85   15.81
 -12  19  -7  150.21   17.40
  19  -7  -7  184.09   20.31
  19  -7  -7  138.65   18.98
 -12  19  -7  156.46   18.72
  -7 -12  -7  186.60   21.72
  -7 -12  -4  113.76    8.31
  -7 -12  -4  127.59   16.39
  19  -7  -4  104.58   15.47
  19  -7  -4  117.85   11.89
  19  -7  -4  128.17   16.23
 -12  19  -4  140.36   16.38
 -12  19  -4  123.68    8.62
  -7 -12  -1   84.67   11.08
 -12  19  -1  102.61    9.37
  19  -7  -1  111.99   14.44
  19  -7  -1  111.35   12.19
  19  -7  -1  104.15   12.64
  -7 -12  -1   79.91   12.52
 -12  19  -1  107.75   14.54
  19  -7  -1   72.68   12.76
  19  -7   2  171.88   11.66
  19  -7   2  180.54   15.76
  -7 -12   2  201.73   18.64
 -12  19   2  165.77   13.95
  -7 -12   2  196.06   12.45
  19  -7   2  178.29   17.48
 -12  19   2  172.90   19.08
 -12  19   5   43.37   17.60
  19  -7   5   29.36    7.17
  19  -7   5   31.65    9.54
 -12  19   5   43.40    8.63
  -6 -13 -11    2.18   15.54
 -13  19 -11   10.27   17.32
  19  -6 -11   20.58   19.08
  19  -6 -11   29.41   15.47
  19  -6 -11   49.23   16.85
 -13  19 -11   31.73   15.80
 -13  19  -8  325.43   17.21
 -13  19  -8  387.89   24.85
  19  -6  -8  394.95   28.49
  19  -6  -8  395.42   29.20
 -13  19  -8  326.07   26.06
  -6 -13  -8  399.08   30.71
 -13  19  -5   13.00    4.11
  19  -6  -5   14.54   10.84
  -6 -13  -5   31.62   12.15
  19  -6  -5   12.96    7.10
  19  -6  -5   42.16   12.58
 -13  19  -5   21.15   12.56
  -6 -13  -2 1306.07   32.23
 -13  19  -2 1160.80   23.49
  19  -6  -2 1307.46   41.77
  -6 -13  -2 1293.76   40.59
  19  -6  -2 1244.86   34.37
  19  -6  -2 1281.66   41.22
 -13  19  -2 1341.90   42.81
  -6 -13   1  168.37   16.94
  19  -6   1  159.78   15.57
 -13  19   1  137.49   13.03
  19  -6   1  133.37   11.39
  19  -6   1  153.26   16.39
 -13  19   1  102.85   14.96
  -6 -13   1  153.86   13.17
  19  -6   4 1081.01   28.96
 -13  19   4 1159.65   32.35
  -6 -13   4 1106.51   22.00
 -13  19   4 1137.46   45.94
 -14  19  -9   96.54   20.71
 -14  19  -9  133.86   16.78
  -5 -14  -9   63.98   17.83
  19  -5  -9  133.41   19.24
  19  -5  -9  120.93   20.11
 -14  19  -9  100.20   18.57
 -14  19  -6   47.21    5.16
  19  -5  -6   68.43   14.54
  19  -5  -6   69.13   16.07
 -14  19  -6   40.69    4.90
  19  -5  -6   40.98    7.26
 -14  19  -6   57.24   13.88
  -5 -14  -6   90.04   17.15
  -5 -14  -3   95.84   14.95
 -14  19  -3   66.18    4.71
  19  -5  -3   73.47   13.17
  19  -5  -3   83.34   10.04
 -14  19  -3   74.73   13.82
  -5 -14   0  104.85   13.17
 -14  19   0  101.02   10.15
  19  -5   0  105.94   13.91
  19  -5   0  106.55   14.62
  19  -5   0   97.33   11.28
 -14  19   0   74.96   13.90
  -5 -14   0  109.61   14.18
  -5 -14   0  114.68   13.12
  -5 -14   3  192.93   19.12
  19  -5   3  189.77   15.92
 -14  19   3  157.22   14.44
  -5 -14   3  173.82   11.98
  19  -5   3  178.38   13.91
  19  -5   3  154.58   16.90
 -14  19   3  201.41   19.98
  19  -5   6   40.46   10.25
 -14  19   6   42.75   10.03
  -4 -15 -10   -9.60   14.73
 -15  19 -10   21.57   17.92
  19  -4 -10   11.55   12.92
  19  -4 -10    7.76   13.95
 -15  19 -10    1.38   13.80
  -4 -15  -7   12.14   12.61
  19  -4  -7   12.62   11.70
 -15  19  -7    3.09    3.17
  19  -4  -7    4.02   12.08
 -15  19  -7   10.86   11.20
  19  -4  -4    3.70   10.21
  -4 -15  -4    2.66    9.48
  19  -4  -4    5.80    5.74
  19  -4  -4    6.45   10.83
 -15  19  -4    9.05    9.52
  -4 -15  -1   22.94   11.11
  19  -4  -1   30.04   10.51
  19  -4  -1   22.76   11.45
 -15  19  -1   37.84   10.82
  -4 -15   2   18.20   12.17
  19  -4   2   38.38   10.17
  19  -4   2   20.75    7.57
  -4 -15   2   21.88    7.28
 -15  19   2   13.30   10.25
  19  -4   2   36.37   11.10
  19  -4   5   94.76   12.52
  19  -4   5  111.33   11.98
  -4 -15   5   82.17    7.96
 -15  19   5  125.56   19.35
  -3 -16 -11   45.24   18.79
 -16  19 -11   -2.19   17.16
  19  -3 -11   20.43   16.58
  19  -3 -11    8.29   15.39
 -16  19 -11   31.18   17.66
  19  -3  -8  623.10   35.84
  19  -3  -8  629.40   37.41
 -16  19  -8  573.71   35.15
  -3 -16  -8  566.16   37.24
  -3 -16  -5    6.66   11.10
  19  -3  -5   18.74   11.57
  19  -3  -5    2.35   11.95
 -16  19  -5   32.40   13.11
  19  -3  -2 1278.93   42.77
  -3 -16  -2 1271.62   41.07
  19  -3  -2 1201.66   41.01
 -16  19  -2 1274.90   42.94
  -3 -16   1   14.38    9.15
  19  -3   1   25.32   10.65
  19  -3   1   -0.17    9.12
  -3 -16   1   20.94    7.98
 -16  19   1   16.60   11.15
  19  -3   4  803.38   28.73
 -16  19   4  736.15   37.24
  19  -3   4  791.56   33.71
 -16  19   7   84.72   20.08
  19  -2  -9   82.62   17.75
  -2 -17  -9   80.26   19.33
 -17  19  -9   68.72   14.19
  19  -2  -9   78.69   18.65
 -17  19  -9   33.45   15.58
  -2 -17  -6   68.86   15.30
  19  -2  -6   52.28   15.13
  19  -2  -6   85.54   16.98
 -17  19  -6   68.55   14.90
  -2 -17  -3  155.53   17.50
  19  -2  -3  188.00   19.09
  19  -2  -3  166.17   17.92
 -17  19  -3  189.67   19.46
  19  -2   0    9.38   10.01
  -2 -17   0   -4.19    8.68
  19  -2   0   11.50    9.66
 -17  19   0    7.88   10.02
  -2 -17   3  309.83   23.36
  19  -2   3  310.31   19.80
  -2 -17   3  289.30   17.10
  19  -2   3  288.70   21.11
 -17  19   3  293.49   24.13
 -17  19   6   28.34   15.01
  19  -2   6   57.09   10.23
  -2 -17   6   40.11    8.22
  -1 -18 -10   37.82   18.47
  19  -1 -10    2.76   13.97
  19  -1 -10   48.58   19.44
 -18  19 -10   10.17   14.55
  -1 -18  -7   16.87   14.37
  19  -1  -7   18.39   13.62
  19  -1  -7   11.09   12.68
 -18  19  -7    0.28   12.84
  19  -1  -4  -14.93   11.92
  -1 -18  -4   26.49   11.69
  19  -1  -4    0.41   11.22
 -18  19  -4   -2.84   10.50
  -1 -18  -1   25.34   10.13
  19  -1  -1   21.84   11.14
  19  -1  -1   38.82   11.90
 -18  19  -1   19.34   11.74
  19  -1   2    5.94    8.14
  -1 -18   2    2.67    7.78
  -1 -18   2    9.08    9.71
  19  -1   2   -5.02    9.07
 -18  19   2   13.15   11.50
 -18  19   5   56.76   16.47
  19  -1   5   42.51    9.25
  -1 -18   5   23.37    8.62
  19   0  -8  460.13   32.53
 -19  19  -8  384.96   32.33
   0 -19  -8  475.28   35.61
  19   0  -8  418.13   32.58
   0 -19  -5   16.95   11.77
  19   0  -5   35.96   13.89
  19   0  -5   23.91   14.75
 -19  19  -5    9.60   12.04
   0 -19  -2  727.90   33.10
  19   0  -2  813.34   35.86
  19   0  -2  803.34   35.05
 -19  19  -2  733.82   35.27
  19   0   1    9.32    9.79
  19   0   1    3.06    9.38
   0 -19   1   20.37   10.33
 -19  19   1   15.68   10.06
  19   0   4  465.95   23.16
   0 -19   4  363.38   20.33
   0 -19   4  453.69   28.53
  19   0   4  400.92   25.93
 -19  19   4  453.35   30.05
 -19  19   7   37.79   16.28
  19   0   7   37.94    8.71
   1 -20  -9   14.23   16.06
  19   1  -9   39.47   18.06
 -20  19  -9   48.16   17.07
  19   1  -9    5.02   13.33
   1 -20  -6   43.71   15.54
  19   1  -6  105.88   17.55
  19   1  -6   89.64   18.21
 -20  19  -6   78.16   17.34
  19   1  -3   13.56   11.33
   1 -20  -3   33.10   12.37
  19   1  -3   41.90   12.46
 -20  19  -3   22.46   11.78
  19   1   0   80.70   13.96
   1 -20   0   55.03   11.50
  19   1   0   56.37   12.03
 -20  19   0   69.98   13.82
  19   1   3   15.29    9.66
   1 -20   3   27.10   11.70
 -20  19   3   18.83   12.06
  19   1   3    0.34    9.23
 -20  19   6   74.42   17.26
  19   1   6   92.59   11.66
   2 -21 -10   -8.21   17.32
  19   2 -10  -12.67   16.33
  19   2 -10    8.33   16.88
 -21  19 -10   16.25   16.28
  19   2  -7   15.91   12.36
   2 -21  -7   57.26   17.41
  19   2  -7   26.05   15.86
 -21  19  -7   28.35   14.10
   2 -21  -4   30.36   12.83
  19   2  -4   61.61   15.14
 -21  19  -4   56.02   13.21
  19   2  -4   60.94   14.54
  19   2  -1   80.37   14.58
   2 -21  -1   80.75   13.92
  19   2  -1   89.04   14.56
 -21  19  -1  102.62   16.51
  19   2   2   42.68   12.33
   2 -21   2   19.75   11.21
  19   2   2   26.63   11.83
 -21  19   2   29.26   11.56
 -21  19   5   20.73   13.21
  19   2   5   25.13   11.72
  19   2   5   25.85    9.37
  19   3  -8  173.29   23.10
  19   3  -8  142.62   23.45
 -22  19  -8  179.51   25.57
   3 -22  -8  168.16   25.19
   3 -22  -5   24.54   13.08
  19   3  -5    5.30   12.71
  19   3  -5   22.68   13.96
 -22  19  -5   26.17   14.55
   3 -22  -2  459.09   28.07
  19   3  -2  459.60   29.47
  19   3  -2  543.61   29.90
 -22  19  -2  526.17   31.29
  19   3   1   27.40   10.43
   3 -22   1   10.69    9.96
  19   3   1   11.92    9.93
 -22  19   1   15.42   10.30
  19   3   4  218.71   17.87
   3 -22   4  220.42   21.73
  19   3   4  205.26   19.41
 -22  19   4  214.53   22.86
 -22  19   7   27.22   16.39
  19   3   7   20.98    8.48
   4 -23  -9    3.36   16.82
  19   4  -9    0.36   14.25
  19   4  -9    5.54   14.94
 -23  19  -9    5.61   17.39
  19   4  -6  180.55   23.30
  19   4  -6  138.30   21.33
 -23  19  -6  144.64   22.55
   4 -23  -6  188.92   22.68
  19   4  -3    7.30   11.90
   4 -23  -3   10.41    9.57
  19   4  -3  -15.09   12.81
 -23  19  -3   16.98   13.05
  19   4   0  291.93   22.80
  19   4   0  307.20   23.14
   4 -23   0  279.58   21.39
 -23  19   0  323.96   24.39
  19   4   3   33.99   11.27
   4 -23   3   12.42   11.12
  19   4   3   16.18   10.20
 -23  19   3   26.67   13.93
  19   4   6  129.49   13.88
 -23  19   6  108.40   20.38
   5 -24  -7   95.55   20.10
  19   5  -7  108.36   20.21
 -24  19  -7  136.13   21.85
  19   5  -7   99.17   19.38
   5 -24  -4   22.09   12.58
  19   5  -4    5.31   11.67
 -24  19  -4   18.19   12.90
  19   5  -1  137.66   19.30
   5 -24  -1  135.20   16.03
  19   5  -1   81.16   14.87
 -24  19  -1  133.43   17.97
   5 -24   2  199.68   19.49
  19   5   2  254.47   21.28
  19   5   2  276.70   21.52
 -24  19   2  206.88   21.32
  19   5   5   38.24   11.70
  19   5   5   45.35   11.35
 -24  19   5   53.48   15.62
 -24  19   8   52.66   18.69
   6 -25  -8  117.64   22.61
  19   6  -8   73.30   19.46
  19   6  -8  124.88   22.79
 -25  19  -8   82.31   20.08
   6 -25  -5    4.90   12.96
  19   6  -5   26.93   13.44
  19   6  -5    5.61   13.27
 -25  19  -5   14.86   14.08
   6 -25  -2  184.47   19.07
  19   6  -2  198.30   21.84
  19   6  -2  172.92   20.14
 -25  19  -2  152.24   20.24
  19   6   1   24.09   12.83
   6 -25   1   32.98   11.78
  19   6   1   -4.94    9.71
 -25  19   1   10.70   11.94
  19   6   4   82.72   13.68
   6 -25   4  110.12   17.08
  19   6   4   93.55   15.35
 -25  19   4   94.55   17.76
 -25  19   7    8.98   16.32
   7 -26  -9   21.26   18.87
  19   7  -9   31.86   17.96
  19   7  -9  -13.26   19.33
 -26  19  -9   -9.68   16.33
  19   7  -6  227.61   25.42
  19   7  -6  273.48   27.79
 -26  19  -6  230.98   26.62
   7 -26  -6  201.72   25.11
  19   7  -3   63.26   16.83
   7 -26  -3   66.38   14.58
  19   7  -3   64.45   16.38
 -26  19  -3   95.15   18.11
  19   7   0  314.01   25.41
  19   7   0  269.75   22.38
   7 -26   0  217.02   20.58
 -26  19   0  289.13   24.53
  19   7   3   38.38   12.79
  19   7   3    8.41    9.55
 -26  19   3   19.09   12.34
   7 -26   3   21.36   12.06
  19   7   6  280.60   19.72
 -26  19   6  298.69   28.98
   8 -27  -7   89.84   21.96
  19   8  -7   75.49   20.26
  19   8  -7   99.88   21.25
 -27  19  -7   34.09   17.73
  19   8  -4   75.34   18.63
   8 -27  -4   61.95   15.59
  19   8  -4   35.70   15.72
 -27  19  -4   43.94   15.71
  19   8  -1   81.87   17.95
  19   8  -1   97.48   16.63
 -27  19  -1   43.63   14.03
   8 -27  -1   57.03   13.44
   8 -27   2   89.58   15.89
  19   8   2   83.76   15.89
  19   8   2   88.31   14.57
 -27  19   2   73.89   15.46
  19   8   5   34.63   12.19
  19   8   5   57.50   12.81
 -27  19   5   28.17   16.38
 -27  19   8    9.13   17.30
   9 -28  -8   47.65   21.29
  19   9  -8   83.69   21.63
  19   9  -8   74.65   20.77
 -28  19  -8   80.74   22.30
  19   9  -5   -9.41   14.37
   9 -28  -5  -21.05   14.33
  19   9  -5   12.08   15.53
 -28  19  -5   -9.69   14.65
  19   9  -2   53.98   16.25
  19   9  -2   24.01   13.21
   9 -28  -2   20.82   12.56
 -28  19  -2   46.20   17.14
  19   9   1   72.48   15.54
  19   9   1   40.24   12.58
 -28  19   1   81.72   16.30
   9 -28   1   84.98   16.09
  19   9   4   53.55   13.82
   9 -28   4   51.97   15.12
 -28  19   4   43.84   15.21
  19   9   4   79.81   14.98
 -28  19   7   16.89   17.16
  19  10  -6  189.71   26.32
  19  10  -6  241.23   28.40
 -29  19  -6  202.35   28.57
  10 -29  -6  193.73   26.36
  10 -29  -3   22.34   12.73
  19  10  -3   32.69   15.72
 -29  19  -3   26.05   13.68
  19  10  -3   44.26   16.80
  19  10   0  430.60   31.18
  19  10   0  411.51   27.54
  10 -29   0  355.86   26.01
 -29  19   0  381.84   29.32
  19  10   3   14.05   12.24
  10 -29   3   18.39   11.93
  19  10   3   38.45   12.42
 -29  19   3   24.03   13.27
  19  10   6  222.68   19.58
 -29  19   6  234.36   27.66
  19  11  -7    7.52   15.93
  11 -30  -7    0.89   15.95
  19  11  -7   63.58   22.90
 -30  19  -7   48.10   19.76
  19  11  -4   60.26   19.02
  11 -30  -4   33.75   15.27
  19  11  -4   22.49   15.37
 -30  19  -4   54.88   18.48
  19  11  -1   20.94   14.68
  19  11  -1   11.90   12.95
 -30  19  -1   16.98   13.91
  11 -30  -1   -8.40   10.93
  19  11   2   23.30   14.08
  11 -30   2   35.82   12.70
  19  11   2   46.83   14.30
 -30  19   2   17.27   13.26
  19  11   5   -2.68   10.62
 -30  19   5   16.99   15.93
  19  11   5    2.45   10.43
  19  12  -5   -5.00   15.73
  12 -31  -5  -17.23   14.24
  19  12  -5   19.57   16.87
 -31  19  -5  -28.17   18.27
  19  12  -2   61.46   18.33
  19  12  -2   82.40   18.15
  12 -31  -2   61.58   15.35
 -31  19  -2   59.64   17.14
  19  12   1   39.93   14.97
  19  12   1   35.40   14.05
  12 -31   1   20.94   11.66
 -31  19   1   31.36   14.24
  19  12   4   -2.95   11.45
  19  12   4    0.92   11.02
 -31  19   4  -27.62   15.63
  19  13  -6  193.68   28.13
  13 -32  -6  110.42   23.44
  19  13  -6  211.94   28.58
 -32  19  -6  192.51   29.05
  19  13  -3   -1.44   14.55
  19  13  -3  -10.45   15.66
  13 -32  -3   -7.98   13.22
 -32  19  -3   12.50   15.18
  19  13   0  317.08   28.67
  19  13   0  277.76   25.52
  13 -32   0  254.03   23.62
 -32  19   0  270.91   26.69
  19  13   3   23.00   13.90
  19  13   3   12.02   12.95
  13 -32   3    5.03   11.34
 -32  19   3    3.31   12.96
 -32  19   6  120.51   22.49
  19  14  -4   23.06   18.20
  14 -33  -4   10.50   12.94
  19  14  -4   34.32   17.87
 -33  19  -4   28.92   17.28
  14 -33  -1   38.77   13.34
  19  14  -1   22.40   16.04
  19  14  -1   29.26   14.94
 -33  19  -1   25.32   15.47
  19  14   2    0.75   13.97
  19  14   2    7.38   12.01
  14 -33   2   17.05   13.04
 -33  19   2    5.55   13.30
  19  14   5    5.63   12.43
 -33  19   5   -6.78   14.94
  19  15  -5  -12.73   18.26
  15 -34  -5    8.35   16.75
  19  15  -5    9.58   16.77
 -34  19  -5   -6.36   17.27
  19  15  -2   38.88   18.42
  19  15  -2   28.96   16.55
  15 -34  -2   36.23   15.94
  19  15   1   10.13   14.83
  19  15   1    5.92   12.37
 -34  19   1    9.60   13.51
  15 -34   1   -2.47   11.55
  19  15   4   25.86   14.51
 -34  19   4   27.11   16.91
  19  16  -3  -24.39   17.67
  19  16  -3   20.32   16.14
  16 -35  -3    7.97   14.40
 -35  19  -3    1.14   15.04
  19  16   0  174.98   25.94
  19  16   0  150.00   21.01
  16 -35   0  157.77   20.79
 -35  19   0  180.21   24.91
  19  16   3  -26.97   16.40
  19  16   3   -3.64   12.16
 -35  19   3    1.90   14.45
  17 -36  -1   33.90   13.40
  19  17  -1   21.39   17.05
  19  17  -1   21.07   16.04
 -36  19  -1   13.33   16.11
  19  17   2   55.50   19.02
  19  17   2   40.61   15.38
 -36  19   2   25.49   15.42
  19  18   1   26.51   18.62
  19  18   1   24.35   15.38
 -37  19   1   29.04   16.99
  17  20   0   -6.44   16.95
  17  20   0   27.74   16.61
 -37  17   0   45.87   18.87
  20 -36  -1   -2.04   11.32
  16  20  -1  -27.05   18.10
  16  20  -1    6.48   14.29
 -36  16  -1   -5.42   15.49
  16  20   2   14.40   14.81
  16  20   2   -4.10   12.26
 -36  16   2    0.34   14.36
  15  20  -2   20.54   16.60
  15  20  -2   -6.67   14.05
  20 -35  -2   10.61   12.26
 -35  15  -2   -8.99   14.86
  15  20   1   41.05   17.53
  15  20   1   25.71   12.91
 -35  15   1   37.87   15.77
  15  20   4   27.49   15.57
  14  20  -3  100.81   22.96
  20 -34  -3   50.19   14.90
  14  20  -3   92.36   22.09
 -34  14  -3   82.66   20.47
  20 -34   0   25.06   10.58
  14  20   0   41.34   17.80
  14  20   0   39.79   16.37
 -34  14   0   46.71   17.43
  14  20   3  120.22   21.97
 -34  14   3   88.06   17.41
  13  20  -4   18.26   17.53
  20 -33  -4   -8.02   12.46
  13  20  -4    8.48   16.13
 -33  13  -4  -27.09   17.97
  13  20  -1   20.63   15.96
  13  20  -1   37.32   14.39
 -33  13  -1   61.55   16.71
  20 -33  -1   24.81   11.12
  13  20   2   31.52   15.91
  13  20   2   44.05   13.73
 -33  13   2   27.19   14.37
  13  20   5   19.69   14.37
  20 -32  -5    0.50   14.02
  12  20  -5   -1.15   15.81
  12  20  -5    1.12   16.51
 -32  12  -5    1.83   16.55
  12  20  -2  141.65   22.85
  12  20  -2  136.89   21.34
  20 -32  -2   64.36   13.92
 -32  12  -2   68.32   19.06
  12  20   1    9.82   13.80
  12  20   1   24.94   11.84
  20 -32   1   14.18   10.29
 -32  12   1   -3.14   11.71
  12  20   4   98.90   18.01
 -32  12   4   93.24   16.54
  20 -31  -6   80.93   20.48
  11  20  -6   68.33   20.73
  11  20  -6   97.66   22.94
 -31  11  -6   27.97   18.16
  11  20  -3   87.93   20.60
  20 -31  -3   77.62   15.30
  11  20  -3  120.49   21.11
 -31  11  -3  136.40   22.61
  11  20   0   82.01   18.36
  20 -31   0   92.47   12.94
  11  20   0   87.38   15.92
 -31  11   0  100.74   18.05
  11  20   3  129.93   20.48
  11  20   3  101.49   13.69
 -31  11   3  110.28   16.51
  11  20   6   24.87   13.50
  10  20  -7   29.33   18.15
  10  20  -7    9.47   16.83
 -30  10  -7    3.58   18.18
  20 -30  -7    0.12   15.96
  20 -30  -4   -2.54   12.07
  10  20  -4   19.34   15.41
  10  20  -4   -4.21   14.53
 -30  10  -4   18.03   13.89
  10  20  -1    8.90   14.13
  10  20  -1   45.88   14.53
  20 -30  -1   32.23    9.76
 -30  10  -1   31.81   14.24
  10  20   2   34.01   11.36
 -30  10   2   38.50   12.06
  10  20   2   16.82   13.78
  10  20   5    1.87   11.91
   9  20  -5   37.54   17.73
   9  20  -5   37.11   18.05
 -29   9  -5   89.74   19.77
  20 -29  -5   36.74   15.82
   9  20  -2  191.38   23.87
   9  20  -2  165.57   21.16
 -29   9  -2  179.54   22.45
  20 -29  -2  156.03   17.22
  20 -29   1   12.55    7.11
   9  20   1   34.31   11.72
 -29   9   1   29.53   12.50
   9  20   1   31.13   13.33
   9  20   4  145.09   19.23
 -29   9   4  135.32   16.28
   8  20  -6   82.19   19.68
   8  20  -6  100.47   22.00
 -28   8  -6   74.72   22.46
  20 -28  -6   80.67   19.80
   8  20  -3  169.93   23.11
   8  20  -3  174.07   21.58
 -28   8  -3  200.16   23.85
  20 -28  -3  160.94   18.91
   8  20   0   62.89   15.98
   8  20   0   70.34   13.48
  20 -28   0   45.77    9.43
 -28   8   0   68.23   14.10
   8  20   3  132.40   18.67
   8  20   3  102.74   12.53
 -28   8   3   85.22   13.64
   8  20   6   -4.22   10.32
   7  20  -7   44.04   16.66
   7  20  -7  101.51   22.14
 -27   7  -7   88.26   21.29
  20 -27  -7   95.73   20.56
 -27   7  -4   44.55   12.13
   7  20  -4   26.88   14.13
   7  20  -4   54.34   17.03
 -27   7  -4   20.78   15.47
  20 -27  -4   32.06   12.98
   7  20  -1  146.55   20.43
   7  20  -1  139.06   17.37
 -27   7  -1  138.43   18.02
  20 -27  -1  125.45   14.01
   7  20   2   31.89   13.64
   7  20   2   57.48   10.46
 -27   7   2   39.99   11.20
  20 -27   2   26.10    5.20
   7  20   5  101.26   15.78
 -27   7   5   55.09   11.88
   6  20  -8   64.40   18.82
   6  20  -8   70.39   20.14
 -26   6  -8   58.30   21.96
  20 -26  -8   55.96   19.87
 -26   6  -5   27.09   11.44
   6  20  -5   49.31   17.23
 -26   6  -5   46.98   17.38
  20 -26  -5   17.26   13.02
   6  20  -5   14.28   13.27
   6  20  -2  236.25   23.96
   6  20  -2  230.11   23.02
 -26   6  -2  230.40   22.97
  20 -26  -2  232.54   18.07
  20 -26   1   13.32    6.11
   6  20   1   -0.81   11.88
   6  20   1   29.60   10.38
 -26   6   1   19.31    9.08
   6  20   4   84.31   14.66
   6  20   4  116.12   10.34
 -26   6   4   95.68   12.14
   6  20   7   42.05   11.60
   5  20  -9   53.15   19.24
   5  20  -9   69.65   21.46
 -25   5  -9   69.77   23.04
  20 -25  -9    2.28   16.97
   5  20  -6    0.71   14.40
   5  20  -6   40.99   18.56
 -25   5  -6   30.46   11.06
 -25   5  -6    5.86   14.83
  20 -25  -6   10.92   13.61
 -25   5  -3  106.97   15.43
   5  20  -3  147.44   19.91
 -25   5  -3  118.89   18.77
  20 -25  -3  125.45   15.35
   5  20  -3  140.38   20.33
  20 -25   0   58.09    8.75
   5  20   0   82.94   16.68
   5  20   0   69.63   12.77
 -25   5   0   41.69   11.53
   5  20   3  204.93   20.01
   5  20   3  184.58   13.42
   5  20   6   36.31   12.17
   4  20  -7  145.99   21.56
   4  20  -7  111.62   21.96
 -24   4  -7  131.49   23.22
  20 -24  -7  104.45   19.20
 -24   4  -7  108.83   15.48
 -24   4  -4  140.69   16.21
  20 -24  -4  128.38   17.91
 -24   4  -4  174.69   22.12
   4  20  -4  195.05   22.46
   4  20  -4  164.26   21.31
   4  20  -1  139.41   19.62
   4  20  -1  144.53   16.83
 -24   4  -1  145.53   17.58
  20 -24  -1  145.89   13.17
   4  20   2   44.69   13.10
   4  20   2   60.15   10.46
 -24   4   2   30.87    8.58
   4  20   5  250.65   21.64
 -24   4   5  151.59   11.56
   3  20  -8   25.21   14.35
 -23   3  -8   38.42   12.90
   3  20  -8   12.70   15.54
 -23   3  -8   61.15   19.50
  20 -23  -8   25.37   16.44
   3  20  -5   -1.62    8.62
 -23   3  -5    3.65    9.26
   3  20  -5    9.77   12.95
   3  20  -5    1.90   13.55
 -23   3  -5    2.91   12.12
  20 -23  -5    4.92   11.00
   3  20  -2  280.33   24.67
 -23   3  -2  229.94   20.49
   3  20  -2  318.54   24.51
 -23   3  -2  324.68   25.75
  20 -23  -2  268.97   18.79
   3  20   1   11.06   10.85
   3  20   1   11.81    8.90
 -23   3   1   10.12    8.89
  20 -23   1    8.90    4.46
   3  20   4   34.78   11.36
   3  20   4   29.88    5.59
 -23   3   4   16.82    6.70
   3  20   7    7.33    9.26
   2  20  -9   63.65   17.29
   2  20  -9   49.03   20.31
  20 -22  -9   65.54   21.07
 -22   2  -9   74.29   22.33
 -22   2  -9   35.78   13.72
   2  20  -6   34.48   10.62
  20 -22  -6   35.02   13.02
   2  20  -6   25.72   13.82
   2  20  -6   50.99   16.83
 -22   2  -6   37.62   12.04
  20 -22  -6   49.37   15.67
 -22   2  -6   44.18   17.34
   2  20  -3   82.48   13.62
 -22   2  -3   76.74   13.33
   2  20  -3   35.51   13.80
   2  20  -3   91.51   16.83
  20 -22  -3   75.91   13.43
 -22   2  -3   53.94   15.33
   2  20   0   34.55   12.57
  20 -22   0   21.07    6.11
   2  20   0   51.72   11.45
 -22   2   0   33.00   10.29
   2  20   3   66.47    8.54
 -22   2   3   68.60    9.33
   2  20   3   62.77   13.16
   2  20   6    5.79    9.53
   1  20 -10   80.18   19.42
   1  20 -10   90.50   25.47
  20 -21 -10   72.15   23.34
 -21   1 -10   55.43   20.96
 -21   1 -10   39.75   14.35
   1  20  -7  187.18   23.18
   1  20  -7  210.71   25.74
  20 -21  -7  200.66   25.67
 -21   1  -7  228.51   26.60
 -21   1  -7  187.77   19.24
  20 -21  -7  164.06   19.25
   1  20  -7  146.53   14.44
 -21   1  -4   89.07   14.21
   1  20  -4  133.39   19.19
  20 -21  -4  115.31   16.24
 -21   1  -4  129.69   19.49
   1  20  -4  123.51   18.17
   1  20  -4  107.11   14.43
  20 -21  -4  123.06   17.04
   1  20  -1  547.88   30.68
   1  20  -1  588.72   32.30
 -21   1  -1  555.54   29.78
   1  20  -1  512.89   27.48
  20 -21  -1  510.63   21.28
 -21   1  -1  604.07   30.03
   1  20   2   66.20   13.32
   1  20   2   66.48    9.56
 -21   1   2   56.69    9.23
   1  20   5  481.57   26.14
   0  20  -8  121.37   19.78
 -20   0  -8  103.22   16.87
   0  20  -8  148.36   23.54
  20 -20  -8  118.07   22.19
 -20   0  -8  191.33   26.92
  20 -20  -8  112.22   17.69
   0  20  -5    8.29    9.42
  20 -20  -5   14.44   12.30
   0  20  -5   13.24   12.52
   0  20  -5   21.91   13.25
 -20   0  -5   20.05   10.19
  20 -20  -5   -6.88   12.04
 -20   0  -5   13.70   12.53
   0  20  -2  108.64   17.02
   0  20  -2   94.70   15.52
  20 -20  -2  129.05   13.60
 -20   0  -2  111.26   15.13
 -20   0  -2  125.89   17.31
   0  20  -2  114.43   15.71
   0  20   1   -3.88   10.44
   0  20   1   14.34    8.21
  20 -20   1    1.76    3.03
 -20   0   1    6.70    7.31
   0  20   4   54.09    5.81
 -20   0   4   49.20    5.48
   0  20   4   49.08    5.82
   0  20   7    8.42    8.44
  -1  20  -9   53.88   17.60
  -1  20  -9   34.31   17.25
  20 -19  -9   27.86   18.58
 -19  -1  -9   29.94   17.54
 -19  -1  -9   20.18   12.85
  20 -19  -9   32.46   14.10
 -19  -1  -6   92.18   14.25
  -1  20  -6  120.87   18.69
  -1  20  -6   79.09   18.07
  20 -19  -6   85.65   17.75
 -19  -1  -6  111.50   20.64
  -1  20  -6   89.74   13.74
  20 -19  -6   56.29   13.73
  -1  20  -3   -3.29    9.21
 -19  -1  -3    0.06    8.75
  20 -19  -3    4.03   10.36
  -1  20  -3   -4.04   10.68
  -1  20  -3   -7.23   10.59
  20 -19  -3   14.20    9.48
 -19  -1  -3   -1.14   10.69
  -1  20   0   82.58   12.89
  20 -19   0   78.55    8.04
 -19  -1   0   73.49   11.29
  -1  20   0   63.66   13.14
 -19  -1   0   85.51   14.09
  -1  20   0   83.89   16.00
  -1  20   3   27.50   11.82
  -1  20   3   19.37    6.33
 -19  -1   3   31.70    5.79
  -1  20   6   83.92   12.97
 -18  -2 -10  120.49   20.23
  -2  20 -10  154.29   26.60
  -2  20 -10   88.34   18.68
  20 -18 -10  125.38   26.94
 -18  -2 -10  165.45   27.56
  -2  20  -7  342.31   27.06
  -2  20  -7  329.76   30.13
  20 -18  -7  320.17   31.10
 -18  -2  -7  225.57   21.11
 -18  -2  -7  299.04   29.60
  20 -18  -7  297.97   23.99
  -2  20  -7  268.33   20.45
  -2  20  -4  168.84   20.12
  -2  20  -4  122.35   17.52
  20 -18  -4  142.56   18.04
 -18  -2  -4  151.65   19.37
 -18  -2  -4  159.73   17.68
  20 -18  -4  132.76   17.37
  -2  20  -4  138.45   16.24
  -2  20  -1  844.38   35.69
  -2  20  -1  877.52   34.15
  20 -18  -1  820.15   26.11
 -18  -2  -1  877.81   33.53
 -18  -2  -1  805.21   33.94
  -2  20  -1  742.73   34.56
  -2  20   2  126.43   19.00
  -2  20   2  132.57   12.13
  -2  20   2  129.99   15.75
 -18  -2   2  138.28   10.83
  -2  20   5  456.29   25.23
  -2  20   8   52.84   10.62
  -3  20  -8   10.23   12.29
  -3  20  -8   51.97   17.89
  20 -17  -8   37.54   18.62
  20 -17  -8   13.11   13.66
 -17  -3  -8   10.02   16.01
 -17  -3  -8   28.02   11.54
  -3  20  -8   27.76   11.11
  20 -17  -8   39.30   14.39
  -3  20  -5   15.38   11.80
 -17  -3  -5    4.21    9.76
  -3  20  -5   22.57   13.18
  20 -17  -5    9.94   12.29
  20 -17  -5   15.34   12.39
 -17  -3  -5    9.32   13.67
  -3  20  -5   25.01   11.00
  20 -17  -5   10.96   10.90
  -3  20  -2   22.80   10.08
  20 -17  -2   50.87   13.45
  -3  20  -2   41.44   12.14
  -3  20  -2   33.40   12.03
 -17  -3  -2   42.46   10.89
  20 -17  -2   16.48    8.15
  20 -17  -2   19.42   11.92
 -17  -3  -2   36.51   11.84
  -3  20   1   97.51   15.02
  20 -17   1   65.25    5.31
  20 -17   1   57.91    5.00
 -17  -3   1   89.23   10.65
 -17  -3   1   88.24   14.29
  -3  20   1   87.49   11.46
  -3  20   1   81.98   15.96
  -3  20   4   64.23   12.77
  -3  20   4   52.09    5.53
  -3  20   4   49.13    5.84
  -3  20   7   20.29    9.61
  -4  20  -9   35.03   14.58
  -4  20  -9   15.69   15.67
  20 -16  -9   -2.35   16.09
  20 -16  -9   16.81   12.95
 -16  -4  -9   31.27   17.35
 -16  -4  -9   26.98   13.51
  -4  20  -9   -1.13   10.23
  20 -16  -9    6.00   11.68
  -4  20  -6  323.29   25.34
  -4  20  -6  353.25   29.48
  20 -16  -6  358.77   29.08
 -16  -4  -6  321.63   23.81
  20 -16  -6  357.81   27.30
  20 -16  -6  332.53   23.86
  -4  20  -6  332.71   22.38
  -4  20  -3   32.74   12.44
  -4  20  -3   43.11   13.20
  20 -16  -3   59.56   12.11
  20 -16  -3   54.32   13.80
 -16  -4  -3   46.33   12.18
  -4  20  -3   33.01   11.77
  20 -16  -3   24.84   11.79
  20 -16   0  215.48   21.22
  -4  20   0  206.59   19.03
  -4  20   0  225.56   18.03
  20 -16   0  223.49   12.49
 -16  -4   0  268.78   18.47
 -16  -4   0  218.73   19.29
  -4  20   0  193.54   20.29
  -4  20   3    4.97    5.65
 -16  -4   3    7.18    3.78
  -4  20   3   16.29    6.43
 -16  -4   3   10.33    3.39
  -5  20 -10  134.00   20.42
  -5  20 -10  134.25   24.50
  20 -15 -10  132.62   27.28
 -15  -5 -10   80.98   18.64
  20 -15 -10   90.88   18.06
 -15  -5 -10  116.83   25.78
  20 -15 -10   84.02   17.21
  20 -15  -7  544.80   35.63
  -5  20  -7  529.35   31.07
  -5  20  -7  456.17   33.02
 -15  -5  -7  511.34   30.38
  20 -15  -7  519.93   32.35
  20 -15  -7  409.83   27.20
  -5  20  -7  493.57   27.21
  -5  20  -4  192.51   20.68
  20 -15  -4  199.48   19.44
 -15  -5  -4  177.97   15.56
  20 -15  -4  191.39   19.96
  -5  20  -4  173.22   18.88
 -15  -5  -4  162.61   16.55
  20 -15  -4  178.26   18.69
  -5  20  -4  189.27   17.56
  -5  20  -1  710.38   31.13
  20 -15  -1  674.65   24.53
 -15  -5  -1  598.32   28.85
  20 -15  -1  627.51   31.36
  20 -15  -1  569.48   29.93
  -5  20  -1  601.35   30.24
  -5  20   2  190.09   14.16
 -15  -5   2  194.62   11.52
  -5  20   2  155.83   20.57
  -5  20   8   31.88   10.41
  -6  20  -8    3.01   11.34
  -6  20  -8   22.22   16.28
  20 -14  -8   18.36   15.29
  20 -14  -8    7.79   11.35
 -14  -6  -8    0.19   11.51
  -6  20  -8   -2.41    9.50
  20 -14  -8   -3.18   11.15
 -14  -6  -5  133.30   13.29
  -6  20  -5  142.59   17.10
  -6  20  -5  175.05   20.86
  20 -14  -5  147.26   18.88
 -14  -6  -5  125.19   12.34
  20 -14  -5  152.71   18.97
  20 -14  -5  128.52   16.87
  -6  20  -5  128.95   15.60
 -14  -6  -5  132.68   15.95
  -6  20  -2   54.64   12.95
  20 -14  -2   50.77   13.40
 -14  -6  -2   44.33   11.97
  -6  20  -2   55.09   11.93
  20 -14  -2   37.28   12.11
  20 -14   1  227.75   20.26
  20 -14   1  230.02   20.29
  20 -14   1  220.64   10.51
 -14  -6   1  236.72   15.21
  20 -14   1  201.84    9.56
  -6  20   1  195.58   21.39
 -14  -6   1  231.69   20.26
  -6  20   4  114.97   19.76
  -6  20   4  116.01    9.15
  -6  20   4  107.68    8.59
  -7  20  -9   36.67   14.36
  -7  20  -9    0.15   16.41
  20 -13  -9   -2.51   15.87
 -13  -7  -9   14.35   13.48
  20 -13  -9   -5.13   12.06
  20 -13  -9   -0.35   11.38
  -7  20  -9   10.12   11.49
 -13  -7  -6   88.05   10.81
  -7  20  -6   94.60   15.85
  -7  20  -6   98.27   17.84
  20 -13  -6   63.83   16.50
  20 -13  -6   80.05   15.89
 -13  -7  -6   90.58   14.82
  20 -13  -6  110.83   17.03
  -7  20  -6   73.17   13.11
  -7  20  -3   35.63    8.81
 -13  -7  -3   49.05    9.61
  20 -13  -3   38.10   12.54
  -7  20  -3   42.77   11.76
  20 -13  -3   39.94   11.98
 -13  -7  -3   44.54   11.71
 -13  -7   0  382.81   23.58
  20 -13   0  415.92   25.00
  20 -13   0  391.91   16.48
  20 -13   0  362.72   24.41
  -7  20   0  386.76   25.73
  -7  20   3   28.94   13.12
 -13  -7   3   12.68    2.98
 -13  -7   3   14.33    3.18
  -7  20   3   26.09    6.74
  20 -12 -10  142.44   28.16
  -8  20 -10  151.28   25.76
  -8  20 -10  138.66   18.95
  20 -12 -10  124.66   19.56
  20 -12 -10  117.01   18.78
  -8  20 -10   80.69   16.67
 -12  -8 -10  140.10   22.06
 -12  -8  -7  498.94   30.93
  20 -12  -7  455.39   34.47
  -8  20  -7  478.63   29.29
  -8  20  -7  594.84   37.35
  20 -12  -7  472.64   30.07
  20 -12  -7  484.65   29.51
  -8  20  -7  514.90   28.58
 -12  -8  -4  141.00   14.23
 -12  -8  -4  123.37   11.62
 -12  -8  -4  146.56   17.53
  20 -12  -4  169.08   18.65
  -8  20  -4  131.84   12.61
  20 -12  -4  135.69   16.87
  -8  20  -4  122.78   15.74
  20 -12  -1  591.24   29.94
  20 -12  -1  537.80   22.91
  -8  20  -1  557.62   23.80
  20 -12  -1  519.90   28.29
  -8  20  -1  530.46   29.09
 -12  -8  -1  527.68   27.51
  20 -12   2  196.68   19.42
 -12  -8   2  201.41   19.82
  20 -12   2  206.33   17.80
  -8  20   2  202.21   14.61
 -12  -8   2  228.53   12.60
  -8  20   2  174.64   19.56
  20 -12   2  208.15    9.04
  -8  20   5  409.48   14.15
  -9  20 -11   79.81   21.69
 -11  -9 -11   37.43   17.07
  20 -11 -11   46.66   24.36
  20 -11 -11   71.72   18.29
  20 -11 -11   84.86   18.52
  20 -11  -8   34.81   16.32
  -9  20  -8   54.13   15.00
  -9  20  -8   47.61   17.71
 -11  -9  -8   36.30   13.85
  20 -11  -8   48.96   15.11
  20 -11  -8   18.05   11.48
  -9  20  -8   12.98   10.75
  -9  20  -5  249.37   21.62
 -11  -9  -5  245.91   21.41
  -9  20  -5  219.07   14.75
 -11  -9  -5  251.85   13.39
  20 -11  -5  255.95   22.00
  20 -11  -5  245.27   21.33
  -9  20  -5  257.29   20.67
 -11  -9  -2   99.46   11.70
  20 -11  -2   72.06   14.70
 -11  -9  -2  117.02   14.48
  -9  20  -2  109.07   11.21
  20 -11  -2  107.17   14.68
  -9  20  -2  126.14   15.52
  20 -11   1  646.63   29.41
 -11  -9   1  613.78   30.23
  20 -11   1  621.31   18.58
  20 -11   1  645.71   31.69
  -9  20   1  655.36   33.18
 -11  -9   1  672.74   24.52
  20 -11   4   45.27    4.61
  -9  20   4   58.04    8.40
 -10  20  -9   89.52   15.80
 -10  20  -9   78.31   14.16
 -10  20  -9  121.38   22.12
  20 -10  -9   78.70   21.70
 -10 -10  -9   95.66   19.71
  20 -10  -9   91.98   18.48
  20 -10  -9   91.76   17.27
 -10  20  -9   50.36   14.61
 -10  20  -6  112.10   17.09
 -10 -10  -6   57.59    5.51
 -10  20  -6   92.40   10.81
  20 -10  -6   85.99   15.10
 -10 -10  -6   60.34   14.13
  20 -10  -6   92.73   16.01
 -10  20  -6   97.12   15.37
 -10  20  -3   25.45    7.14
 -10 -10  -3   18.94    7.14
  20 -10  -3   34.21   12.98
  20 -10  -3   17.91    9.06
  20 -10  -3   26.46   11.71
 -10  20  -3   28.71   11.38
 -10 -10  -3   24.43   11.34
 -10 -10   0  114.30   14.87
  20 -10   0  141.78   11.43
 -10  20   0  130.28   12.77
  20 -10   0  189.75   17.69
  20 -10   0   99.44   14.64
 -10  20   0  147.02   17.90
 -10 -10   0  157.26   15.27
 -10 -10   3   18.01   10.64
 -10  20   3   36.03   13.12
  20 -10   3   35.80   10.90
 -10 -10   3   21.75    4.38
  20 -10   3   24.86    4.92
 -10  20   3   13.43    7.13
 -10  20   6   40.64    6.16
 -11  20 -10   42.98   14.20
  20  -9 -10   24.14   18.91
  -9 -11 -10   36.02   15.84
  20  -9 -10   30.95   15.21
 -11  20 -10   28.43   16.96
  20  -9 -10   59.81   17.21
 -11  20 -10   53.64   15.46
 -11  20  -7   63.48   14.53
  -9 -11  -7   69.70   15.21
  20  -9  -7   65.20   14.96
  20  -9  -7   65.18   15.13
 -11  20  -7   69.28   14.66
  -9 -11  -4   55.42    8.13
  20  -9  -4   68.96   14.08
  20  -9  -4   61.40   11.08
  -9 -11  -4   54.45   14.03
  20  -9  -4   62.37   13.72
 -11  20  -4   57.57   12.30
 -11  20  -4   49.71    7.93
  -9 -11  -1  521.32   24.07
  20  -9  -1  585.41   29.22
 -11  20  -1  510.33   20.32
  20  -9  -1  502.19   22.56
  20  -9  -1  514.25   27.54
  -9 -11  -1  489.81   26.70
 -11  20  -1  507.62   28.57
  20  -9   2   84.75    8.54
  20  -9   2   99.42   13.01
 -11  20   2   97.05   11.85
  -9 -11   2  106.18   10.01
 -11  20   2   91.24   16.99
  20  -9   2   97.17   14.63
  -9 -11   2   84.58   14.45
 -11  20   5  293.13   27.81
  20  -9   5  237.81   12.51
 -11  20   5  268.55   14.84
 -12  20 -11   38.31   18.68
  -8 -12 -11   49.18   19.70
  20  -8 -11   23.82   21.03
  20  -8 -11   58.82   17.19
  20  -8 -11   27.28   16.80
 -12  20 -11   47.11   16.44
 -12  20  -8   46.48   12.51
 -12  20  -8   42.23    9.91
  -8 -12  -8   50.38   16.29
  20  -8  -8   41.00   13.82
  20  -8  -8   15.55   13.48
 -12  20  -8   33.18   13.45
 -12  20  -8   36.63   16.31
  -8 -12  -5  389.80   25.74
  20  -8  -5  375.71   26.35
  20  -8  -5  328.51   18.47
  20  -8  -5  362.45   26.07
 -12  20  -5  369.92   25.32
 -12  20  -5  320.26   14.46
  -8 -12  -2  276.39   16.40
  20  -8  -2  357.48   24.01
 -12  20  -2  283.20   14.09
  -8 -12  -2  296.85   21.32
  20  -8  -2  296.34   18.98
  20  -8  -2  349.18   23.70
 -12  20  -2  323.87   22.86
  -8 -12   1  806.08   34.11
  20  -8   1  872.50   33.27
  20  -8   1  823.18   24.36
  20  -8   1  794.51   34.20
 -12  20   1  843.49   36.30
  -8 -12   1  845.07   28.06
 -12  20   1  843.39   29.91
 -12  20   4   55.85   15.16
  20  -8   4   49.85    7.60
 -12  20   4   57.25    9.91
  -8 -12   4   45.35    4.32
 -13  20  -9   -4.63   11.42
 -13  20  -9   11.28   14.94
  -7 -13  -9   19.57   15.12
  20  -7  -9   14.88   13.74
  20  -7  -9    5.98   13.17
 -13  20  -9   -6.01   12.48
  -7 -13  -6  157.03   19.38
 -13  20  -6  107.66    8.77
  20  -7  -6  155.24   18.89
  20  -7  -6  128.91   18.21
  20  -7  -6  108.07   11.38
 -13  20  -6  157.95   19.09
  20  -7  -3    2.85   10.04
  20  -7  -3   11.52    7.72
 -13  20  -3    2.58    4.34
  20  -7  -3   13.12   10.63
  -7 -13  -3   -4.91    9.38
  -7 -13  -3    4.03    5.75
 -13  20  -3    2.02    8.79
 -13  20   0  328.20   17.46
  20  -7   0  366.47   22.83
  20  -7   0  347.72   23.34
 -13  20   0  358.65   24.37
  20  -7   0  356.84   18.36
  -7 -13   0  307.87   19.70
  -7 -13   0  348.96   23.01
  20  -7   3  129.72   14.07
  -7 -13   3  117.13   17.31
 -13  20   3   91.81   11.58
  -7 -13   3  117.13    9.25
  20  -7   3   97.30   10.16
 -13  20   3  121.15   18.38
  20  -7   3  116.79   15.87
 -13  20   6   42.36   16.80
 -13  20   6   37.91    8.70
  20  -7   6   29.09    8.92
 -14  20 -10    3.93   10.96
 -14  20 -10    4.88   15.00
  -6 -14 -10    4.11   14.78
  20  -6 -10   -2.34   12.71
  20  -6 -10   12.38   14.87
 -14  20 -10   20.68   14.85
  20  -6  -7   62.97   15.54
 -14  20  -7   36.88    6.20
  -6 -14  -7   57.58   15.82
  20  -6  -7   44.71   13.97
 -14  20  -7   54.68   14.05
  -6 -14  -4   94.24   15.20
  20  -6  -4   69.82   13.31
 -14  20  -4   45.80    4.69
  20  -6  -4   73.46   10.08
  20  -6  -4   77.17   14.34
 -14  20  -4   68.18   14.38
  -6 -14  -1  132.99   13.25
 -14  20  -1  124.54   10.15
  20  -6  -1  145.29   14.68
  -6 -14  -1  155.15   16.59
  20  -6  -1  138.32   15.88
 -14  20  -1  132.95   16.01
  20  -6   2  118.62   11.42
  20  -6   2  123.53   14.39
  -6 -14   2  117.14   15.17
  -6 -14   2  116.40   11.08
  20  -6   2  117.07   16.01
 -14  20   2   91.19   15.62
 -14  20   5   45.46   15.74
  20  -6   5   46.18    9.84
  -6 -14   5   29.54    4.24
  20  -6   5   36.80    8.83
 -14  20   5   52.12   10.05
 -15  20  -8  140.43   18.49
  20  -5  -8  155.22   20.08
  20  -5  -8  115.03   19.10
 -15  20  -8  111.14   18.33
  -5 -15  -8  154.46   22.62
  -5 -15  -5  329.12   25.67
  20  -5  -5  331.07   24.82
  20  -5  -5  296.48   15.00
  20  -5  -5  323.72   25.17
 -15  20  -5  341.97   25.82
 -15  20  -2  227.09   10.18
  20  -5  -2  244.00   20.96
  -5 -15  -2  275.70   21.31
  20  -5  -2  264.83   17.33
  20  -5  -2  269.70   21.77
 -15  20  -2  277.37   22.25
 -15  20   1  477.15   22.06
  -5 -15   1  446.32   26.04
  20  -5   1  452.05   24.66
  20  -5   1  474.81   26.78
  -5 -15   1  436.83   21.52
 -15  20   1  475.69   28.23
  20  -5   1  426.59   20.40
  20  -5   4   69.21   14.24
  20  -5   4   57.95   10.40
  -5 -15   4   65.48    7.91
 -15  20   4   90.12   17.53
 -16  20  -9   25.00   12.31
  -4 -16  -9   32.85   16.62
  20  -4  -9   58.25   15.61
  20  -4  -9   48.22   16.81
 -16  20  -9   53.07   16.72
  20  -4  -6  147.92   19.35
  20  -4  -6  141.35   19.07
 -16  20  -6  123.32   17.57
  -4 -16  -6  128.68   20.01
  20  -4  -3   12.71   10.11
  20  -4  -3    8.01    6.58
  -4 -16  -3   -9.87   10.13
  20  -4  -3   15.09   10.80
 -16  20  -3   10.09   11.09
  20  -4   0  187.04   17.45
  20  -4   0  168.08   17.03
 -16  20   0  145.97   17.61
  -4 -16   0  154.74   17.11
  -4 -16   3  114.26   17.30
  20  -4   3   79.04   10.74
  20  -4   3   77.19   12.37
  -4 -16   3   78.17    9.73
  20  -4   3  111.14   15.65
 -16  20   3  113.86   16.85
  20  -4   6  320.24   18.42
 -16  20   6  305.49   30.01
 -17  20 -10   68.71   21.85
  -3 -17 -10   65.63   20.71
  20  -3 -10   50.31   16.46
  20  -3 -10   39.53   17.76
 -17  20 -10   57.86   17.30
  -3 -17  -7   17.42   12.57
  20  -3  -7   35.06   13.71
  20  -3  -7    7.58   12.48
 -17  20  -7    4.48   11.83
  -3 -17  -4   90.17   15.34
  20  -3  -4   80.65   14.39
  20  -3  -4   98.67   15.94
 -17  20  -4   77.27   14.58
  -3 -17  -1   11.68    9.54
  20  -3  -1   21.99   10.14
  20  -3  -1   12.35   10.27
 -17  20  -1   23.57   10.79
  -3 -17   2   40.32   11.53
  20  -3   2   67.87   11.87
  -3 -17   2   51.49    9.71
 -17  20   2   45.29   12.69
  20  -3   2   56.35   13.21
  20  -3   5    7.94    8.04
  -3 -17   5    5.69    6.21
  20  -2  -8  267.86   25.84
  20  -2  -8  244.51   26.25
 -18  20  -8  275.00   27.48
  -2 -18  -8  263.54   27.37
  20  -2  -5  404.35   27.74
  20  -2  -5  375.50   27.73
 -18  20  -5  341.66   26.03
  20  -2  -2  235.69   20.98
  -2 -18  -2  264.68   20.74
  20  -2  -2  228.20   20.80
 -18  20  -2  263.43   21.79
  -2 -18   1 1055.76   38.85
  20  -2   1 1168.21   39.34
  20  -2   1 1016.99   37.71
 -18  20   1 1140.48   42.81
  20  -2   4   90.98   14.21
  20  -2   4   94.72   12.92
  -2 -18   4   53.14    9.81
  -2 -18   4   69.42   15.12
 -18  20   4   98.34   17.99
 -18  20   7  610.58   40.16
 -19  20  -9   26.63   12.87
  -1 -19  -9    9.40   16.48
  20  -1  -9    7.08   13.63
  20  -1  -9   16.22   14.50
 -19  20  -9   10.05   13.73
  -1 -19  -6   53.03   16.51
  20  -1  -6   47.99   16.00
  20  -1  -6   49.50   17.11
 -19  20  -6   64.82   15.78
  20  -1  -3   76.17   14.97
  -1 -19  -3   55.57   13.68
  20  -1  -3   59.99   14.32
 -19  20  -3   37.60   12.92
  20  -1   0   43.95   11.78
  -1 -19   0   26.25   10.46
  20  -1   0   34.70   11.33
 -19  20   0   35.42   11.61
  20  -1   3   11.86    9.16
  -1 -19   3    9.93    7.97
  -1 -19   3   18.63   10.46
 -19  20   3    3.33   12.87
  20  -1   3   23.97   10.61
  20  -1   6  156.29   14.23
 -19  20   6  119.65   20.89
  20   0 -10  172.32   23.96
  20   0 -10  166.15   26.41
 -20  20 -10  194.37   26.50
   0 -20 -10  182.19   28.34
   0 -20  -7   10.90   13.76
  20   0  -7   12.12   13.77
  20   0  -7   -1.90   13.16
 -20  20  -7   -9.53   13.30
   0 -20  -4  101.91   16.40
  20   0  -4   93.80   17.33
  20   0  -4  106.77   16.84
 -20  20  -4   73.97   16.15
   0 -20  -1    5.70    9.24
  20   0  -1    2.67    9.85
  20   0  -1   17.25   10.97
 -20  20  -1   12.40   10.28
  20   0   2   87.56   13.48
  20   0   2   80.45   14.04
   0 -20   2   76.89   14.59
 -20  20   2   68.62   16.03
 -20  20   5  -18.28   14.50
  20   0   5    7.64   11.03
  20   0   5    2.33    8.09
  20   1  -8  178.13   22.84
  20   1  -8  170.11   24.40
 -21  20  -8   92.42   19.71
   1 -21  -8  135.91   23.15
  20   1  -5  384.80   29.24
  20   1  -5  359.03   28.65
 -21  20  -5  310.10   27.41
   1 -21  -5  354.22   27.60
  20   1  -2  147.11   18.58
   1 -21  -2  137.19   16.91
  20   1  -2  110.44   16.86
 -21  20  -2  133.85   18.54
  20   1   1  630.83   30.98
  20   1   1  572.47   28.85
 -21  20   1  592.23   32.21
   1 -21   1  632.43   31.58
  20   1   4   60.21   13.85
  20   1   4   30.21   10.06
   1 -21   4   27.78   13.73
 -21  20   4   32.77   13.59
  20   1   7  248.83   16.37
 -21  20   7  250.00   28.83
   2 -22  -9   28.92   17.57
  20   2  -9   46.51   17.96
  20   2  -9   29.57   18.51
 -22  20  -9   62.67   19.93
   2 -22  -6   35.67   14.45
  20   2  -6   34.15   15.51
  20   2  -6   31.54   15.91
 -22  20  -6   58.40   15.72
  20   2  -3   64.48   14.65
   2 -22  -3   77.06   14.86
  20   2  -3   85.02   15.75
 -22  20  -3   77.24   16.40
  20   2   0   20.58   11.82
   2 -22   0   15.07   11.05
  20   2   0   11.72   10.20
 -22  20   0   52.80   15.51
  20   2   3   70.57   12.02
   2 -22   3   56.24   13.61
  20   2   3   83.23   14.47
 -22  20   3   58.95   15.10
 -22  20   6   59.46   17.58
  20   2   6   68.97   11.69
   3 -23  -7   11.98   15.51
  20   3  -7   23.22   15.50
  20   3  -7   23.43   15.03
 -23  20  -7  -28.42   15.82
  20   3  -4   36.80   14.08
   3 -23  -4   17.55   12.46
  20   3  -4   39.79   13.75
 -23  20  -4   51.60   16.11
  20   3  -1   24.85   12.61
  20   3  -1    7.88   11.15
 -23  20  -1   26.89   12.83
   3 -23  -1    4.83    9.86
   3 -23   2  284.78   22.85
  20   3   2  307.26   22.80
  20   3   2  263.03   20.98
 -23  20   2  291.72   24.74
 -23  20   5   28.30   16.11
  20   3   5   46.84   12.96
  20   3   5   34.78   11.31
 -23  20   8  -12.59   17.87
   4 -24  -8  103.48   22.30
  20   4  -8   89.54   19.41
  20   4  -8   87.87   21.12
 -24  20  -8  114.95   21.60
  20   4  -5  207.93   23.74
  20   4  -5  189.17   23.40
 -24  20  -5  164.95   22.94
   4 -24  -5  201.26   23.80
  20   4  -2   53.41   14.69
  20   4  -2   38.01   14.29
   4 -24  -2   57.78   13.35
 -24  20  -2   49.11   14.86
  20   4   1  211.54   20.69
  20   4   1  206.25   19.64
 -24  20   1  202.83   22.09
   4 -24   1  188.46   19.84
  20   4   4   87.35   13.66
   4 -24   4   62.28   15.28
 -24  20   4   97.36   18.65
  20   4   4   81.25   14.36
 -24  20   7   90.94   21.19
  20   5  -9   90.09   21.06
  20   5  -9   77.78   21.51
 -25  20  -9   79.64   21.29
   5 -25  -9   89.34   24.00
  20   5  -6   86.84   18.70
   5 -25  -6   87.40   18.82
  20   5  -6   47.55   17.32
 -25  20  -6  110.40   21.13
   5 -25  -3  120.07   17.76
  20   5  -3   85.34   17.86
  20   5  -3  109.48   17.45
 -25  20  -3   97.77   18.40
  20   5   0   62.40   14.46
   5 -25   0   49.27   12.40
  20   5   0   69.87   14.84
 -25  20   0   72.09   16.18
  20   5   3  152.76   17.41
   5 -25   3  132.28   18.57
  20   5   3  179.60   18.61
 -25  20   3  192.72   22.54
 -25  20   6   23.15   15.26
  20   5   6   -4.00    8.94
   6 -26  -7   12.85   15.36
  20   6  -7   62.24   19.24
  20   6  -7   32.65   18.93
 -26  20  -7    4.13   14.88
  20   6  -4   94.90   18.91
   6 -26  -4   82.66   16.65
  20   6  -4  104.00   18.28
 -26  20  -4   59.98   16.29
  20   6  -1   80.18   16.40
  20   6  -1   69.29   14.84
 -26  20  -1  105.86   18.18
   6 -26  -1   63.59   15.22
   6 -26   2  149.47   18.44
  20   6   2  190.89   19.75
  20   6   2  169.65   18.74
 -26  20   2  176.94   21.09
  20   6   5   49.83   13.56
  20   6   5   59.27   13.21
 -26  20   8   17.59   18.85
   7 -27  -8   35.40   20.21
  20   7  -8   16.76   16.76
  20   7  -8    5.55   15.62
 -27  20  -8   19.22   17.33
  20   7  -5   74.04   19.26
   7 -27  -5   73.24   17.70
  20   7  -5   74.02   17.76
 -27  20  -5   54.93   17.44
  20   7  -2   31.02   14.39
  20   7  -2   31.72   12.44
   7 -27  -2   18.09   11.15
 -27  20  -2   38.78   14.69
  20   7   1  115.94   18.19
  20   7   1  108.88   16.72
   7 -27   1   84.97   15.14
 -27  20   1   77.92   17.10
  20   7   4   20.42   11.41
   7 -27   4    3.35   12.81
 -27  20   4   12.57   13.01
  20   7   4   22.99   12.18
 -27  20   7   17.43   16.65
  20   8  -6   74.50   18.99
   8 -28  -6   63.98   19.61
  20   8  -6    8.15   15.42
 -28  20  -6   20.79   15.75
  20   8  -3   97.89   19.16
  20   8  -3  101.85   19.16
 -28  20  -3  132.07   20.95
  20   8   0   57.66   16.05
   8 -28   0   53.73   14.50
  20   8   0   68.84   14.46
 -28  20   0   51.56   14.64
  20   8   3  241.87   22.38
   8 -28   3  215.69   22.33
  20   8   3  255.80   21.66
 -28  20   3  223.26   24.29
 -28  20   6   48.32   19.04
  20   8   6   47.63   12.33
   9 -29  -7   41.96   19.36
  20   9  -7   41.89   18.46
  20   9  -7   46.88   20.97
 -29  20  -7   54.75   19.91
   9 -29  -4  121.37   20.51
  20   9  -4  177.76   25.09
  20   9  -4  113.27   20.99
 -29  20  -4  108.43   20.44
  20   9  -1   59.41   16.12
  20   9  -1   43.44   14.07
 -29  20  -1   44.92   15.49
   9 -29  -1   43.65   13.15
  20   9   2   77.03   16.47
   9 -29   2   70.57   15.92
  20   9   2   78.52   14.57
 -29  20   2  100.11   18.73
  20   9   5   34.01   12.53
  20   9   5   65.29   14.26
 -29  20   5   51.36   17.08
  20  10  -5   12.36   15.37
  10 -30  -5   13.39   15.17
  20  10  -5   25.05   16.75
 -30  20  -5    8.18   14.98
  20  10  -2   12.78   14.59
  20  10  -2   32.50   14.56
 -30  20  -2   53.08   16.36
  10 -30  -2   28.92   13.32
  20  10   1   18.87   13.43
  20  10   1   12.27   11.31
  10 -30   1   14.97   11.76
 -30  20   1   25.23   14.33
  20  10   4   -0.34   11.80
 -30  20   4   16.47   14.55
  20  10   4   23.11   11.89
 -30  20   7   13.41   17.16
  20  11  -6   93.67   24.30
  11 -31  -6   89.21   21.99
  20  11  -6   42.41   17.71
 -31  20  -6  136.64   25.01
  11 -31  -3  137.93   20.75
  20  11  -3  180.11   24.72
  20  11  -3  191.68   24.03
 -31  20  -3  142.66   23.02
  20  11   0   97.42   18.42
  11 -31   0   65.67   14.75
  20  11   0   73.13   16.10
 -31  20   0  111.67   19.78
  20  11   3  157.08   20.83
  20  11   3  137.03   18.30
  11 -31   3  105.48   18.03
 -31  20   3   89.94   18.48
 -31  20   6   23.04   18.57
  20  11   6   30.29   12.87
  20  12  -4   45.74   18.45
  12 -32  -4   46.88   16.41
  20  12  -4   69.71   19.10
 -32  20  -4   46.09   17.89
  12 -32  -1   -9.08   12.46
  20  12  -1    2.30   14.22
  20  12  -1   23.94   13.86
 -32  20  -1   17.83   13.62
  20  12   2   81.77   18.10
  20  12   2   34.22   14.15
  12 -32   2   51.31   15.63
 -32  20   2   69.07   17.99
  20  12   5   41.85   14.72
 -32  20   5   16.97   16.64
  20  13  -5   33.87   18.71
  13 -33  -5   -6.29   16.49
  20  13  -5    1.11   15.96
 -33  20  -5    0.08   17.42
  20  13  -2   30.74   17.57
  20  13  -2   28.55   15.89
 -33  20  -2   48.85   18.97
  13 -33  -2   20.81   14.12
  20  13   1    4.56   13.79
  20  13   1    9.79   11.87
 -33  20   1    7.37   13.50
  13 -33   1    5.13   12.32
  20  13   4   28.59   14.80
  20  13   4   15.43   11.85
 -33  20   4   -2.76   14.56
  20  14  -3  128.62   25.34
  20  14  -3  112.98   22.16
  14 -34  -3   89.49   18.80
 -34  20  -3  105.38   23.66
  20  14   0   61.12   18.57
  14 -34   0   62.71   16.31
  20  14   0   64.55   16.87
 -34  20   0   50.46   17.60
  20  14   3   99.13   19.93
  20  14   3   96.86   17.17
 -34  20   3   77.23   19.31
  20  15  -4   20.34   17.76
  15 -35  -4   35.87   15.87
  20  15  -4   20.66   17.06
 -35  20  -4   22.77   17.71
  15 -35  -1   20.36   13.24
  20  15  -1    1.07   16.06
  20  15  -1   22.23   15.62
 -35  20  -1    5.35   16.42
  15 -35   2   10.98   13.15
  20  15   2   -7.78   14.46
  20  15   2   18.28   13.75
 -35  20   2   -2.84   14.36
  20  16  -2   13.78   18.96
  20  16  -2   -2.25   15.31
 -36  20  -2   30.20   17.73
  16 -36  -2   20.47   14.74
  20  16   1   -4.58   15.76
  16 -36   1    9.77   13.14
  20  16   1   -0.99   13.53
 -36  20   1   11.13   16.13
  20  17   0   44.76   20.15
  17 -37   0   38.36   15.03
  20  17   0   31.57   17.67
 -37  20   0   31.74   16.88
  16  21   1   15.57   17.33
  16  21   1   13.94   13.66
 -37  16   1   -4.01   14.35
  15  21  -3   61.82   21.03
  15  21  -3   58.57   20.39
  21 -36  -3   34.11   15.50
 -36  15  -3   75.56   22.48
  15  21   0   25.62   17.25
  15  21   0   23.93   14.74
 -36  15   0   38.24   16.42
  15  21   3   60.09   18.73
 -36  15   3   37.43   15.97
  14  21  -4    8.94   17.67
  21 -35  -4   21.00   14.56
  14  21  -4   22.75   17.59
 -35  14  -4   40.34   19.52
  14  21  -1   -3.36   15.90
  14  21  -1   36.83   16.95
 -35  14  -1   25.37   16.62
  21 -35  -1   13.96   11.35
  14  21   2   13.89   14.78
  14  21   2    1.38   11.62
 -35  14   2   -4.94   12.58
  21 -34  -5   -9.33   14.23
  13  21  -5   -6.98   17.12
  13  21  -5  -12.97   17.66
 -34  13  -5   12.49   17.44
  13  21  -2   42.71   18.61
  21 -34  -2   49.40   14.24
 -34  13  -2   20.21   15.84
  13  21   1  -11.51   16.76
  13  21   1   21.16   12.62
 -34  13   1    8.41   13.20
  13  21   4   40.74   16.56
  12  21  -3  156.41   26.30
  12  21  -3  136.80   22.92
 -33  12  -3  137.82   23.51
  21 -33  -3  199.61   21.79
  21 -33   0   38.44   10.95
  12  21   0   63.05   18.71
  12  21   0   21.01   14.90
 -33  12   0   18.06   13.65
  12  21   3   86.38   18.90
 -33  12   3   71.28   15.61
  21 -32  -4   49.46   16.00
  11  21  -4   41.72   17.96
  11  21  -4   23.17   16.40
 -32  11  -4   40.04   17.24
  11  21  -1   -8.31   14.45
  11  21  -1   -2.87   13.00
  21 -32  -1    7.75   10.04
 -32  11  -1    9.64   13.01
  11  21   2   41.33   15.31
  11  21   2   32.32   11.66
 -32  11   2   39.68   12.26
  11  21   5   -9.57   13.90
  21 -31  -5   82.15   18.59
  10  21  -5   84.73   20.69
  10  21  -5   54.13   18.99
 -31  10  -5   83.82   20.90
  10  21  -2   45.35   18.07
  21 -31  -2   33.50   12.33
  10  21  -2   43.63   15.96
 -31  10  -2   25.27   14.56
  10  21   1   62.24   16.91
  21 -31   1   19.73    8.24
  10  21   1   57.87   13.40
 -31  10   1   41.72   14.17
  10  21   4    8.85   12.74
 -31  10   4   16.20   11.06
   9  21  -6    0.53   15.39
   9  21  -6   18.82   16.96
 -30   9  -6    6.32   17.43
  21 -30  -6   14.36   14.60
   9  21  -3  229.94   27.50
   9  21  -3  221.32   25.21
 -30   9  -3  276.23   28.05
  21 -30  -3  187.44   20.36
   9  21   0   51.49   16.09
   9  21   0   56.07   14.29
 -30   9   0   91.32   15.70
  21 -30   0   39.66    9.79
   9  21   3  128.89   19.21
   9  21   3  148.20   15.20
 -30   9   3  162.76   17.42
   9  21   6  114.27   17.24
   8  21  -7    2.13   15.40
   8  21  -7   25.47   17.37
 -29   8  -7   -2.04   17.29
  21 -29  -7   22.32   18.85
   8  21  -4   38.52   17.57
   8  21  -4   28.69   15.02
 -29   8  -4   32.46   16.48
  21 -29  -4   -1.21   11.61
   8  21  -1    2.84   13.08
  21 -29  -1   -6.22    8.25
   8  21  -1   10.43   12.42
 -29   8  -1   11.65   12.04
   8  21   2   75.36   12.58
 -29   8   2   89.12   14.30
   8  21   2   70.20   17.48
   8  21   5  -10.92   13.38
   7  21  -8   40.48   19.39
   7  21  -8   15.76   18.09
 -28   7  -8   17.98   19.54
  21 -28  -8    3.95   19.03
 -28   7  -5  107.18   16.46
   7  21  -5  100.91   20.90
   7  21  -5  137.43   23.83
 -28   7  -5  124.63   23.66
  21 -28  -5   73.68   17.91
  21 -28  -2   14.86    9.82
   7  21  -2   21.24   13.45
 -28   7  -2   -3.64   11.38
   7  21   1   92.93   18.76
   7  21   1   94.92   14.30
  21 -28   1   86.48    9.54
 -28   7   1  102.12   15.36
   7  21   4   36.77   14.35
 -28   7   4    3.00    8.50
 -27   6  -6   64.35   13.49
   6  21  -6  100.73   20.33
   6  21  -6  106.82   21.00
 -27   6  -6  105.35   21.60
  21 -27  -6   80.83   18.26
   6  21  -3  104.37   19.65
   6  21  -3  121.31   19.71
 -27   6  -3   72.96   17.07
  21 -27  -3  118.78   16.80
   6  21   0   28.06   13.97
   6  21   0   24.13   12.21
  21 -27   0   36.97    8.23
 -27   6   0   33.23   12.21
   6  21   3   62.87   15.34
   6  21   3   51.20    9.95
 -27   6   3   30.77    9.54
   6  21   6   45.23   13.31
   5  21  -7   95.02   21.54
 -26   5  -7   51.54   13.54
   5  21  -7   51.34   19.37
 -26   5  -7   34.74   18.12
  21 -26  -7   49.40   19.39
   5  21  -4   41.50   16.56
   5  21  -4   47.95   15.41
 -26   5  -4    5.45   13.46
 -26   5  -4   30.43   11.63
  21 -26  -4   33.46   12.92
  21 -26  -1   46.45    9.88
   5  21  -1   38.51   14.61
   5  21  -1   62.24   15.03
 -26   5  -1   57.05   13.74
  21 -26   2   15.78    2.51
   5  21   2   30.77   13.29
   5  21   2   32.05    9.62
 -26   5   2   33.04   10.08
   5  21   5   95.26   16.13
   4  21  -8   55.04   19.11
   4  21  -8   26.86   18.02
 -25   4  -8   37.36   19.53
  21 -25  -8   21.18   15.63
   4  21  -5  143.83   21.51
   4  21  -5  160.88   23.14
 -25   4  -5  135.22   16.70
  21 -25  -5  108.13   18.35
 -25   4  -5  164.50   24.72
 -25   4  -2    0.69   10.30
   4  21  -2    4.13   10.95
 -25   4  -2   27.57   13.35
   4  21  -2   21.16   12.42
  21 -25  -2   19.95    9.47
   4  21   1  247.41   22.86
   4  21   1  281.13   19.61
  21 -25   1  217.45   11.25
 -25   4   1  263.06   19.82
   4  21   4   50.72   13.25
   4  21   4   34.63    6.62
 -25   4   4   28.85    7.94
   4  21   7  188.61   17.63
   3  21  -9   38.40   19.33
   3  21  -9   58.27   20.64
 -24   3  -9   18.85   17.35
  21 -24  -9   36.17   19.73
   3  21  -6   97.50   19.66
   3  21  -6   36.17   16.84
 -24   3  -6   55.76   17.87
  21 -24  -6   59.74   16.17
 -24   3  -6   43.29   12.76
   3  21  -3   25.01   13.24
   3  21  -3    0.32   12.40
 -24   3  -3   27.91   11.46
 -24   3  -3   13.07   13.31
  21 -24  -3   11.92    9.59
   3  21   0  245.08   23.62
   3  21   0  281.39   21.34
 -24   3   0  276.54   21.40
  21 -24   0  233.76   13.86
   3  21   3   43.30   12.78
   3  21   3   40.60    8.38
 -24   3   3   50.24    8.71
   3  21   6   72.69   13.68
   2  21  -7  267.53   26.90
   2  21  -7  219.78   27.92
  21 -23  -7  236.29   26.36
 -23   2  -7  237.61   29.18
 -23   2  -7  195.20   19.91
  21 -23  -7  205.62   21.08
   2  21  -4   74.48   12.81
   2  21  -4   86.62   17.87
   2  21  -4   98.42   18.82
  21 -23  -4  101.69   16.31
 -23   2  -4   95.85   18.31
 -23   2  -4   65.27   14.45
   2  21  -1  264.75   24.23
   2  21  -1  255.98   21.17
 -23   2  -1  321.48   23.69
  21 -23  -1  259.28   16.33
 -23   2  -1  266.24   22.97
   2  21   2  128.91   17.32
   2  21   2  116.43   12.46
 -23   2   2   97.83   11.34
   2  21   5  186.46   18.78
  21 -22  -8   23.10   12.62
   1  21  -8   16.96   18.51
 -22   1  -8   10.96   11.64
  21 -22  -8    0.65   15.35
 -22   1  -8   14.67   17.38
   1  21  -8   52.51   17.81
   1  21  -5  131.44   19.49
   1  21  -5   91.92   18.27
  21 -22  -5   85.55   17.05
 -22   1  -5  111.07   19.82
 -22   1  -5  106.56   15.87
   1  21  -5   90.02   13.78
  21 -22  -5  102.21   16.62
   1  21  -2   54.65   13.20
   1  21  -2   53.75   13.23
 -22   1  -2   73.75   15.10
  21 -22  -2   62.52   11.05
 -22   1  -2   85.43   15.51
   1  21  -2   76.74   15.36
   1  21   1  241.70   21.81
   1  21   1  240.72   17.70
 -22   1   1  251.71   17.79
  21 -22   1  197.63    9.05
   1  21   4    1.52    9.88
   1  21   4   -1.65    4.08
 -22   1   4    6.48    5.00
   1  21   7  152.44   16.09
   0  21  -9   -8.67   14.27
   0  21  -9   16.81   17.34
  21 -21  -9  -18.54   17.21
 -21   0  -9   24.69   18.18
 -21   0  -9   11.50   13.34
   0  21  -6  167.32   22.03
   0  21  -6  223.66   25.65
  21 -21  -6  153.34   20.97
 -21   0  -6  166.62   23.98
 -21   0  -6  144.13   17.67
  21 -21  -6  157.57   18.61
   0  21  -6  160.04   16.86
   0  21  -3    5.26    9.69
   0  21  -3   23.38   13.98
  21 -21  -3  -10.98    9.31
 -21   0  -3   -2.38   10.22
 -21   0  -3    6.13   10.49
   0  21  -3  -23.92   12.39
   0  21   0  244.20   23.65
   0  21   0  262.89   19.75
   0  21   0  263.53   22.71
 -21   0   0  238.41   18.20
  21 -21   0  233.86   12.75
 -21   0   0  262.47   23.02
   0  21   3    6.31   10.39
   0  21   3   -4.19    5.96
 -21   0   3   -0.32    5.40
   0  21   6   92.35   13.65
  -1  21 -10   20.49   16.33
  -1  21 -10    4.38   16.82
  21 -20 -10   31.78   19.86
 -20  -1 -10  -10.82   17.11
 -20  -1 -10   -0.12   13.30
  -1  21  -7  300.52   28.12
  -1  21  -7  349.35   31.12
  21 -20  -7  253.30   27.10
 -20  -1  -7  248.67   22.28
 -20  -1  -7  275.75   30.46
  21 -20  -7  236.08   23.12
  -1  21  -7  265.43   20.19
  -1  21  -4   22.90   10.42
  21 -20  -4   24.10   12.25
  -1  21  -4   57.04   13.82
  -1  21  -4   59.14   17.27
  21 -20  -4   34.15   12.30
 -20  -1  -4   33.29   13.88
 -20  -1  -4   22.86   10.40
  -1  21  -1  533.37   30.82
  -1  21  -1  554.50   28.72
  21 -20  -1  558.24   22.07
 -20  -1  -1  548.43   28.88
 -20  -1  -1  576.21   30.21
  -1  21  -1  551.04   31.32
  -1  21   2  149.45   17.38
  -1  21   2  138.34   12.80
 -20  -1   2  120.13   10.86
  -1  21   5  365.28   23.87
  -1  21   8  123.25   14.36
  -2  21  -8  124.54   20.49
  -2  21  -8  146.06   22.98
  21 -19  -8  126.47   23.26
 -19  -2  -8  123.54   17.88
 -19  -2  -8  151.55   25.31
  21 -19  -8  118.26   18.15
  -2  21  -8  120.56   15.51
  21 -19  -5   11.32   11.62
  -2  21  -5   16.19   10.84
  -2  21  -5   42.14   14.39
 -19  -2  -5   46.48   12.99
  21 -19  -5   59.43   14.56
 -19  -2  -5   52.56   15.86
  -2  21  -5   35.91   12.12
  -2  21  -2   19.49   10.40
  21 -19  -2   39.20   12.88
  -2  21  -2   48.40   13.27
  -2  21  -2   50.34   13.36
  21 -19  -2   48.50   10.39
 -19  -2  -2   52.59   13.05
 -19  -2  -2   34.33   11.36
  -2  21   1   81.45   17.16
  -2  21   1   86.70   14.53
  -2  21   1   91.25   12.17
 -19  -2   1   88.40   11.20
  21 -19   1   73.55    5.30
  21 -19   1   60.56    5.21
  -2  21   4   49.85   12.04
  -2  21   4   48.10    5.69
  -2  21   4   35.52    5.80
  -2  21   7   38.65   11.20
  -3  21  -9   34.15   14.85
  -3  21  -9   14.22   16.51
  21 -18  -9   18.36   17.42
 -18  -3  -9   20.51   19.18
 -18  -3  -9   12.71   13.78
  21 -18  -9    6.38   12.65
  -3  21  -6  270.55   24.82
  -3  21  -6  333.13   29.07
  21 -18  -6  294.04   27.69
 -18  -3  -6  315.11   23.78
  21 -18  -6  312.53   26.19
 -18  -3  -6  348.56   31.13
  21 -18  -6  260.86   23.33
  -3  21  -6  291.21   21.34
  -3  21  -3  111.23   16.23
  -3  21  -3  146.65   18.64
  21 -18  -3  101.86   14.89
  21 -18  -3  109.17   17.21
 -18  -3  -3  121.53   17.46
  21 -18  -3  115.76   16.23
  -3  21  -3  125.62   16.17
 -18  -3  -3  116.31   16.11
 -18  -3   0   64.98   14.28
  -3  21   0   82.18   14.42
  -3  21   0   74.44   14.58
  -3  21   0   80.06   12.49
  21 -18   0   82.38    8.41
 -18  -3   0   87.68   12.41
  -3  21   3  112.56   14.94
  -3  21   3  121.82   10.59
 -18  -3   3   87.97    7.01
  -3  21   6   63.47   12.88
  -4  21 -10   23.90   15.23
  -4  21 -10   58.42   20.60
  21 -17 -10   22.95   19.57
 -17  -4 -10   69.70   22.80
 -17  -4 -10   44.15   16.41
  21 -17 -10   32.04   14.77
  -4  21  -7  339.72   27.32
  -4  21  -7  382.08   31.71
  21 -17  -7  382.11   32.15
 -17  -4  -7  321.20   25.03
  21 -17  -7  325.59   26.77
 -17  -4  -7  374.72   32.96
  21 -17  -7  306.41   25.12
  -4  21  -7  330.00   23.65
  -4  21  -4  202.35   20.74
  -4  21  -4  217.08   22.01
  21 -17  -4  206.89   20.86
  21 -17  -4  207.84   21.67
 -17  -4  -4  208.76   22.58
 -17  -4  -4  199.45   19.22
  21 -17  -4  204.42   20.62
  -4  21  -4  182.38   18.83
  -4  21  -1  676.64   32.53
  -4  21  -1  594.52   29.04
  21 -17  -1  644.42   24.32
 -17  -4  -1  632.38   30.96
  21 -17  -1  577.86   31.98
 -17  -4  -1  661.61   30.15
  -4  21  -1  594.67   31.97
  21 -17  -1  540.78   30.17
  -4  21   2  211.46   22.93
  -4  21   2  199.19   14.66
 -17  -4   2  191.34   12.35
  -4  21   8  232.08   18.09
  -5  21  -8   91.08   17.26
  -5  21  -8   51.38   17.78
  21 -16  -8   16.49   17.40
  21 -16  -8   69.81   16.62
 -16  -5  -8  115.68   22.24
 -16  -5  -8   62.49   15.15
  21 -16  -8   85.69   16.74
  -5  21  -8   80.53   14.69
  -5  21  -5   33.30   13.06
  21 -16  -5   13.76   12.15
  21 -16  -5   21.88   12.73
  -5  21  -5   10.92   10.44
  -5  21  -5    7.83   13.06
  21 -16  -5   -3.53   10.71
 -16  -5  -5   15.20   11.00
 -16  -5  -2  223.00   20.37
  -5  21  -2  256.50   22.13
  -5  21  -2  234.48   20.55
  21 -16  -2  221.75   17.57
  21 -16  -2  233.70   21.77
  21 -16  -2  232.81   21.28
  -5  21  -2  229.55   20.74
  -5  21   1   44.60   14.98
  -5  21   1   40.06   10.51
  21 -16   1   29.57    4.64
 -16  -5   1   51.67    9.12
 -16  -5   1   36.01   12.04
  21 -16   1   35.71    4.75
  -5  21   4   55.81    7.01
  -5  21   4   48.87    6.77
  -6  21  -9   60.35   18.48
  21 -15  -9   80.39   22.15
  21 -15  -9   74.31   17.18
 -15  -6  -9   26.38   13.98
  -6  21  -9   55.65   14.60
  21 -15  -9   28.02   12.79
  -6  21  -9   28.25   14.13
  -6  21  -6  135.41   17.95
  -6  21  -6  158.52   21.90
  21 -15  -6  145.43   20.44
 -15  -6  -6  106.43   16.79
  21 -15  -6  147.73   19.91
  21 -15  -6  139.95   17.68
  -6  21  -6   95.42   15.07
  -6  21  -3  174.70   18.89
  21 -15  -3  183.23   17.68
  -6  21  -3  184.67   20.22
  21 -15  -3  194.50   20.92
 -15  -6  -3  193.50   18.44
  21 -15  -3  199.19   19.59
  -6  21  -3  186.35   19.10
  21 -15   0  213.43   12.77
  -6  21   0  214.51   17.67
  21 -15   0  206.65   12.87
  21 -15   0  192.20   19.61
 -15  -6   0  248.07   17.99
 -15  -6   0  198.88   18.81
  -6  21   0  204.75   20.77
  21 -15   0  195.22   19.48
  -6  21   3  137.38   11.74
 -15  -6   3  141.36    7.10
  -6  21   3  115.69   10.90
 -15  -6   3  116.95    7.13
  -7  21 -10   -8.16   12.54
  -7  21 -10   19.58   18.66
  21 -14 -10   28.19   20.06
 -14  -7 -10   54.01   17.00
  21 -14 -10    8.30   14.60
  21 -14 -10    7.86   14.42
  -7  21  -7  253.94   23.22
  -7  21  -7  198.72   24.54
  21 -14  -7  199.26   25.29
 -14  -7  -7  191.67   21.65
  21 -14  -7  190.52   21.67
  21 -14  -7  197.61   21.61
  -7  21  -7  203.16   20.08
  21 -14  -4  106.75   16.29
  -7  21  -4  122.82   16.96
  -7  21  -4  108.49   17.97
 -14  -7  -4   87.77   11.16
 -14  -7  -4  103.27   14.95
  21 -14  -4   78.25   14.79
  -7  21  -4   88.75   13.88
  21 -14  -4   79.29   14.66
 -14  -7  -1  367.84   23.79
  21 -14  -1  354.61   24.92
  21 -14  -1  359.34   24.87
  -7  21  -1  394.17   26.04
  21 -14   2  272.60   21.13
 -14  -7   2  289.95   14.38
 -14  -7   2  246.39   21.97
  -7  21   2  212.81   15.49
  -7  21   2  264.82   24.64
 -14  -7   2  248.44   13.98
  -7  21   5  199.70    9.07
  -7  21   5  176.79    8.68
  -8  21  -8   41.86   14.50
  -8  21  -8   66.28   18.65
  21 -13  -8   44.03   17.95
  21 -13  -8   27.20   13.39
 -13  -8  -8   35.24   13.83
  21 -13  -8   55.07   14.63
  -8  21  -8   78.50   14.21
 -13  -8  -5   86.21   12.18
  -8  21  -5   79.44   17.74
 -13  -8  -5   68.80   10.09
  -8  21  -5   53.77   13.71
  21 -13  -5   82.54   15.23
  -8  21  -5   82.29   14.06
 -13  -8  -5   65.27   14.12
  21 -13  -5   59.64   14.05
  21 -13  -2  581.56   30.81
  -8  21  -2  559.74   24.45
 -13  -8  -2  605.38   29.51
  21 -13  -2  594.28   31.14
  -8  21  -2  631.06   31.58
  21 -13   1  128.01   15.75
  21 -13   1  104.56    8.31
 -13  -8   1  106.75   16.08
  21 -13   1   86.02   15.30
 -13  -8   1  116.26   12.67
  -8  21   4  107.77   19.29
  -8  21   4  107.26    9.76
  -9  21  -9   77.82   16.51
  -9  21  -9   49.20   18.82
  21 -12  -9   82.36   23.65
 -12  -9  -9   65.89   17.31
  21 -12  -9   88.90   18.01
  21 -12  -9   86.98   17.91
  -9  21  -9   75.36   16.16
  -9  21  -6   84.42   14.85
  -9  21  -6   71.56   17.62
  21 -12  -6   73.21   15.15
 -12  -9  -6   67.49   14.54
  21 -12  -6   75.23   15.24
  -9  21  -6   59.28   13.45
 -12  -9  -3  366.39   19.42
  21 -12  -3  399.49   26.23
 -12  -9  -3  364.90   24.01
  21 -12  -3  390.29   26.03
  -9  21  -3  398.40   25.00
  -9  21  -3  367.75   19.10
  21 -12   0   15.57    9.71
 -12  -9   0   13.62    8.84
  21 -12   0   20.68   10.25
 -12  -9   0   39.50   11.16
  21 -12   0   10.61    5.92
  -9  21   0   31.01   11.76
  21 -12   3  275.47   20.36
 -12  -9   3  238.33    9.72
  -9  21   3  230.23   14.69
 -12  -9   3  244.39    9.67
  -9  21   3  243.40   23.77
  -9  21   6   13.95    3.58
 -10  21 -10   24.87   13.27
 -10  21 -10   15.76   17.86
  21 -11 -10    1.56   18.94
 -11 -10 -10   12.55   13.79
  21 -11 -10    4.32   14.40
  21 -11 -10   16.61   13.69
 -10  21 -10    7.78   12.73
 -11 -10  -7   86.83   17.86
 -10  21  -7  101.62   16.89
 -10  21  -7   83.11   19.07
  21 -11  -7   82.21   16.28
  21 -11  -7  108.85   17.67
 -10  21  -7   90.14   15.38
 -11 -10  -4  115.82   10.77
 -11 -10  -4  116.17   15.58
  21 -11  -4  106.63   17.07
  21 -11  -4  130.01   16.80
 -10  21  -4  136.61   16.85
 -10  21  -4  119.90   11.68
  21 -11  -1  278.60   21.95
 -10  21  -1  256.17   16.47
  21 -11  -1  256.38   21.89
 -10  21  -1  260.14   21.64
  21 -11  -1  255.63   17.02
 -11 -10  -1  299.88   21.53
  21 -11   2  208.62   11.08
 -11 -10   2  187.40   19.98
  21 -11   2  236.06   19.30
 -10  21   2  169.66   14.70
 -11 -10   2  241.09   13.79
 -10  21   2  240.20   23.35
  21 -11   2  216.92   20.57
 -10  21   5  123.46   20.66
 -10  21   5  102.10    9.95
 -10 -11  -8  140.34   20.98
 -11  21  -8  154.63   23.88
 -11  21  -8  149.22   20.03
  21 -10  -8  139.16   19.49
  21 -10  -8  172.07   21.14
 -11  21  -8  123.08   18.37
 -11  21  -5  230.60   14.21
 -10 -11  -5  239.63   12.18
 -10 -11  -5  264.13   23.07
  21 -10  -5  266.55   23.64
  21 -10  -5  241.96   18.33
  21 -10  -5  245.51   22.27
 -11  21  -5  267.98   21.75
 -10 -11  -2  243.20   16.35
  21 -10  -2  236.05   20.84
 -11  21  -2  213.39   14.22
 -10 -11  -2  292.64   21.46
  21 -10  -2  291.34   22.33
 -11  21  -2  219.94   19.96
  21 -10   1  276.50   21.17
 -10 -11   1  259.69   21.15
  21 -10   1  264.21   14.25
  21 -10   1  282.20   22.45
 -11  21   1  229.02   21.39
 -10 -11   1  293.48   17.64
  21 -10   4   85.81    7.53
  21 -10   4  134.84   14.65
 -11  21   4  119.31   11.69
 -11  21   4  134.66   20.08
 -12  21  -9   63.72   15.81
 -12  21  -9   77.48   20.56
  21  -9  -9   72.38   21.62
  21  -9  -9   97.17   18.20
  21  -9  -9  109.19   19.84
 -12  21  -9   78.08   16.91
  -9 -12  -9  121.96   20.22
  21  -9  -6   40.33   14.07
  -9 -12  -6   83.67   15.79
  21  -9  -6   42.02   13.84
 -12  21  -6   68.61   14.36
  -9 -12  -3  133.44   11.88
  21  -9  -3  195.42   19.92
  -9 -12  -3  183.52   18.32
  21  -9  -3  153.94   15.03
 -12  21  -3  169.54   11.47
  21  -9  -3  171.17   18.16
 -12  21  -3  194.90   19.50
  -9 -12   0   29.35   11.18
 -12  21   0   59.67    9.88
  21  -9   0   55.62   12.79
  21  -9   0   35.31    8.20
 -12  21   0   33.81   11.89
  -9 -12   0   68.33   11.55
  21  -9   0   57.53   12.65
  21  -9   3  369.27   22.71
  -9 -12   3  372.01   26.81
  21  -9   3  333.26   15.00
 -12  21   3  318.28   18.69
  -9 -12   3  383.73   14.24
 -12  21   3  390.10   28.80
  21  -9   3  365.47   25.00
 -12  21   6   85.00   19.00
  21  -9   6   55.78    8.96
 -12  21   6   74.06    9.48
 -13  21 -10   37.98   19.59
  -8 -13 -10   20.27   15.36
  21  -8 -10   46.34   17.39
 -13  21 -10    8.40   11.84
  21  -8 -10   23.41   19.53
  21  -8 -10   30.59   16.65
 -13  21 -10    1.03   12.55
 -13  21  -7   91.87   16.44
  -8 -13  -7  104.35   18.13
  21  -8  -7   88.52   16.97
  21  -8  -7  118.85   17.82
 -13  21  -7  124.15   18.08
  -8 -13  -4  153.61   10.96
  -8 -13  -4  171.02   18.81
  21  -8  -4  185.12   19.71
  21  -8  -4  113.75   13.08
  21  -8  -4  165.94   19.05
 -13  21  -4  132.97    9.31
 -13  21  -4  154.32   18.72
  -8 -13  -1   36.31    9.49
  21  -8  -1   54.29   13.87
  -8 -13  -1   31.78   12.12
 -13  21  -1   38.72    7.85
  21  -8  -1   32.47   11.03
 -13  21  -1   49.50   13.15
  21  -8   2  615.62   21.80
  21  -8   2  628.35   28.96
  -8 -13   2  589.01   31.96
  -8 -13   2  648.71   22.62
  21  -8   2  592.49   30.92
 -13  21   2  614.10   34.27
 -13  21   5   59.21   16.35
  21  -8   5   59.38    8.86
  21  -8   5   81.70   12.45
 -13  21   5   61.40   10.32
 -14  21  -8  122.92   17.47
  -7 -14  -8   96.01   18.71
  21  -7  -8  136.43   20.89
  21  -7  -8   96.60   18.67
 -14  21  -8  142.49   19.91
  -7 -14  -5  320.75   25.52
  21  -7  -5  381.47   26.69
  21  -7  -5  306.41   17.64
  21  -7  -5  333.69   25.46
 -14  21  -5  256.13   10.90
 -14  21  -5  302.11   24.37
  -7 -14  -2  219.15   15.43
 -14  21  -2  202.51   11.56
  21  -7  -2  198.87   19.77
  -7 -14  -2  224.46   19.64
  21  -7  -2  209.48   16.77
  21  -7  -2  217.05   19.96
 -14  21  -2  207.90   20.62
 -14  21   1  543.58   24.70
  -7 -14   1  525.19   28.65
  21  -7   1  533.17   27.60
  21  -7   1  483.91   21.19
  21  -7   1  538.63   29.54
 -14  21   1  487.58   30.20
  -7 -14   1  518.05   23.25
  21  -7   4  201.35   16.97
  21  -7   4  178.78   13.28
 -14  21   4  153.50   14.72
  -7 -14   4  151.17    9.43
 -14  21   4  199.33   24.05
 -15  21  -9   70.48   20.77
 -15  21  -9   50.76   14.41
  -6 -15  -9   74.07   18.31
  21  -6  -9   73.15   16.73
  21  -6  -9   34.47   15.77
 -15  21  -9   59.28   16.29
  -6 -15  -6  114.39   17.55
  21  -6  -6  157.39   19.73
  21  -6  -6  137.75   18.98
 -15  21  -6  130.04   18.26
  -6 -15  -3  232.12   20.61
  21  -6  -3  204.25   20.51
  21  -6  -3  176.27   14.52
  21  -6  -3  216.94   20.53
 -15  21  -3  209.40   20.13
 -15  21   0  177.78   13.65
  21  -6   0  192.99   18.33
  21  -6   0  209.02   19.28
 -15  21   0  179.02   18.96
  -6 -15   0  195.17   18.42
  -6 -15   3  187.70   20.44
  21  -6   3  192.37   17.32
  -6 -15   3  183.95   12.83
  21  -6   3  174.32   14.21
  21  -6   3  193.17   20.08
 -15  21   3  185.95   21.87
 -15  21   6   70.71   18.29
 -16  21 -10    9.51   18.12
  -5 -16 -10   38.95   17.86
  21  -5 -10   43.58   16.03
  21  -5 -10   33.15   15.78
 -16  21 -10   14.63   15.11
  21  -5  -7   -9.82   11.67
  21  -5  -7   -2.83   13.42
  -5 -16  -7    6.48   13.34
 -16  21  -7    9.48   12.75
  21  -5  -4   46.27   13.94
  21  -5  -4   67.46   10.12
  -5 -16  -4   72.21   14.67
  21  -5  -4   62.95   14.80
 -16  21  -4   86.37   15.40
  -5 -16  -1   24.31   10.93
  21  -5  -1   22.05   11.24
  21  -5  -1   27.54   12.63
 -16  21  -1   31.70   11.38
  21  -5   2  288.33   17.85
  21  -5   2  352.69   22.52
  -5 -16   2  283.78   23.23
  -5 -16   2  305.35   17.86
  21  -5   2  305.40   22.73
 -16  21   2  352.18   26.77
  21  -5   5   28.52    9.12
  -5 -16   5   20.68    5.54
  -4 -17  -8   92.13   18.98
  21  -4  -8   84.05   17.72
  21  -4  -8  106.76   19.08
 -17  21  -8   55.00   15.91
  -4 -17  -5  402.25   28.39
  21  -4  -5  399.31   28.10
  21  -4  -5  366.66   26.98
 -17  21  -5  405.35   28.36
  21  -4  -2  154.69   17.93
  -4 -17  -2  140.91   17.33
  21  -4  -2  169.09   18.47
 -17  21  -2  155.63   18.77
  -4 -17   1  707.41   33.26
  21  -4   1  696.72   31.02
  21  -4   1  702.87   32.85
 -17  21   1  660.27   34.80
  21  -4   4  234.83   18.25
  -4 -17   4  171.17   13.17
 -17  21   4  213.43   23.81
  21  -4   4  244.41   21.59
 -17  21   7  169.95   24.90
 -18  21  -9   34.40   12.96
  -3 -18  -9   39.14   17.09
  21  -3  -9   50.49   16.79
  21  -3  -9   45.69   16.83
 -18  21  -9   53.22   15.97
  21  -3  -6   97.73   16.99
  -3 -18  -6   78.13   16.81
  21  -3  -6   60.09   15.14
 -18  21  -6   80.32   16.23
  21  -3  -3    8.79   10.81
  -3 -18  -3   49.45   13.52
  21  -3  -3   22.49   11.90
 -18  21  -3   39.51   12.96
  21  -3   0  118.04   15.81
  -3 -18   0   82.72   14.24
  21  -3   0   83.28   15.55
 -18  21   0  119.32   17.27
  -3 -18   3   63.50   14.42
  21  -3   3   71.33   12.18
  -3 -18   3   71.30   10.79
 -18  21   3   92.19   17.01
  21  -3   3   72.21   13.41
  21  -3   6  214.06   16.75
 -18  21   6  216.26   26.11
  -2 -19 -10   34.58   19.12
  21  -2 -10   35.95   16.83
  21  -2 -10   47.87   19.03
 -19  21 -10   67.06   19.00
  -2 -19  -7   25.95   14.97
  21  -2  -7   29.00   13.64
  21  -2  -7   52.98   16.79
 -19  21  -7   31.43   15.17
  21  -2  -4   52.88   13.51
  -2 -19  -4   58.37   13.74
  21  -2  -4   55.33   15.30
 -19  21  -4   74.95   16.97
  21  -2  -1   77.81   13.97
  -2 -19  -1   81.97   13.84
  21  -2  -1   74.22   14.00
 -19  21  -1   64.48   14.17
  21  -2   2   14.69    9.57
 -19  21   2   -1.18   11.36
  21  -2   2    5.37   10.45
  -2 -19   2   10.44   11.39
 -19  21   5   63.94   17.68
  21  -2   5   57.18   11.30
  -2 -19   5   20.00    8.75
  -1 -20  -8   49.23   18.78
  21  -1  -8   82.23   18.27
  21  -1  -8   72.19   19.11
 -20  21  -8   38.50   16.35
  -1 -20  -5  458.84   31.15
  21  -1  -5  498.64   32.44
 -20  21  -5  491.47   32.61
  21  -1  -2   74.54   15.68
  21  -1  -2   84.26   16.10
 -20  21  -2   30.84   12.10
  -1 -20  -2   48.50   12.94
  -1 -20   1  627.50   31.76
  21  -1   1  639.26   31.01
  21  -1   1  569.23   30.36
 -20  21   1  537.30   31.95
  21  -1   4   70.95   15.22
  21  -1   4   84.96   12.75
  -1 -20   4   96.86   16.44
 -20  21   4   92.97   17.88
 -20  21   7  214.78   26.79
  21  -1   7  190.05   14.87
   0 -21  -9   10.29   16.21
  21   0  -9  -28.26   16.43
  21   0  -9   19.90   17.11
 -21  21  -9   -5.98   15.25
   0 -21  -6   63.76   16.20
  21   0  -6   94.87   18.52
  21   0  -6   50.65   15.49
 -21  21  -6   69.89   16.76
  21   0  -3   14.00   12.16
   0 -21  -3  -18.04   12.45
  21   0  -3   22.80   12.30
 -21  21  -3   17.23   11.69
  21   0   0  263.00   22.39
  21   0   0  232.66   20.13
   0 -21   0  226.91   20.83
 -21  21   0  246.81   22.45
  21   0   3    7.59    9.77
   0 -21   3  -14.94   12.11
 -21  21   3    6.18   11.06
  21   0   3  -18.28   12.14
  21   0   6  204.77   16.77
 -21  21   6  184.09   25.02
   1 -22  -7   63.96   19.23
  21   1  -7   97.66   19.06
  21   1  -7  111.77   20.53
 -22  21  -7  118.33   20.43
  21   1  -4    3.02   11.47
   1 -22  -4    4.95   10.94
  21   1  -4  -15.73   12.32
 -22  21  -4   27.98   13.86
  21   1  -1  197.84   20.26
   1 -22  -1  174.11   19.39
  21   1  -1  183.23   19.63
 -22  21  -1  170.92   21.22
  21   1   2   48.59   12.40
   1 -22   2   41.21   12.17
  21   1   2   58.77   13.61
 -22  21   2   48.66   13.57
  21   1   5  143.27   15.00
 -22  21   5  153.93   22.16
  21   1   5  146.78   18.22
   2 -23  -8   28.03   16.56
  21   2  -8   15.82   15.79
  21   2  -8   17.06   16.17
 -23  21  -8   18.46   15.40
   2 -23  -5  222.54   23.67
  21   2  -5  304.52   27.12
  21   2  -5  261.85   26.04
 -23  21  -5  302.19   27.13
  21   2  -2   46.42   15.46
  21   2  -2   57.67   14.15
 -23  21  -2   52.27   15.83
   2 -23  -2   76.95   15.32
  21   2   1  348.84   25.18
  21   2   1  325.09   23.64
 -23  21   1  290.55   24.83
   2 -23   1  328.53   24.79
  21   2   4  122.25   15.48
   2 -23   4  158.84   20.23
  21   2   4  136.62   18.72
 -23  21   4  139.77   20.65
 -23  21   7   83.38   21.05
  21   2   7  103.61   13.19
   3 -24  -9   70.52   21.86
  21   3  -9   99.08   22.10
  21   3  -9   69.23   22.62
 -24  21  -9  112.74   23.23
   3 -24  -6   28.66   15.59
  21   3  -6   30.92   16.29
  21   3  -6   -1.25   14.90
 -24  21  -6   14.99   14.25
   3 -24  -3   90.23   16.67
  21   3  -3  104.02   17.79
  21   3  -3   82.10   17.68
 -24  21  -3   56.61   14.77
  21   3   0  336.68   25.62
  21   3   0  319.78   24.70
   3 -24   0  280.89   23.58
 -24  21   0  246.41   23.54
   3 -24   3   28.37   12.68
  21   3   3   41.32   11.31
  21   3   3   39.07   12.36
 -24  21   3   40.45   15.57
 -24  21   6   80.74   19.57
  21   3   6   65.07   11.88
  21   4  -7  124.36   22.40
  21   4  -7  164.10   24.10
 -25  21  -7  110.65   22.00
   4 -25  -7  126.63   23.63
  21   4  -4   32.68   13.42
   4 -25  -4   29.73   14.79
  21   4  -4   60.60   16.57
 -25  21  -4   33.57   14.33
  21   4  -1  224.94   22.55
   4 -25  -1  225.47   21.22
  21   4  -1  197.49   21.26
 -25  21  -1  222.28   23.13
  21   4   2   18.76   11.52
   4 -25   2    3.01   11.07
  21   4   2    6.18   10.51
 -25  21   2   30.84   13.38
  21   4   5  183.13   17.65
 -25  21   5  158.43   24.13
  21   4   5  142.74   19.15
 -25  21   8   -8.08   19.61
   5 -26  -8   31.86   19.47
  21   5  -8    2.14   15.31
  21   5  -8  -20.48   17.14
 -26  21  -8   -2.90   15.29
   5 -26  -5  161.78   21.89
  21   5  -5  168.50   22.51
  21   5  -5  178.66   23.74
 -26  21  -5  149.24   22.61
  21   5  -2   31.08   14.30
  21   5  -2   25.20   13.70
 -26  21  -2    6.69   12.29
   5 -26  -2   12.71   11.85
  21   5   1   48.52   13.66
   5 -26   1   61.54   14.76
 -26  21   1   16.26   12.56
  21   5   1   67.76   14.87
   5 -26   4   44.63   14.94
  21   5   4   59.68   14.01
 -26  21   4   50.74   16.05
  21   5   4   82.78   15.73
 -26  21   7    5.79   17.76
   6 -27  -6  -10.40   15.23
  21   6  -6   14.46   15.23
 -27  21  -6   16.10   16.15
  21   6  -6   23.31   15.36
  21   6  -3   85.84   18.20
  21   6  -3   68.41   17.19
   6 -27  -3   92.24   16.80
 -27  21  -3   30.46   13.65
  21   6   0  105.08   17.62
  21   6   0   92.32   16.69
   6 -27   0  108.48   16.33
 -27  21   0   79.57   17.11
  21   6   3   78.51   14.81
   6 -27   3   30.54   13.39
  21   6   3   46.45   13.05
 -27  21   3   62.31   16.68
 -27  21   6   41.84   18.23
  21   6   6   79.90   13.58
   7 -28  -7   34.84   18.23
  21   7  -7   52.37   17.89
 -28  21  -7   61.21   20.04
  21   7  -4   26.64   17.05
   7 -28  -4   55.53   15.19
  21   7  -4   34.53   15.99
 -28  21  -4   21.62   15.01
  21   7  -1  140.19   21.17
   7 -28  -1  164.22   19.47
  21   7  -1  123.79   19.48
 -28  21  -1  103.34   19.05
  21   7   2   18.64   13.05
   7 -28   2    7.64   11.08
  21   7   2   27.72   12.68
 -28  21   2   -6.58   14.64
  21   7   5  137.10   17.16
  21   7   5  105.06   17.02
 -28  21   5  110.64   20.71
 -28  21   8    2.66   17.91
  21   8  -5   28.63   16.74
   8 -29  -5  -15.61   13.97
  21   8  -5   19.29   14.97
 -29  21  -5    5.07   14.40
  21   8  -2   78.92   18.73
   8 -29  -2  125.51   18.31
  21   8  -2   82.89   17.33
 -29  21  -2   61.30   16.67
  21   8   1   11.40   12.08
  21   8   1   26.19   12.37
 -29  21   1    4.27   12.93
   8 -29   1   24.65   13.09
  21   8   4   28.75   12.74
   8 -29   4   24.73   13.87
 -29  21   4   23.12   15.35
  21   8   4    6.74   11.53
 -29  21   7   11.86   18.89
  21   9  -6   32.70   18.07
   9 -30  -6   53.44   18.73
  21   9  -6   69.56   20.07
 -30  21  -6   58.16   19.58
   9 -30  -3  156.50   22.15
  21   9  -3  221.87   26.42
  21   9  -3  188.38   23.41
 -30  21  -3  213.73   26.54
  21   9   0   99.47   18.67
   9 -30   0   60.14   15.48
  21   9   0   50.66   14.27
 -30  21   0   61.55   16.08
  21   9   3  202.89   21.37
  21   9   3  144.63   18.45
   9 -30   3  165.60   21.12
 -30  21   3  147.96   22.06
 -30  21   6   34.83   18.27
  21   9   6   39.01   13.14
  21  10  -4   35.49   19.00
  10 -31  -4   23.17   14.14
  21  10  -4   74.18   19.03
 -31  21  -4   38.99   17.03
  10 -31  -1   56.05   14.24
  21  10  -1   39.89   16.81
  21  10  -1   16.95   12.55
 -31  21  -1   27.20   16.62
  21  10   2   27.09   13.78
  10 -31   2   24.20   13.80
  21  10   2   29.66   13.12
 -31  21   2    7.39   14.43
  21  10   5   61.55   15.26
  21  10   5   32.75   13.70
 -31  21   5   58.81   19.41
  21  11  -5    8.92   15.81
  11 -32  -5   14.41   15.04
  21  11  -5    9.74   18.16
 -32  21  -5   -3.33   16.37
  21  11  -2   51.49   17.31
  21  11  -2   39.24   16.24
 -32  21  -2   23.20   16.81
  11 -32  -2   53.17   15.47
  21  11   1   25.05   15.62
  21  11   1   29.44   14.66
 -32  21   1   35.21   15.18
  11 -32   1   16.33   12.67
  21  11   4    7.64   12.11
  21  11   4    5.92   12.29
 -32  21   4    5.35   14.47
  12 -33  -3  125.06   20.02
  21  12  -3   98.47   21.31
 -33  21  -3   99.59   22.93
  21  12   0   36.69   16.41
  12 -33   0   38.08   14.32
  21  12   0   56.75   15.23
 -33  21   0   55.44   17.99
  21  12   3  193.99   23.83
  21  12   3  185.16   21.53
 -33  21   3  147.64   22.89
  12 -33   3  145.31   20.67
  21  13  -4   35.01   18.31
  21  13  -4   23.92   16.63
  13 -34  -4   10.53   15.96
 -34  21  -4   31.14   17.34
  13 -34  -1   28.95   14.14
  21  13  -1   -4.93   15.00
  21  13  -1   -4.75   13.05
 -34  21  -1   12.35   15.87
  21  13   2   37.05   16.70
  21  13   2   30.33   14.20
 -34  21   2   62.00   17.87
  13 -34   2   36.46   15.50
  21  13   5  -10.12   13.81
 -34  21   5   16.06   17.59
  21  14  -2  -37.32   17.71
  21  14  -2  -12.58   14.45
 -35  21  -2  -10.96   15.02
  21  14   1   30.49   16.25
  14 -35   1   12.38   13.15
  21  14   1  -14.49   13.94
 -35  21   1   32.68   18.01
  21  14   4    5.76   14.40
 -35  21   4    6.12   16.11
  21  15  -3   52.87   20.82
  21  15  -3   41.02   18.49
 -36  21  -3   70.93   22.11
  15 -36  -3   60.86   17.72
  21  15   0   -9.98   16.31
  15 -36   0   20.04   14.25
  21  15   0   47.56   16.93
 -36  21   0   24.00   16.10
  21  15   3   75.89   20.04
 -36  21   3   90.18   21.98
  16 -37  -1  -11.03   14.15
  21  16  -1    3.36   17.19
  21  16  -1   18.99   15.91
 -37  21  -1   25.48   18.39
  14  22  -2   47.64   20.83
  14  22  -2   32.22   17.85
  22 -36  -2   33.31   13.37
 -36  14  -2   22.71   16.23
  14  22   1   49.62   20.13
  14  22   1   83.07   16.94
 -36  14   1   42.68   15.99
  13  22  -3   34.33   18.71
  22 -35  -3  -11.10   12.31
  13  22  -3   27.69   17.02
 -35  13  -3   58.44   21.57
  13  22   0  123.65   23.19
  13  22   0  100.40   19.75
 -35  13   0   78.71   17.99
  13  22   3   -2.35   15.93
 -35  13   3    0.36   12.36
  12  22  -4   26.35   18.65
  22 -34  -4    7.22   13.48
  12  22  -4   -0.57   16.92
 -34  12  -4    7.54   16.64
  12  22  -1   70.90   19.47
  12  22  -1   33.08   16.62
 -34  12  -1   27.03   15.31
  22 -34  -1   23.08   11.07
  12  22   2   22.60   16.71
  12  22   2   15.93   11.95
 -34  12   2   13.55   12.62
  11  22  -5   37.17   18.95
  11  22  -5   54.24   20.22
  22 -33  -5   22.99   16.68
 -33  11  -5   24.18   20.10
  22 -33  -2   72.21   17.41
  11  22  -2   19.35   16.13
  11  22  -2   62.35   16.78
 -33  11  -2   26.66   17.73
  11  22   1   70.29   18.05
  11  22   1   67.47   14.88
 -33  11   1   81.65   17.68
  11  22   4   10.07   13.80
  22 -32  -6   97.27   22.60
  10  22  -6  130.21   26.42
  10  22  -6  142.32   25.90
 -32  10  -6  136.98   26.29
  10  22  -3   59.47   18.72
  22 -32  -3   34.25   13.88
  10  22  -3   33.66   16.22
 -32  10  -3   53.24   18.14
  10  22   0  135.48   22.14
  22 -32   0   81.69   12.59
  10  22   0  112.01   17.67
 -32  10   0  106.42   18.15
  10  22   3   43.97   15.57
 -32  10   3   19.62   12.52
  10  22   6   81.63   16.66
  22 -31  -4   32.65   14.45
   9  22  -4   47.46   17.67
   9  22  -4    4.15   14.83
 -31   9  -4  -15.86   16.28
   9  22  -1   28.81   15.28
   9  22  -1   67.44   16.80
  22 -31  -1   31.88   10.29
 -31   9  -1   73.92   18.35
   9  22   2   10.75   14.00
   9  22   2   12.52    9.62
 -31   9   2    2.98   10.70
   9  22   5   10.82   12.53
   8  22  -5  111.83   21.92
   8  22  -5   85.96   20.01
 -30   8  -5  147.97   24.73
  22 -30  -5   92.15   18.10
   8  22  -2   64.24   18.07
  22 -30  -2   52.17   12.80
   8  22  -2   90.37   18.38
 -30   8  -2   67.76   16.87
   8  22   1  130.43   20.83
   8  22   1  123.40   16.30
 -30   8   1  117.56   16.44
   8  22   4   43.70   14.78
 -30   8   4   54.09   13.12
   7  22  -6   97.39   21.40
   7  22  -6   80.11   20.87
 -29   7  -6  111.53   22.99
  22 -29  -6   68.84   19.97
  22 -29  -3   25.47   11.29
   7  22  -3   42.49   16.34
   7  22  -3   37.55   15.16
 -29   7  -3   27.32   15.85
   7  22   0  139.97   21.72
  22 -29   0  111.74   12.10
   7  22   0  151.64   18.10
 -29   7   0  121.94   18.01
   7  22   3   51.02   10.80
 -29   7   3   47.20   12.04
   7  22   6  113.72   17.39
   6  22  -7   27.03   16.32
   6  22  -7   59.47   21.82
 -28   6  -7   38.58   19.72
  22 -28  -7   40.07   18.35
   6  22  -4  101.54   19.88
 -28   6  -4  113.62   16.81
 -28   6  -4  110.54   20.74
  22 -28  -4  121.44   18.75
   6  22  -4  101.35   20.36
   6  22  -1   36.76   16.10
  22 -28  -1   29.65    9.23
   6  22  -1   50.36   14.24
 -28   6  -1   15.22   11.77
   6  22   2   49.01   15.14
   6  22   2   51.15   10.18
 -28   6   2   70.91   12.75
   6  22   5    8.21   11.70
   5  22  -8   17.86   16.37
   5  22  -8   31.00   18.36
 -27   5  -8   16.46   19.71
  22 -27  -8   46.89   19.70
   5  22  -5   90.25   20.22
   5  22  -5  111.81   21.73
  22 -27  -5  141.50   19.74
 -27   5  -5  116.83   21.84
 -27   5  -5  121.92   17.20
   5  22  -2  161.60   22.42
   5  22  -2  164.64   21.52
 -27   5  -2  179.06   21.81
  22 -27  -2  147.67   15.95
   5  22   1  212.38   22.81
   5  22   1  228.45   19.05
 -27   5   1  256.67   20.45
   5  22   4  102.44   16.96
 -27   5   4   46.81   10.24
   4  22  -6   67.75   17.53
   4  22  -6   60.44   18.43
 -26   4  -6   30.20   12.66
 -26   4  -6   50.77   18.91
  22 -26  -6   71.77   17.58
   4  22  -3   41.24   16.26
   4  22  -3   11.54   13.11
 -26   4  -3   32.13   13.21
 -26   4  -3   29.69   14.78
  22 -26  -3   41.46   12.28
   4  22   0  161.77   21.25
   4  22   0  137.81   17.63
 -26   4   0  157.26   17.79
  22 -26   0  102.56   10.65
   4  22   3   60.45    9.70
 -26   4   3   59.00   10.22
   4  22   3   78.85   15.86
   4  22   6   55.65   13.50
   3  22  -7   -2.31   15.38
   3  22  -7   -8.47   15.99
 -25   3  -7   -4.20   16.33
  22 -25  -7   18.55   15.58
 -25   3  -7    9.33   11.69
   3  22  -4  231.23   25.07
   3  22  -4  189.52   23.35
  22 -25  -4  195.92   21.51
 -25   3  -4  151.73   18.02
 -25   3  -4  199.51   25.06
  22 -25  -1   20.56    8.02
   3  22  -1   20.49   13.07
   3  22  -1   24.70   12.64
 -25   3  -1   29.15   12.75
   3  22   2   76.35   11.42
 -25   3   2  100.37   12.20
   3  22   5   28.48   12.58
   2  22  -8   57.99   18.32
   2  22  -8   14.15   17.55
 -24   2  -8   19.63   13.31
 -24   2  -8   43.68   21.22
  22 -24  -8   33.06   17.81
 -24   2  -5  132.34   17.69
   2  22  -5  107.27   19.17
   2  22  -5  139.97   21.89
  22 -24  -5  142.10   20.48
 -24   2  -5  176.56   24.29
   2  22  -5  128.35   16.21
   2  22  -2   75.77   15.20
 -24   2  -2   71.95   15.73
   2  22  -2   40.50   15.20
  22 -24  -2   72.62   12.59
 -24   2  -2   85.49   16.07
   2  22   1  341.99   26.39
   2  22   1  324.94   21.26
 -24   2   1  293.37   19.67
   2  22   4   36.83   12.46
   2  22   4   46.46    6.68
 -24   2   4   28.42    7.33
   2  22   7  159.92   17.42
   1  22  -9   29.27   16.48
 -23   1  -9   10.54   12.73
   1  22  -9   17.07   17.18
  22 -23  -9   -7.29   18.12
 -23   1  -9    2.89   17.06
   1  22  -6   13.38    9.94
  22 -23  -6   20.88   12.66
   1  22  -6   22.17   15.64
   1  22  -6   -1.05   13.11
  22 -23  -6   24.91   14.51
 -23   1  -6   34.00   16.67
 -23   1  -6   -6.46   11.79
   1  22  -3  100.61   18.17
 -23   1  -3   85.60   15.14
   1  22  -3  102.93   18.11
  22 -23  -3   88.94   14.70
 -23   1  -3  106.90   18.29
   1  22  -3   73.59   16.03
   1  22   0  151.91   19.40
   1  22   0  148.12   16.70
 -23   1   0  131.65   15.31
  22 -23   0  111.41    9.86
   1  22   3   58.21   14.28
   1  22   3   56.54    8.88
 -23   1   3   48.79    8.33
   1  22   6   34.65   12.17
  22 -22  -7    9.08   12.45
   0  22  -7   10.45   13.53
   0  22  -7   -8.78   14.08
 -22   0  -7   16.11   11.93
  22 -22  -7   15.82   15.31
 -22   0  -7   45.31   17.82
  22 -22  -4  356.19   26.70
   0  22  -4  328.54   27.22
 -22   0  -4  357.25   25.00
   0  22  -4  378.99   29.89
  22 -22  -4  411.67   27.43
 -22   0  -4  327.91   29.44
   0  22  -4  331.85   23.44
   0  22  -1   21.59   13.61
   0  22  -1   19.53   11.12
   0  22  -1    5.14   10.22
 -22   0  -1   10.64   11.67
 -22   0  -1   17.53   10.65
  22 -22  -1    0.92    6.49
   0  22   2  173.13   20.03
   0  22   2  171.20   14.68
 -22   0   2  155.10   13.09
   0  22   5   -6.88   10.28
  22 -21  -8   -3.46   12.46
 -21  -1  -8   21.61   13.59
  -1  22  -8  -12.68   14.00
  -1  22  -8  -14.64   16.66
  22 -21  -8   23.91   15.80
 -21  -1  -8    1.34   15.34
  -1  22  -5  114.80   18.66
  -1  22  -5  166.99   22.40
  22 -21  -5  131.76   19.81
 -21  -1  -5  201.36   23.17
 -21  -1  -5  140.87   17.57
  22 -21  -5  154.75   19.44
  -1  22  -5  154.46   17.88
  -1  22  -2   72.30   15.19
  -1  22  -2   70.76   15.35
 -21  -1  -2   47.47   13.27
  -1  22  -2   54.87   14.71
  22 -21  -2   39.83   10.36
 -21  -1  -2   23.76   10.42
  -1  22   1  197.74   22.88
  -1  22   1  239.90   21.18
  -1  22   1  226.92   17.38
 -21  -1   1  226.92   16.67
  22 -21   1  180.67    7.75
  -1  22   4    4.46    4.11
  -1  22   4    0.63   10.54
 -21  -1   4    2.89    2.79
  -1  22   7   87.19   13.73
  -2  22  -9   38.82   16.34
  -2  22  -9   78.70   20.99
  22 -20  -9   44.44   19.04
 -20  -2  -9   36.94   19.67
 -20  -2  -9   67.35   15.87
  22 -20  -9   47.19   15.80
  22 -20  -6   42.12   14.48
 -20  -2  -6   53.87   14.11
  -2  22  -6   53.47   16.36
  22 -20  -6   25.57   15.64
 -20  -2  -6   54.77   18.22
  -2  22  -6   56.14   16.45
  -2  22  -6   42.70   12.03
  -2  22  -3   71.09   14.69
  22 -20  -3   65.54   14.91
  -2  22  -3   69.31   15.46
  -2  22  -3   74.19   16.03
  22 -20  -3  112.87   14.91
 -20  -2  -3   70.97   15.02
 -20  -2  -3   97.47   17.14
  -2  22   0   11.83   11.98
  -2  22   0   27.69   13.05
  -2  22   0   37.98   10.98
 -20  -2   0   40.01   10.60
  22 -20   0   13.92    5.86
 -20  -2   0   25.79   13.91
  -2  22   3   91.76   15.46
  -2  22   3   79.27    9.32
 -20  -2   3   82.07    7.83
  -2  22   6   41.85   11.95
  -3  22 -10  165.45   23.52
  -3  22 -10  186.56   29.87
 -19  -3 -10  146.87   21.24
  22 -19 -10  202.36   30.65
 -19  -3 -10  178.67   28.86
  -3  22  -7   -0.92   14.49
  -3  22  -7   -1.12   12.20
  22 -19  -7   12.45   15.20
 -19  -3  -7    3.06   14.13
  -3  22  -7   -4.29   10.39
  22 -19  -7    8.30   12.99
 -19  -3  -7   13.03   12.59
  -3  22  -4  271.41   24.76
  -3  22  -4  235.28   24.03
  22 -19  -4  252.12   22.49
 -19  -3  -4  249.83   25.06
 -19  -3  -4  207.16   20.18
  22 -19  -4  258.30   23.59
  -3  22  -4  207.97   20.28
  -3  22  -1   -9.75   11.24
  -3  22  -1   -0.15   10.31
 -19  -3  -1   15.27   10.61
  -3  22  -1    3.51   11.25
  22 -19  -1    1.26    6.98
 -19  -3  -1    1.53    9.13
  -3  22   2  451.50   33.05
  -3  22   2  528.76   29.92
  -3  22   2  494.46   22.48
 -19  -3   2  502.59   19.86
  -3  22   5    1.14    9.70
  -3  22   8  140.16   15.95
  -4  22  -8   62.21   16.51
  -4  22  -8   50.91   17.24
  22 -18  -8   31.27   17.72
  22 -18  -8   54.52   17.44
 -18  -4  -8   68.18   20.89
 -18  -4  -8   36.76   13.73
  -4  22  -8   53.95   13.32
  22 -18  -8   26.52   14.36
  -4  22  -5   94.12   18.25
  -4  22  -5   79.12   15.74
  22 -18  -5   78.61   16.28
  22 -18  -5   95.05   17.51
 -18  -4  -5   87.27   18.02
 -18  -4  -5  100.76   15.64
  -4  22  -5   97.84   15.36
  22 -18  -5   75.99   16.06
  -4  22  -2   32.18   12.55
  -4  22  -2   59.48   14.72
  22 -18  -2   36.18   12.17
  -4  22  -2   43.22   13.89
  22 -18  -2   69.66   11.46
 -18  -4  -2   35.93   13.79
  22 -18  -2   71.82   15.45
 -18  -4  -2   21.11   11.56
  -4  22   1   92.93   17.85
  -4  22   1  112.34   16.52
  -4  22   1  137.34   14.27
  22 -18   1   81.48    5.90
  22 -18   1   75.39    5.73
 -18  -4   1  152.20   13.62
 -18  -4   1  105.15   17.66
  -4  22   4    0.67   10.52
  -4  22   4    3.85    4.62
  -4  22   4    9.58    5.46
  -4  22   7   37.23   11.44
  -5  22  -9   63.79   16.98
  -5  22  -9   35.82   17.83
  22 -17  -9   86.33   23.66
  22 -17  -9   63.17   18.06
 -17  -5  -9   45.45   20.53
 -17  -5  -9   25.78   13.50
  22 -17  -9   76.92   17.22
  22 -17  -6   -7.51   13.74
  -5  22  -6  -14.63   14.61
  22 -17  -6  -11.03   12.70
  -5  22  -6    4.88   10.12
  22 -17  -6    0.98   11.22
 -17  -5  -6   -2.10   11.59
  -5  22  -6   13.93   11.83
  -5  22  -3  116.48   16.69
  -5  22  -3  143.13   18.59
  22 -17  -3  158.87   16.94
  22 -17  -3  144.49   19.49
 -17  -5  -3  111.76   15.21
  22 -17  -3  129.48   18.43
  -5  22  -3  123.83   16.82
  -5  22   0   38.54   13.41
  22 -17   0   50.39   13.84
  22 -17   0   53.98    7.81
  22 -17   0   58.18    8.28
 -17  -5   0   49.64   14.89
 -17  -5   0   57.62   11.45
  -5  22   0   57.57   12.36
  -5  22   3  102.47   19.77
  -5  22   3   93.01   10.42
 -17  -5   3   78.81    6.20
  -5  22   3   77.63    9.69
 -17  -5   3   81.96    7.15
  -6  22 -10  112.90   20.58
  -6  22 -10  133.01   25.62
  22 -16 -10  113.13   25.92
  22 -16 -10  111.05   20.98
 -16  -6 -10  160.16   29.14
 -16  -6 -10  104.33   20.09
  22 -16 -10   87.74   17.78
  -6  22  -7   36.00   13.63
  -6  22  -7   23.49   16.01
  22 -16  -7   55.41   16.57
  22 -16  -7   21.35   13.28
 -16  -6  -7   18.58   12.30
  -6  22  -7    8.93   10.17
  22 -16  -7   22.99   13.35
  -6  22  -4  176.86   19.90
  22 -16  -4  199.49   20.41
  22 -16  -4  171.21   20.61
 -16  -6  -4  186.65   18.59
  22 -16  -4  177.96   19.90
  -6  22  -4  189.45   19.57
  -6  22  -4  208.71   22.05
  22 -16  -1   19.41   11.20
  -6  22  -1    7.17   10.21
  22 -16  -1    6.76    7.69
  22 -16  -1    2.25   11.15
 -16  -6  -1   10.64   12.12
  -6  22  -1    6.47   10.14
 -16  -6   2  435.39   19.18
 -16  -6   2  517.18   18.89
  -6  22   2  483.27   32.42
  -6  22   2  466.98   22.15
  -6  22   5   -0.53    2.47
  -6  22   5    4.73    2.69
  -6  22   8  289.75   21.06
  -7  22  -8    6.92   14.46
  22 -15  -8    6.62   16.12
  22 -15  -8   26.07   14.25
 -15  -7  -8   11.43   12.91
  -7  22  -8   11.23   11.77
  -7  22  -8   19.50   11.73
  22 -15  -8   29.85   13.35
  -7  22  -5   74.06   16.55
  22 -15  -5   65.67   15.49
 -15  -7  -5   37.13    9.89
  22 -15  -5   44.63   14.55
  -7  22  -5   60.16   13.01
  22 -15  -5   25.86   13.11
 -15  -7  -5   47.22   12.16
  -7  22  -5   31.01   12.22
  22 -15  -2  286.89   19.56
  -7  22  -2  334.43   24.02
  22 -15  -2  317.83   24.84
  22 -15  -2  268.79   22.73
  -7  22  -2  331.08   24.19
 -15  -7  -2  293.86   22.68
 -15  -7   1    0.33   10.91
  -7  22   1    0.68   11.98
  22 -15   1  -18.45   11.73
  22 -15   1    0.80    4.46
  22 -15   1    5.93   10.65
  22 -15   1    0.44    4.11
 -15  -7   1    6.51    7.46
  -7  22   4   44.60   15.31
  -7  22   4   32.95    7.74
  -7  22   4   24.57    7.02
 -14  -8  -9  113.19   20.56
  -8  22  -9  125.16   23.52
  22 -14  -9  171.09   26.35
  22 -14  -9   98.00   19.57
  22 -14  -9  134.52   20.03
  -8  22  -9  128.10   18.22
  -8  22  -9  133.21   19.71
  -8  22  -6   45.18   13.93
  -8  22  -6   62.10   17.09
  22 -14  -6   40.82   14.65
  22 -14  -6   37.85   15.43
 -14  -8  -6   45.36   14.20
  22 -14  -6   41.30   14.37
  -8  22  -6   44.90   13.12
  22 -14  -3  298.60   24.45
 -14  -8  -3  260.70   21.71
  22 -14  -3  275.29   23.21
  -8  22  -3  298.66   22.88
 -14  -8   0  183.38   19.29
  22 -14   0  160.65   12.10
  22 -14   0  224.65   20.62
  22 -14   0  187.70   19.30
  -8  22   0  184.25   20.19
 -14  -8   3  311.29   10.79
  -8  22   3  303.07   16.95
 -14  -8   3  294.16   10.84
  -8  22   3  337.81   28.94
 -13  -9 -10  130.56   22.85
  -9  22 -10  114.30   19.71
  -9  22 -10  112.09   22.82
  22 -13 -10  129.45   27.60
  22 -13 -10  147.31   24.47
  -9  22 -10  115.85   19.19
  22 -13 -10  106.09   19.70
  -9  22  -7   82.04   16.33
  -9  22  -7   73.36   19.20
  22 -13  -7   83.59   19.20
  22 -13  -7   97.43   17.78
 -13  -9  -7   58.68   14.82
  22 -13  -7   77.14   15.68
  -9  22  -7   64.76   14.75
 -13  -9  -4  239.25   16.14
  22 -13  -4  256.71   23.44
 -13  -9  -4  297.62   22.67
  22 -13  -4  253.71   22.56
  -9  22  -4  239.06   21.58
  -9  22  -4  218.04   16.01
 -13  -9  -1   79.95   14.22
  22 -13  -1   98.66   11.91
  22 -13  -1   77.80   14.49
  22 -13  -1   92.16   16.00
  -9  22  -1   91.26   15.36
  22 -13   2  366.18   26.61
 -13  -9   2  473.07   29.61
  22 -13   2  455.65   26.59
  -9  22   2  378.19   20.71
 -13  -9   2  433.43   18.24
  -9  22   2  419.96   30.17
  22 -13   2  379.25   12.89
  -9  22   5    1.37   14.75
  -9  22   5   10.54    5.68
 -10  22  -8   70.69   15.61
 -10  22  -8   77.16   20.63
  22 -12  -8   89.45   20.93
  22 -12  -8   47.89   15.88
 -12 -10  -8   60.42   15.87
  22 -12  -8   77.99   16.62
 -10  22  -8   60.52   14.89
 -10  22  -5  134.00   18.44
 -12 -10  -5   81.49    9.47
 -12 -10  -5  103.84   16.84
  22 -12  -5  101.22   17.26
 -10  22  -5   67.37   10.38
  22 -12  -5  101.23   16.72
 -10  22  -5  104.76   15.46
 -12 -10  -2  293.68   19.25
  22 -12  -2  356.22   26.09
 -10  22  -2  322.00   18.56
 -12 -10  -2  313.52   23.64
  22 -12  -2  337.00   24.76
 -10  22  -2  335.15   25.04
  22 -12   1  155.62   17.50
  22 -12   1  115.07    9.63
 -12 -10   1  109.27   17.24
  22 -12   1  116.71   16.91
 -10  22   1  115.85   17.53
 -12 -10   1  143.28   13.49
 -10  22   4  154.69   12.77
 -10  22   4  213.16   25.81
 -11  22  -9  354.28   34.55
 -11 -11  -9  319.33   28.72
  22 -11  -9  322.65   35.12
 -11  22  -9  375.75   28.56
  22 -11  -9  362.00   29.74
  22 -11  -9  264.70   25.94
 -11  22  -9  275.06   26.07
 -11  22  -6   27.88   12.79
  22 -11  -6   12.27   12.48
 -11 -11  -6   15.82   12.56
  22 -11  -6   33.41   13.17
 -11  22  -6   17.73   11.59
 -11 -11  -3  270.70   17.22
  22 -11  -3  311.98   24.35
 -11 -11  -3  301.29   22.78
 -11  22  -3  268.82   16.12
  22 -11  -3  310.81   24.02
 -11  22  -3  279.51   22.42
 -11 -11   0   35.12   10.16
  22 -11   0   23.78    7.53
 -11 -11   0   35.82   13.68
  22 -11   0   31.04   11.17
 -11  22   0   15.79    7.65
 -11  22   0   34.06   12.45
  22 -11   0   38.42   12.60
 -11 -11   3  318.39   26.07
  22 -11   3  338.83   22.77
  22 -11   3  279.91   12.11
 -11  22   3  298.83   17.83
 -11  22   3  301.89   26.82
 -12  22 -10   44.29   14.33
 -12  22 -10   32.91   19.63
  22 -10 -10   31.20   20.01
 -10 -12 -10   31.55   18.32
  22 -10 -10   26.22   14.54
  22 -10 -10   40.03   17.41
 -12  22 -10   36.67   15.73
 -12  22  -7    9.03   13.86
  22 -10  -7  -14.99   11.95
 -10 -12  -7   -1.85   11.93
  22 -10  -7  -12.46   12.80
 -12  22  -7   20.52   12.70
 -12  22  -7    0.71   11.21
 -10 -12  -4  130.18   11.39
 -10 -12  -4  134.99   17.38
  22 -10  -4  131.38   17.89
  22 -10  -4  101.22   16.39
 -12  22  -4  121.51   10.91
 -12  22  -4  132.77   18.28
 -12  22  -1   76.50   10.17
  22 -10  -1   63.12   14.44
 -10 -12  -1   76.31   13.61
  22 -10  -1   92.71   15.55
 -12  22  -1   91.05   15.38
  22 -10   2  243.15   13.62
  22 -10   2  254.61   20.64
 -10 -12   2  252.58   14.94
 -12  22   2  275.53   24.86
  22 -10   2  274.07   22.72
 -10 -12   2  301.73   24.02
  22 -10   5  121.41    9.65
 -12  22   5  167.39   13.31
 -12  22   5  187.24   24.77
  -9 -13  -8  265.71   26.43
 -13  22  -8  251.21   29.12
 -13  22  -8  220.16   21.75
  22  -9  -8  290.50   26.92
  22  -9  -8  236.91   24.26
 -13  22  -8  250.11   24.57
 -13  22  -5    9.00    5.63
  22  -9  -5   19.62   12.42
  22  -9  -5   26.13    9.66
  -9 -13  -5    6.96   10.60
  22  -9  -5   21.75   12.70
 -13  22  -5   16.86   10.69
  -9 -13  -2  584.58   24.77
 -13  22  -2  529.56   20.11
  -9 -13  -2  557.99   29.70
  22  -9  -2  530.75   29.90
 -13  22  -2  608.87   31.46
  22  -9   1   95.97   14.80
  22  -9   1   85.27    9.95
  22  -9   1  102.30   16.26
 -13  22   1  126.41   17.63
  -9 -13   1   99.17   12.28
  -9 -13   1   70.60   14.38
  22  -9   4  342.36   21.74
  22  -9   4  258.57   13.82
 -13  22   4  289.85   17.98
  -9 -13   4  215.83    8.61
 -13  22   4  341.46   28.77
 -14  22  -9  105.22   17.97
 -14  22  -9  105.59   22.75
  -8 -14  -9   94.16   20.18
  22  -8  -9  115.16   19.41
 -14  22  -9  100.10   18.23
  22  -8  -9   98.79   19.38
  22  -8  -6   27.20   13.37
  -8 -14  -6   28.38   14.13
  22  -8  -6    0.24   11.44
 -14  22  -6   -5.29   11.80
  -8 -14  -3  378.03   18.57
  22  -8  -3  363.53   25.98
 -14  22  -3  368.29   14.67
  -8 -14  -3  389.59   26.03
  22  -8  -3  318.63   20.31
  22  -8  -3  397.05   26.49
 -14  22  -3  345.21   25.11
  -8 -14   0  125.03   17.51
 -14  22   0  130.04   12.87
  22  -8   0  165.94   18.25
  22  -8   0  121.91   17.17
  22  -8   0  130.54   12.83
 -14  22   0  105.81   16.26
 -14  22   3   82.98   17.93
  22  -8   3  108.28   14.56
  -8 -14   3  126.48   17.89
  -8 -14   3  137.54   10.69
  22  -8   3  124.90   11.60
  22  -8   3  158.35   19.13
 -14  22   6  142.73   23.24
 -15  22 -10   30.14   14.34
 -15  22 -10   47.62   20.21
  -7 -15 -10   49.43   18.26
  22  -7 -10   34.17   16.75
  22  -7 -10   29.70   15.81
 -15  22 -10    9.70   14.43
  22  -7  -7   35.59   14.23
  -7 -15  -7    7.31   13.35
  22  -7  -7   30.14   14.23
 -15  22  -7   23.60   12.35
  22  -7  -4    6.74   12.01
 -15  22  -4   10.85    3.63
  22  -7  -4   11.77    8.37
  -7 -15  -4   30.71   12.69
  22  -7  -4   33.66   14.58
 -15  22  -4   31.28   11.55
 -15  22  -1    6.59    6.18
  22  -7  -1   21.76   11.26
  -7 -15  -1   -6.37    9.52
  22  -7  -1   -6.15    9.98
 -15  22  -1   -3.59   10.71
  22  -7   2  188.07   14.68
  22  -7   2  285.51   21.48
  -7 -15   2  237.67   22.61
  -7 -15   2  219.00   15.03
  22  -7   2  196.89   20.19
 -15  22   2  255.17   24.02
 -15  22   5   24.01   15.44
  22  -7   5   23.61    9.28
  -7 -15   5   33.07    3.95
  22  -7   5   22.77    8.27
 -16  22  -8  435.51   29.27
  22  -6  -8  466.22   33.20
  22  -6  -8  445.87   32.93
 -16  22  -8  417.17   31.16
  -6 -16  -8  455.94   34.41
  22  -6  -5   23.28   13.30
  22  -6  -5   12.03    7.35
  -6 -16  -5   10.39   11.28
  22  -6  -5  -12.81   11.96
 -16  22  -5   10.61   12.01
 -16  22  -2  385.64   14.27
  22  -6  -2  453.18   28.60
  -6 -16  -2  404.19   26.36
  22  -6  -2  405.13   22.92
  22  -6  -2  482.68   28.83
 -16  22  -2  410.77   27.96
 -16  22   1   17.67    8.45
  22  -6   1   57.78   13.85
  -6 -16   1   38.85   12.33
  -6 -16   1   32.06    9.76
 -16  22   1   35.67   13.86
  22  -6   1   36.71   11.53
  22  -6   4  217.95   18.23
  22  -6   4  199.01   15.91
  -6 -16   4  172.08   11.75
 -16  22   4  226.81   24.64
  22  -6   4  241.30   22.78
 -16  22   7   67.14   18.71
 -17  22  -9  100.20   16.80
  22  -5  -9  120.09   19.90
  22  -5  -9  142.95   21.49
 -17  22  -9  109.53   20.10
  -5 -17  -9  164.99   24.40
  22  -5  -6   36.69   14.07
  -5 -17  -6   29.07   14.75
  22  -5  -6   25.24   13.38
 -17  22  -6   20.68   12.63
  -5 -17  -3  102.08   17.05
  22  -5  -3   78.22   14.94
  22  -5  -3  107.23   16.61
 -17  22  -3  124.75   17.78
  22  -5   0   70.43   14.38
  -5 -17   0   49.90   13.91
  22  -5   0   37.00   11.21
 -17  22   0   64.14   15.55
  -5 -17   3  101.29   16.71
  22  -5   3  121.67   15.45
  -5 -17   3  117.13   12.29
  22  -5   3  120.35   16.93
 -17  22   3  116.26   19.52
 -17  22   6  -10.15   16.07
  22  -5   6   17.67    8.93
 -18  22 -10   39.08   21.58
  -4 -18 -10   -3.17   16.18
  22  -4 -10    4.12   15.03
  22  -4 -10   10.86   15.49
 -18  22 -10   -0.09   14.46
  -4 -18  -7   58.17   17.42
  22  -4  -7   47.63   14.81
  22  -4  -7   34.44   14.97
 -18  22  -7   62.54   16.83
  22  -4  -4    7.21   11.95
  -4 -18  -4    9.91   12.21
  22  -4  -4   17.05   13.12
 -18  22  -4   29.37   12.75
  -4 -18  -1   29.29   12.06
  22  -4  -1   31.06   11.09
  22  -4  -1   58.41   14.72
 -18  22  -1   49.70   14.05
  -4 -18   2   75.53   15.77
  22  -4   2   83.81   13.30
  -4 -18   2   58.46   10.87
 -18  22   2   69.26   16.56
  22  -4   2   64.66   14.42
 -18  22   5   61.50   18.09
  22  -4   5   55.49   11.90
  22  -3  -8  207.81   24.20
  22  -3  -8  186.06   23.89
 -19  22  -8  193.41   24.69
  -3 -19  -8  231.23   27.39
  22  -3  -5   26.30   13.60
  -3 -19  -5   40.94   14.91
  22  -3  -5   54.37   15.29
 -19  22  -5   20.16   12.79
  22  -3  -2  511.18   30.11
  -3 -19  -2  491.42   28.91
  22  -3  -2  531.02   30.65
 -19  22  -2  533.44   32.12
  -3 -19   1   33.03   11.90
  22  -3   1   35.84   11.93
  22  -3   1   17.28   11.75
 -19  22   1   40.92   14.28
  -3 -19   4  178.86   22.15
  22  -3   4  206.94   17.76
  -3 -19   4  129.25   13.56
 -19  22   4  145.87   20.76
  22  -3   4  158.70   18.89
 -19  22   7   35.68   17.65
 -20  22  -9   47.79   15.56
  -2 -20  -9   30.66   17.81
  22  -2  -9   32.37   18.34
 -20  22  -9   14.97   14.40
  22  -2  -6   24.32   12.91
  -2 -20  -6   19.55   12.95
  22  -2  -6   18.25   13.96
 -20  22  -6    8.44   12.85
  22  -2  -3   54.00   14.86
  22  -2  -3   35.07   13.14
  -2 -20  -3   49.35   13.64
 -20  22  -3   48.34   13.76
  22  -2   0   26.85   11.81
  -2 -20   0    0.72   10.64
  22  -2   0   24.42   12.20
 -20  22   0   18.22   12.01
  22  -2   3   62.84   12.31
  -2 -20   3   70.09   16.14
 -20  22   3   68.13   16.23
  22  -2   3   76.26   14.81
 -20  22   6   42.69   17.63
  22  -2   6   49.96   11.48
  22  -1  -7  189.64   23.76
  22  -1  -7  144.69   23.16
 -21  22  -7  160.84   23.85
  -1 -21  -7  171.64   23.73
  22  -1  -4    1.70   12.88
  -1 -21  -4   10.23   11.24
  22  -1  -4   -2.26   11.88
 -21  22  -4   10.88   11.06
  22  -1  -1  241.55   22.19
  -1 -21  -1  187.43   19.59
  22  -1  -1  199.52   20.02
 -21  22  -1  168.79   20.63
  22  -1   2   63.11   13.65
  22  -1   2   85.54   15.14
 -21  22   2   73.83   16.34
 -21  22   5   90.11   18.30
  22  -1   5   75.78   12.98
  22  -1   5   95.59   17.47
  22   0  -8  248.57   27.00
  22   0  -8  200.58   26.75
 -22  22  -8  162.30   24.72
   0 -22  -8  226.27   27.27
  22   0  -5    0.30   13.14
   0 -22  -5    5.34   12.25
  22   0  -5   -3.85   13.87
 -22  22  -5  -16.09   13.87
  22   0  -2  168.74   20.63
   0 -22  -2  165.75   19.45
  22   0  -2  171.41   20.31
 -22  22  -2  105.58   17.24
   0 -22   1  -10.77   10.84
  22   0   1    8.52   10.71
  22   0   1    9.35   10.75
 -22  22   1   -2.77   11.42
  22   0   4  292.59   21.01
   0 -22   4  284.93   27.31
  22   0   4  341.28   25.91
 -22  22   4  320.17   28.28
 -22  22   7   26.51   17.79
  22   0   7   31.85   10.14
   1 -23  -9   -6.66   17.26
  22   1  -9   11.17   15.96
  22   1  -9  -11.43   14.95
 -23  22  -9  -18.99   16.86
  22   1  -6   47.87   15.82
   1 -23  -6   37.40   16.36
  22   1  -6   19.13   16.12
 -23  22  -6   37.47   15.27
  22   1  -3    7.25   11.89
  22   1  -3   44.70   14.43
   1 -23  -3   29.32   13.55
 -23  22  -3   29.36   15.53
  22   1   0  161.78   19.21
  22   1   0  144.15   18.09
   1 -23   0  138.47   17.58
 -23  22   0  155.72   20.60
  22   1   3   67.46   13.48
   1 -23   3   81.78   17.33
 -23  22   3   62.62   16.43
  22   1   3   82.81   15.35
 -23  22   6    6.88   17.19
  22   1   6   14.64    9.09
  22   2  -7  245.32   27.22
  22   2  -7  188.54   25.46
 -24  22  -7  279.78   28.94
   2 -24  -7  209.41   26.43
  22   2  -4   20.14   14.12
   2 -24  -4   27.81   15.06
  22   2  -4   61.70   16.36
 -24  22  -4   33.26   14.89
  22   2  -1  265.70   24.08
   2 -24  -1  211.74   21.24
  22   2  -1  237.10   22.93
 -24  22  -1  251.25   23.87
  22   2   2   68.33   14.19
   2 -24   2   57.11   14.63
  22   2   2   79.36   15.07
 -24  22   2   79.49   17.81
  22   2   5  135.23   15.54
 -24  22   5  132.72   22.48
  22   2   5  114.18   17.91
 -24  22   8   81.67   22.96
   3 -25  -8   98.03   23.23
  22   3  -8  120.38   22.99
  22   3  -8   97.67   23.14
 -25  22  -8   72.97   22.10
  22   3  -5    6.48   13.57
   3 -25  -5   42.30   14.66
  22   3  -5    5.46   14.02
 -25  22  -5    6.11   12.96
  22   3  -2   82.32   16.37
  22   3  -2   73.00   16.51
 -25  22  -2   99.37   17.66
   3 -25  -2   75.50   15.22
  22   3   1    3.56   10.82
  22   3   1   18.08   11.86
 -25  22   1   31.98   12.92
   3 -25   1   16.28   11.45
  22   3   4  164.64   17.66
   3 -25   4  190.21   22.89
  22   3   4  159.07   19.75
 -25  22   4  167.08   23.08
 -25  22   7   42.96   19.60
  22   4  -6  105.47   21.01
   4 -26  -6  101.83   21.68
  22   4  -6   67.82   19.97
 -26  22  -6   63.27   18.01
  22   4  -3   44.96   15.15
  22   4  -3   28.57   14.19
   4 -26  -3   43.18   14.90
 -26  22  -3   18.45   14.58
  22   4   0  270.39   24.41
  22   4   0  257.01   23.75
   4 -26   0  293.00   24.80
 -26  22   0  282.95   26.29
  22   4   3   82.49   15.81
   4 -26   3   68.60   16.21
  22   4   3   85.80   15.94
 -26  22   3   59.31   17.31
 -26  22   6   -1.90   16.25
  22   4   6   13.46    9.37
  22   5  -7  117.59   23.60
   5 -27  -7  102.83   22.16
  22   5  -7  170.85   27.02
 -27  22  -7  124.86   23.65
  22   5  -4   68.57   18.16
   5 -27  -4   42.55   15.62
  22   5  -4   45.32   15.31
 -27  22  -4   59.61   16.99
  22   5  -1  196.37   23.09
   5 -27  -1  167.90   20.48
  22   5  -1  194.93   22.07
 -27  22  -1  178.89   22.46
  22   5   2  182.54   20.44
   5 -27   2  207.13   21.86
  22   5   2  189.16   20.62
 -27  22   2  161.56   21.44
  22   5   5   90.19   17.16
  22   5   5   83.38   14.83
 -27  22   5   74.40   18.50
 -27  22   8   26.77   20.34
   6 -28  -8   18.75   18.69
  22   6  -8   51.49   20.41
  22   6  -8   13.81   18.20
 -28  22  -8   53.67   20.35
  22   6  -5   29.41   15.60
   6 -28  -5    3.21   13.56
  22   6  -5   -6.58   14.73
 -28  22  -5   18.14   16.39
  22   6  -2   76.24   18.28
  22   6  -2   67.33   16.46
 -28  22  -2   66.12   16.42
   6 -28  -2   72.09   15.62
  22   6   1   66.87   15.90
  22   6   1   53.11   14.67
 -28  22   1   78.68   17.76
   6 -28   1   70.03   16.05
  22   6   4   72.54   14.65
   6 -28   4   55.64   16.78
 -28  22   4   43.03   16.59
  22   6   4   57.13   15.51
 -28  22   7   38.78   20.14
   7 -29  -6  131.63   23.61
  22   7  -6  131.06   23.80
  22   7  -6  166.80   25.50
 -29  22  -6  122.58   22.93
  22   7  -3   26.85   16.86
  22   7  -3   35.61   15.52
   7 -29  -3   73.92   17.02
 -29  22  -3   41.00   17.78
  22   7   0  107.09   19.14
  22   7   0  120.84   18.48
   7 -29   0  129.61   19.73
 -29  22   0  146.51   21.73
  22   7   3   17.61   12.59
   7 -29   3   51.37   16.03
  22   7   3   -2.78   12.52
 -29  22   3   17.97   14.78
 -29  22   6   14.24   17.16
  22   7   6   70.68   13.78
  22   8  -7   41.89   19.24
   8 -30  -7   31.55   17.92
  22   8  -7   49.01   19.70
 -30  22  -7   45.98   20.11
  22   8  -4   51.33   17.98
   8 -30  -4   22.82   14.76
  22   8  -4   21.86   15.30
 -30  22  -4   23.44   17.16
  22   8  -1  146.68   22.33
   8 -30  -1  107.41   18.04
  22   8  -1  159.23   22.07
 -30  22  -1  142.48   22.50
  22   8   2   66.65   16.16
   8 -30   2   93.11   18.02
  22   8   2   75.74   15.57
 -30  22   2   57.83   17.70
  22   8   5   46.56   15.43
  22   8   5   71.06   15.79
 -30  22   5   33.53   17.72
  22   9  -5    8.37   16.43
   9 -31  -5  -17.17   14.68
  22   9  -5    9.68   15.66
 -31  22  -5   32.74   18.00
  22   9  -2   13.10   15.54
  22   9  -2   25.30   15.54
 -31  22  -2   22.32   16.39
   9 -31  -2   35.32   13.74
  22   9   1   35.84   14.72
  22   9   1   29.53   13.77
 -31  22   1   23.93   13.97
   9 -31   1   28.81   13.71
   9 -31   4   11.41   13.26
  22   9   4   11.00   13.21
 -31  22   4  -16.72   14.47
  22   9   4    5.68   12.29
  22  10  -6  125.11   24.90
  10 -32  -6   81.94   21.20
  22  10  -6  126.33   25.75
 -32  22  -6  120.36   25.23
  22  10  -3   46.55   19.52
  22  10  -3   34.42   16.06
  10 -32  -3   53.72   17.24
 -32  22  -3   41.58   16.81
  22  10   0  191.55   24.39
  22  10   0  177.69   22.21
 -32  22   0  144.79   22.67
  10 -32   0  135.72   19.82
  22  10   3   13.79   12.98
  10 -32   3  -17.50   14.20
  22  10   3   26.79   13.85
 -32  22   3    2.81   13.63
 -32  22   6  119.69   25.93
  22  11  -4   -2.31   17.17
  22  11  -4   15.92   16.25
  11 -33  -4   16.74   16.89
 -33  22  -4    4.30   16.76
  11 -33  -1   12.42   12.61
  22  11  -1   13.83   14.38
  22  11  -1   27.94   16.11
  22  11   2   51.94   16.88
  22  11   2   46.77   16.41
 -33  22   2   19.65   15.66
  11 -33   2   15.74   14.21
  22  11   5    5.70   12.65
 -33  22   5   55.77   20.99
  22  12  -2    9.82   15.79
  22  12  -2   -2.56   13.88
 -34  22  -2   30.87   17.68
  12 -34  -2   13.65   13.27
  22  12   1   53.01   19.02
  12 -34   1   48.08   16.34
  22  12   1   22.00   14.29
 -34  22   1   21.62   16.76
  22  12   4   16.15   14.71
 -34  22   4   -7.89   15.91
  22  13  -3   -0.98   16.46
  22  13  -3    4.16   16.83
 -35  22  -3   -6.78   16.44
  13 -35  -3   16.79   15.06
  22  13   0   96.58   21.47
  13 -35   0   98.25   18.91
  22  13   0  113.06   20.51
 -35  22   0   99.87   21.28
  22  13   3   -0.10   14.33
  22  13   3    0.12   14.05
  14 -36  -1   36.78   15.34
  22  14  -1    6.99   16.83
  22  14  -1   55.41   17.86
 -36  22  -1   19.21   16.35
  22  14   2   11.63   13.37
 -36  22   2    7.51   15.58
  13  23  -1   -2.05   16.90
  13  23  -1   15.67   15.72
 -36  13  -1    9.95   14.83
  13  23   2   13.52   15.85
 -36  13   2   35.55   15.02
  12  23  -2   31.83   17.62
  12  23  -2   44.99   17.79
  23 -35  -2   28.07   12.67
 -35  12  -2   26.87   17.00
  12  23   1   79.74   20.08
  12  23   1   28.75   13.40
 -35  12   1   58.12   16.54
  11  23  -3   49.83   18.99
  23 -34  -3   36.35   14.40
  11  23  -3   27.09   17.72
 -34  11  -3   44.09   17.89
  11  23   0    2.30   15.90
  11  23   0   26.61   13.89
 -34  11   0   28.86   14.74
  11  23   3   48.18   18.17
 -34  11   3   41.31   13.99
  23 -33  -4    6.55   13.00
  10  23  -4   40.94   18.84
  10  23  -4    0.83   15.19
 -33  10  -4  -13.62   17.42
  10  23  -1  -14.06   15.92
  10  23  -1  -14.81   13.65
  23 -33  -1   -8.46   10.21
 -33  10  -1    0.47   13.03
  10  23   2   40.91   16.59
  10  23   2   22.06   11.77
 -33  10   2   16.00   11.79
  10  23   5   12.04   14.16
  23 -32  -5   25.47   14.85
   9  23  -5   32.68   18.57
   9  23  -5   17.48   15.61
 -32   9  -5   24.15   19.65
   9  23  -2  111.28   22.20
   9  23  -2  114.42   20.03
 -32   9  -2  155.52   22.41
  23 -32  -2   91.22   14.98
   9  23   1   60.88   18.59
   9  23   1   48.38   13.67
 -32   9   1   31.15   13.50
   9  23   4  114.83   19.68
   8  23  -6   62.83   21.29
   8  23  -6   64.35   21.22
 -31   8  -6   62.15   20.04
  23 -31  -6   48.80   18.74
  23 -31  -3   57.80   13.79
   8  23  -3   40.56   17.28
   8  23  -3   75.91   18.75
 -31   8  -3   54.11   18.72
   8  23   0    4.94   14.43
   8  23   0   27.11   13.74
 -31   8   0   18.84   11.51
  23 -31   0   10.32    8.09
   8  23   3  107.26   19.14
 -31   8   3   97.85   15.57
   8  23   6   16.44   12.64
   7  23  -7   30.94   19.10
   7  23  -7   25.17   18.74
 -30   7  -7   20.87   19.29
  23 -30  -7   11.91   17.35
   7  23  -4   14.91   16.73
   7  23  -4   56.64   18.59
 -30   7  -4   33.13   16.78
  23 -30  -4   12.36   11.65
   7  23  -1    7.34   13.95
  23 -30  -1    7.60    8.24
   7  23  -1   25.12   13.48
 -30   7  -1   32.88   14.15
   7  23   2   25.60   11.05
 -30   7   2   25.25   11.40
   7  23   5    3.99   12.79
   6  23  -5   14.73   16.09
   6  23  -5   -1.31   15.37
 -29   6  -5    6.11   11.97
 -29   6  -5   39.53   18.76
  23 -29  -5   -4.24   12.98
   6  23  -2  255.18   27.25
   6  23  -2  255.92   25.76
 -29   6  -2  254.08   25.93
  23 -29  -2  220.95   19.14
   6  23   1   22.83   14.16
   6  23   1   32.70   12.37
 -29   6   1   25.88   10.91
   6  23   4  185.33   22.51
   5  23  -6   35.39   17.01
 -28   5  -6   10.96   12.74
   5  23  -6   18.59   18.14
 -28   5  -6   15.04   18.62
  23 -28  -6    4.71   15.58
   5  23  -3  108.21   20.34
   5  23  -3  123.94   20.99
 -28   5  -3  124.52   20.98
  23 -28  -3  121.60   16.39
   5  23   0    7.10   11.93
  23 -28   0    6.06    6.58
 -28   5   0   12.86   11.55
   5  23   3   73.92   17.00
   5  23   3   73.00   10.82
 -28   5   3   61.99   11.78
   5  23   6   40.33   13.65
   4  23  -7   15.53   16.14
   4  23  -7   52.90   18.72
 -27   4  -7   28.82   18.30
  23 -27  -7   18.45   17.11
   4  23  -4   11.13   14.46
   4  23  -4   35.69   16.09
 -27   4  -4   58.24   17.24
  23 -27  -4   21.97   12.62
 -27   4  -4   15.45   11.16
   4  23  -1  115.27   19.72
   4  23  -1   96.50   16.78
 -27   4  -1   95.63   16.44
  23 -27  -1   83.17   11.42
   4  23   2   60.49   15.94
   4  23   2   35.82   10.16
 -27   4   2   38.77   10.54
   4  23   5  109.13   17.30
   3  23  -8  200.58   27.19
   3  23  -8  152.30   26.90
  23 -26  -8  176.35   27.87
 -26   3  -8  179.18   30.24
   3  23  -5   -3.27   14.91
   3  23  -5   10.77   15.03
 -26   3  -5    3.03   13.83
  23 -26  -5   24.42   14.27
 -26   3  -5   14.24   11.67
   3  23  -2  306.47   27.24
   3  23  -2  296.11   25.28
 -26   3  -2  329.13   27.56
  23 -26  -2  293.39   20.36
 -26   3  -2  300.81   25.45
  23 -26   1    4.17    3.92
   3  23   1   42.00   14.77
 -26   3   1   25.56   11.38
   3  23   1   34.16   11.16
   3  23   4  258.11   23.48
 -26   3   4  141.78   12.57
   3  23   7    6.64   10.49
 -25   2  -6   27.29   13.50
   2  23  -6   25.14   14.93
   2  23  -6   41.07   17.28
 -25   2  -6   44.42   17.22
  23 -25  -6   29.25   14.68
   2  23  -3  128.18   20.43
   2  23  -3  119.11   19.16
  23 -25  -3  118.59   15.80
 -25   2  -3   84.95   17.84
 -25   2  -3   95.79   17.02
   2  23   0   18.36   12.04
  23 -25   0   17.54    6.75
   2  23   0   28.41   11.50
 -25   2   0   28.84   10.85
   2  23   3  116.70   18.17
   2  23   3   99.07   11.32
 -25   2   3   74.80   10.33
   2  23   6   15.76   12.00
  23 -24  -7   77.74   17.02
   1  23  -7  106.85   20.06
   1  23  -7  108.46   22.68
  23 -24  -7  110.90   22.25
 -24   1  -7  116.09   23.24
 -24   1  -7   91.03   16.50
   1  23  -4   68.77   15.19
   1  23  -4   78.00   17.60
   1  23  -4   80.46   17.37
  23 -24  -4   79.22   15.77
 -24   1  -4   91.78   20.00
 -24   1  -4   78.49   15.31
   1  23  -1  287.97   25.67
   1  23  -1  307.96   23.76
 -24   1  -1  257.88   22.38
 -24   1  -1  237.47   23.55
  23 -24  -1  275.21   17.04
   1  23   2   38.58   13.68
   1  23   2   23.87    9.02
 -24   1   2    6.32    7.29
   1  23   5  235.04   21.55
   0  23  -8  279.33   29.03
   0  23  -8  186.98   26.78
  23 -23  -8  264.02   31.15
 -23   0  -8  281.79   32.36
 -23   0  -8  160.02   19.95
  23 -23  -8  223.74   24.06
 -23   0  -5   12.44   11.02
   0  23  -5    2.93   10.44
  23 -23  -5   -3.71   11.81
   0  23  -5   26.80   14.28
   0  23  -5   -1.93   14.39
  23 -23  -5   -4.73   11.34
 -23   0  -5    7.72   14.83
   0  23  -2  144.59   19.57
   0  23  -2  131.60   19.01
  23 -23  -2  157.03   15.50
 -23   0  -2  164.75   20.63
 -23   0  -2  113.16   17.29
   0  23  -2  117.61   17.92
   0  23   1   21.75   12.93
   0  23   1   18.06   10.13
  23 -23   1    3.05    2.76
 -23   0   1   -6.70    8.44
   0  23   4  119.81   17.19
   0  23   4  120.96    8.90
 -23   0   4   87.98    7.48
   0  23   7   -6.66   10.08
 -22  -1  -9   53.63   16.43
  -1  23  -9   33.66   16.67
  -1  23  -9   19.92   18.65
  23 -22  -9   -6.07   17.36
 -22  -1  -9   56.88   20.67
  -1  23  -6    2.54   10.31
  23 -22  -6   46.17   15.14
  -1  23  -6    8.77   13.57
  -1  23  -6   24.46   15.63
  23 -22  -6   25.37   14.23
 -22  -1  -6   50.99   14.70
 -22  -1  -6   13.20   15.85
  -1  23  -3   55.80   14.32
  -1  23  -3  102.19   17.90
  -1  23  -3  123.14   18.89
 -22  -1  -3   86.62   15.82
  23 -22  -3   61.95   13.50
 -22  -1  -3   85.32   16.53
  -1  23   0  190.82   23.01
  -1  23   0  188.72   20.96
  -1  23   0  179.59   17.92
 -22  -1   0  184.74   18.09
  23 -22   0  170.10   11.19
 -22  -1   0  161.77   20.38
  -1  23   3   42.11   12.88
  -1  23   3   57.26    9.14
 -22  -1   3   39.01    6.96
  -1  23   6   42.73   12.92
  23 -21  -7   86.14   17.35
  23 -21  -7  121.54   22.05
  -2  23  -7  109.05   21.52
  -2  23  -7   96.43   18.70
 -21  -2  -7  145.35   25.35
 -21  -2  -7  115.86   17.42
  -2  23  -7   99.96   15.13
 -21  -2  -4  125.36   17.03
  -2  23  -4  170.40   21.50
  -2  23  -4  133.17   20.28
  23 -21  -4  158.00   18.97
 -21  -2  -4  158.79   22.06
  23 -21  -4  145.87   19.13
  -2  23  -4  125.01   16.64
  -2  23  -1  335.19   26.50
  -2  23  -1  313.66   23.97
  23 -21  -1  275.72   16.60
 -21  -2  -1  358.28   24.70
 -21  -2  -1  300.69   25.34
  -2  23  -1  283.57   25.07
  -2  23   2   64.69   14.77
  -2  23   2   82.75   11.68
 -21  -2   2   80.65   10.22
  -2  23   5  204.08   20.19
  -3  23  -8   10.89   13.83
  -3  23  -8   40.05   17.07
  23 -20  -8   46.89   18.95
 -20  -3  -8   34.73   19.22
 -20  -3  -8   21.46   13.14
  23 -20  -8   34.83   14.57
  23 -20  -5    8.08   12.25
  -3  23  -5   49.44   16.18
  -3  23  -5   21.15   14.53
  23 -20  -5   37.20   14.16
 -20  -3  -5   59.79   14.22
 -20  -3  -5   37.53   15.97
  -3  23  -5   40.88   12.83
  -3  23  -2  261.78   23.77
  -3  23  -2  322.73   25.32
  23 -20  -2  314.01   20.54
 -20  -3  -2  339.10   25.64
 -20  -3  -2  309.15   24.52
  -3  23  -2  361.60   26.98
  23 -20  -2  265.40   23.55
  23 -20   1   10.35    2.98
  -3  23   1   15.53   12.87
  -3  23   1   18.56   11.03
  -3  23   1   16.58    9.34
  23 -20   1   16.60    3.41
 -20  -3   1   15.86    8.86
  -3  23   4   43.91   13.76
  -3  23   4   19.86    5.32
  -3  23   7   17.38   10.53
  -4  23  -9   10.09   14.30
  -4  23  -9   41.28   19.12
  23 -19  -9    6.34   17.38
 -19  -4  -9  -23.90   19.93
 -19  -4  -9    1.95   12.23
  23 -19  -9    9.12   13.77
  -4  23  -6  110.94   19.24
  -4  23  -6  157.77   24.34
  23 -19  -6  132.43   22.18
  23 -19  -6  204.79   23.57
 -19  -4  -6  141.02   23.91
 -19  -4  -6  128.12   18.14
  23 -19  -6  154.28   21.34
  -4  23  -6  129.08   17.31
 -19  -4  -3   39.22   12.48
  23 -19  -3   17.86   12.28
  -4  23  -3   39.63   13.84
  -4  23  -3   -0.45   11.50
  23 -19  -3   28.54   11.34
  23 -19  -3   39.22   15.16
 -19  -4  -3   18.90   11.81
  -4  23  -3    7.69   10.57
 -19  -4   0  313.84   25.14
  -4  23   0  333.59   25.87
  -4  23   0  289.57   21.65
  23 -19   0  276.07   13.96
 -19  -4   0  334.41   21.76
  -4  23   0  331.84   28.15
 -19  -4   3    3.07    4.87
  -4  23   3    8.46   11.05
  -4  23   3   22.20    8.11
 -19  -4   3    6.57    4.06
  -4  23   6  148.90   18.24
  -5  23 -10  109.68   21.22
  -5  23 -10   67.17   21.55
  23 -18 -10   97.85   24.27
 -18  -5 -10   93.24   24.36
 -18  -5 -10   47.65   16.80
  23 -18 -10   65.06   17.82
  -5  23  -7  152.57   20.80
  -5  23  -7  160.79   23.13
  23 -18  -7  173.70   23.46
 -18  -5  -7  137.49   19.00
  23 -18  -7  175.12   22.52
 -18  -5  -7  156.78   24.97
  23 -18  -7  175.57   20.98
  -5  23  -7  178.87   19.65
  -5  23  -4   13.98   13.33
  -5  23  -4    7.89   13.15
  23 -18  -4   -9.93   11.76
  23 -18  -4   -0.56   12.19
 -18  -5  -4   16.37   10.77
 -18  -5  -4   -0.02   11.74
  -5  23  -4    4.25   12.18
  23 -18  -4    0.67   12.99
  23 -18  -1  295.36   17.99
  -5  23  -1  295.15   22.66
  -5  23  -1  301.80   24.21
 -18  -5  -1  279.35   22.81
  23 -18  -1  271.12   24.32
 -18  -5  -1  293.78   22.57
  -5  23  -1  257.06   24.06
  23 -18  -1  224.63   22.29
  -5  23   2  124.02   13.21
 -18  -5   2  110.52   10.48
  -5  23   2  136.49   21.41
  -5  23   8    2.74    9.77
  -6  23  -8   10.55   15.79
  23 -17  -8    0.96   15.02
  23 -17  -8   53.02   16.61
 -17  -6  -8   -0.30   17.31
 -17  -6  -8   19.86   14.17
  -6  23  -8   29.65   13.78
  23 -17  -8    4.58   13.12
  -6  23  -8   20.03   13.04
  -6  23  -5   74.84   16.60
 -17  -6  -5   62.92   14.21
  -6  23  -5   51.61   15.77
  23 -17  -5   54.27   14.37
  23 -17  -5   73.63   16.45
  -6  23  -5   38.73   12.30
  23 -17  -5   55.17   14.90
  23 -17  -2   12.65   11.28
 -17  -6  -2   17.57   11.15
  -6  23  -2   25.72   12.13
  23 -17  -2   28.47    9.83
  -6  23  -2    7.42   11.06
  23 -17  -2   19.95   12.69
  -6  23  -2   10.94   11.96
  -6  23   1   -0.56   13.26
  -6  23   1    5.65    8.65
  23 -17   1    8.07    4.04
 -17  -6   1    5.94    7.17
  23 -17   1   -3.48    3.48
 -17  -6   1   -6.70   11.30
  -6  23   4   45.38    7.34
  -6  23   4   39.99    7.43
  -7  23  -9   17.23   12.87
  -7  23  -9   30.60   18.26
  23 -16  -9   15.96   17.94
  23 -16  -9   43.05   16.01
 -16  -7  -9   31.56   16.15
  -7  23  -9   27.14   13.23
  23 -16  -9   37.30   14.41
  -7  23  -6  301.37   25.25
  -7  23  -6  275.78   28.48
  23 -16  -6  316.90   28.83
 -16  -7  -6  254.50   23.43
  23 -16  -6  301.05   26.74
  23 -16  -6  261.60   24.48
  -7  23  -6  221.39   21.77
  -7  23  -3   11.54   11.18
  -7  23  -3    4.58   11.63
  23 -16  -3   10.84   10.75
  23 -16  -3   21.13   11.83
 -16  -7  -3   10.96   11.36
  -7  23  -3    2.08   10.88
  23 -16  -3   37.01   13.85
  -7  23   0  624.38   29.71
  23 -16   0  561.11   21.00
  23 -16   0  557.15   31.59
 -16  -7   0  602.50   27.57
 -16  -7   0  577.40   31.81
  23 -16   0  556.63   20.08
  -7  23   0  536.33   32.74
  23 -16   0  538.23   31.87
  -7  23   3   18.40    7.98
  -7  23   3   13.81   14.01
  -7  23   3   12.95    8.03
 -16  -7   3    2.69    3.46
 -16  -7   3    4.81    3.47
  -8  23 -10   39.93   15.73
  -8  23 -10   56.05   21.54
  23 -15 -10   24.52   19.72
  23 -15 -10   26.07   15.77
 -15  -8 -10   63.00   17.55
  23 -15 -10   47.15   17.21
  -8  23  -7  108.10   18.54
  -8  23  -7  158.15   23.65
 -15  -8  -7  140.98   20.24
  23 -15  -7  152.26   21.13
  23 -15  -7  141.73   20.32
  -8  23  -7  155.70   19.30
  23 -15  -7  158.79   25.24
  23 -15  -4  162.07   19.18
  -8  23  -4  202.64   21.07
  -8  23  -4  166.18   20.67
  23 -15  -4  154.86   20.27
 -15  -8  -4  156.37   18.14
  23 -15  -4  172.10   20.10
  -8  23  -4  197.12   20.36
 -15  -8  -1  305.97   24.42
  23 -15  -1  274.09   17.91
  23 -15  -1  347.48   26.42
  23 -15  -1  299.32   24.87
  -8  23  -1  278.80   25.17
 -15  -8   2   19.42    6.98
  -8  23   2   11.38   13.39
  -8  23   2   17.48    8.77
  23 -15   2    8.85    2.74
  23 -15   2   15.95    3.46
  23 -15   2   38.45   13.06
 -15  -8   2   30.02    7.54
 -15  -8   2    3.98   11.82
  -8  23   5  196.88   10.45
  -9  23  -8   41.49   14.94
  23 -14  -8  -20.27   16.92
  23 -14  -8    2.17   13.29
  -9  23  -8    3.44   14.02
 -14  -9  -8   15.05   13.26
  23 -14  -8   29.36   14.39
  -9  23  -8   -2.93   11.30
  -9  23  -5   66.25   14.72
  -9  23  -5   37.60   14.82
  23 -14  -5   55.00   15.16
  -9  23  -5   69.29   14.23
  23 -14  -5   64.30   16.11
 -14  -9  -5   48.06   13.39
  23 -14  -2   48.15   13.97
 -14  -9  -2   68.71   13.77
  -9  23  -2   65.12   14.68
  23 -14  -2   60.25   15.41
  23 -14   1  108.27   16.82
  23 -14   1  108.71    9.02
 -14  -9   1  111.25   17.24
  -9  23   1  145.69   19.81
  23 -14   1  117.07   17.34
 -14  -9   1  109.77   12.91
  -9  23   4   28.37   15.33
  -9  23   4   33.10    8.08
 -10  23  -9   42.70   14.94
 -10  23  -9   46.28   18.30
  23 -13  -9   62.09   21.57
  23 -13  -9   58.20   17.43
 -13 -10  -9   22.26   15.93
  23 -13  -9   47.06   16.76
 -10  23  -9   63.00   15.93
 -10  23  -6  304.58   28.79
 -10  23  -6  332.72   26.57
 -13 -10  -6  308.09   26.05
  23 -13  -6  279.75   25.74
  23 -13  -6  242.26   23.98
 -10  23  -6  271.93   23.63
 -10  23  -3   47.01    9.76
 -13 -10  -3   54.44   13.62
 -13 -10  -3   49.05   10.89
  23 -13  -3   45.75   14.67
 -10  23  -3   60.81   15.10
  23 -13  -3   50.25   14.17
  23 -13   0  230.01   14.51
 -13 -10   0  255.68   22.96
  23 -13   0  284.50   23.57
  23 -13   0  258.06   23.13
 -10  23   0  301.69   25.23
 -10  23   3   10.66   13.17
  23 -13   3    5.79   10.76
 -13 -10   3    7.88    4.12
  23 -13   3    3.77    2.82
 -13 -10   3    7.86    4.14
 -10  23   3   11.94    8.17
 -11  23 -10   41.61   15.18
 -11  23 -10   33.45   19.16
  23 -12 -10   17.28   19.54
 -12 -11 -10   26.06   16.78
  23 -12 -10   39.48   16.35
  23 -12 -10   18.35   15.96
 -11  23 -10   56.15   16.16
 -11  23  -7  134.51   21.61
 -11  23  -7  147.84   20.70
 -12 -11  -7  147.28   20.33
  23 -12  -7  136.38   20.35
 -11  23  -7  120.01   18.18
  23 -12  -7   91.62   17.80
 -12 -11  -4  123.24   12.48
  23 -12  -4  177.34   20.47
 -12 -11  -4  154.52   18.81
  23 -12  -4  124.58   17.64
 -11  23  -4  129.74   17.61
 -11  23  -4  127.08   12.50
  23 -12  -1  447.86   28.16
 -11  23  -1  382.15   21.28
  23 -12  -1  338.42   19.59
  23 -12  -1  385.88   26.49
 -11  23  -1  370.12   26.48
 -12 -11  -1  401.43   26.38
 -12 -11   2  132.01   19.44
  23 -12   2  146.48   17.57
 -12 -11   2  141.89   11.99
 -11  23   2  140.61   19.34
  23 -12   2  159.49   19.13
  23 -12   2  135.12    9.92
 -11  23   5  159.14   23.01
 -11  23   5  139.23   12.00
 -12  23  -8   21.12   12.69
  23 -11  -8   43.18   18.39
 -12  23  -8   13.99   15.26
  23 -11  -8   52.59   16.28
 -11 -12  -8   24.63   13.86
  23 -11  -8   41.40   15.58
 -12  23  -8   32.65   13.91
 -11 -12  -5  226.10   22.24
  23 -11  -5  193.99   21.91
  23 -11  -5  152.38   19.64
 -12  23  -5  186.19   20.33
  23 -11  -2  261.60   22.42
 -12  23  -2  212.22   15.24
 -11 -12  -2  186.51   19.71
  23 -11  -2  302.87   24.02
 -12  23  -2  233.79   21.72
  23 -11   1  291.63   22.73
  23 -11   1  244.92   14.24
 -11 -12   1  296.97   23.88
  23 -11   1  273.09   23.60
 -12  23   1  295.63   25.06
 -11 -12   1  250.70   17.52
 -12  23   4   92.39   20.52
  23 -11   4   55.24    6.71
  23 -11   4  111.78   15.27
 -12  23   4   51.57   10.09
 -13  23  -9   38.76   14.31
  23 -10  -9   -1.84   17.81
 -10 -13  -9   27.93   15.26
  23 -10  -9    7.16   12.94
 -13  23  -9   35.70   18.62
  23 -10  -9   33.74   15.76
 -13  23  -9   27.49   14.15
 -10 -13  -6  203.71   22.62
  23 -10  -6  169.11   21.30
  23 -10  -6  158.85   20.86
 -13  23  -6  198.19   21.16
 -10 -13  -3   63.76   14.36
 -10 -13  -3   52.95   10.05
  23 -10  -3   36.37   14.11
 -13  23  -3   58.78    9.14
 -13  23  -3   80.10   15.18
  23 -10  -3   74.05   14.95
 -10 -13   0  204.32   20.16
 -13  23   0  170.47   15.36
  23 -10   0  153.27   18.70
  23 -10   0  153.06   18.40
 -13  23   0  162.02   20.03
  23 -10   0  147.86   13.53
 -13  23   3   31.57   14.25
  23 -10   3   46.45   13.48
  23 -10   3   43.27   11.41
 -10 -13   3   58.40   15.29
 -10 -13   3   46.14    7.04
  23 -10   3   40.07    7.50
 -13  23   6  222.92   26.54
 -14  23 -10   16.46   13.45
 -14  23 -10    3.22   18.11
  23  -9 -10   21.34   20.64
  -9 -14 -10   -6.84   15.25
  23  -9 -10   11.85   15.24
  23  -9 -10  -11.56   14.62
 -14  23 -10  -13.49   14.83
 -14  23  -7   61.21   15.75
  23  -9  -7   64.80   17.30
  -9 -14  -7   75.01   17.74
  23  -9  -7   59.48   17.02
 -14  23  -7   90.56   16.89
  -9 -14  -4   30.83    7.95
  23  -9  -4   49.69   14.63
 -14  23  -4   23.80    6.04
  23  -9  -4   54.39   14.92
  -9 -14  -4   35.10   12.83
 -14  23  -4   60.71   15.24
 -14  23  -1   68.03    9.83
  23  -9  -1   31.87   11.88
  -9 -14  -1   61.04   13.42
  23  -9  -1   65.76   14.28
 -14  23  -1   61.89   13.02
  23  -9   2  137.73   12.08
  23  -9   2  175.99   18.19
  -9 -14   2  153.30   13.20
  -9 -14   2  171.64   20.61
  23  -9   2  172.04   19.94
 -14  23   2  123.41   19.90
 -14  23   5   50.93   18.48
  23  -9   5   64.12   12.74
  23  -9   5   26.64    7.57
  23  -8  -8  113.43   20.25
  -8 -15  -8   93.67   19.15
  23  -8  -8  140.90   21.53
 -15  23  -8  101.23   18.03
 -15  23  -8  144.48   19.90
  -8 -15  -5  126.01   18.61
  23  -8  -5  131.43   19.14
  23  -8  -5   92.56   18.14
 -15  23  -5  131.44   18.40
  -8 -15  -2   45.67   10.61
  -8 -15  -2   31.69   12.12
 -15  23  -2   46.06    7.68
  23  -8  -2   69.97   14.69
  23  -8  -2   56.17   13.41
 -15  23  -2   57.83   14.69
  -8 -15   1  567.69   31.90
  23  -8   1  460.39   21.46
  23  -8   1  523.91   29.26
  23  -8   1  512.70   30.46
  -8 -15   1  467.36   23.46
 -15  23   1  490.21   32.09
  23  -8   4  144.05   13.10
  -8 -15   4  145.37    9.48
 -16  23  -9   46.93   20.53
 -16  23  -9   15.28   12.60
  -7 -16  -9   21.10   16.21
  23  -7  -9   23.40   15.19
  23  -7  -9   14.04   14.66
 -16  23  -9   30.03   14.49
  -7 -16  -6  215.48   23.66
  23  -7  -6  272.07   25.35
  23  -7  -6  232.02   23.70
 -16  23  -6  189.12   22.25
 -16  23  -3    1.53    3.63
  23  -7  -3   11.71   11.91
  23  -7  -3   -2.25    8.22
  23  -7  -3   27.77   12.82
 -16  23  -3   20.19   12.09
  -7 -16  -3    9.93   11.67
 -16  23   0  475.32   21.97
  23  -7   0  533.64   29.89
  23  -7   0  524.17   30.28
 -16  23   0  524.75   31.91
  -7 -16   0  498.99   29.19
 -16  23   3   12.28   13.37
  23  -7   3   32.03   12.89
  23  -7   3    9.78    7.77
  23  -7   3   19.38   10.34
  -7 -16   3   18.65   12.69
  -7 -16   3   14.07    7.03
 -16  23   6  299.28   31.50
 -17  23 -10   -1.15   17.72
  -6 -17 -10    0.52   16.84
  23  -6 -10    7.54   15.78
  23  -6 -10   36.14   18.89
 -17  23 -10   -4.87   15.19
  23  -6  -7    6.95   13.31
  -6 -17  -7    5.43   13.95
  23  -6  -7  -11.72   13.39
 -17  23  -7    2.22   13.47
  23  -6  -4   62.49   15.23
  23  -6  -4   35.22    9.43
  -6 -17  -4   54.91   14.19
  23  -6  -4   58.00   15.70
 -17  23  -4   58.42   15.19
  23  -6  -1    9.63   11.68
  -6 -17  -1    1.96   10.01
  23  -6  -1   30.64   13.87
 -17  23  -1   11.08   12.35
  -6 -17   2   -3.77   11.39
  23  -6   2   24.18   11.18
  -6 -17   2   16.26    8.29
 -17  23   2   -2.11   12.44
  23  -6   2   17.54   11.27
 -17  23   5   58.66   18.51
  23  -6   5   14.41    9.36
  -5 -18  -8   71.68   18.99
  23  -5  -8   75.65   18.55
  23  -5  -8   57.73   18.15
 -18  23  -8   48.33   15.41
  -5 -18  -5  215.85   23.10
  23  -5  -5  211.04   22.92
  23  -5  -5  205.85   22.46
 -18  23  -5  211.17   23.54
  23  -5  -2  208.50   21.43
  -5 -18  -2  191.36   20.34
  23  -5  -2  191.79   20.60
 -18  23  -2  181.70   20.64
  -5 -18   1  286.29   24.24
  23  -5   1  308.01   23.25
  23  -5   1  307.21   24.13
 -18  23   1  259.38   24.89
 -18  23   4   11.61   14.34
  23  -5   4   11.83   12.09
  23  -5   4   11.06    9.06
  -5 -18   4    0.69    7.20
 -18  23   7  153.37   26.39
 -19  23  -9   44.47   16.06
  -4 -19  -9   21.06   18.02
  23  -4  -9   12.40   14.92
  23  -4  -9   15.61   15.51
 -19  23  -9   55.60   17.73
  -4 -19  -6  168.31   22.58
  23  -4  -6  156.44   21.62
  23  -4  -6  192.71   22.85
 -19  23  -6  193.43   23.15
  23  -4  -3  -12.71   12.01
  23  -4  -3   -4.07   11.44
 -19  23  -3   20.84   12.16
  -4 -19  -3    2.87   10.05
  23  -4   0  406.60   27.10
  23  -4   0  402.13   26.75
 -19  23   0  396.06   28.48
  -4 -19   0  339.93   25.87
  23  -4   3   -8.51   11.47
  -4 -19   3    1.40   11.59
  23  -4   3    7.83    9.83
  -4 -19   3    1.35    7.89
 -19  23   3   16.51   14.08
  23  -4   6  242.65   18.71
 -19  23   6  220.47   27.02
  23  -3  -7    9.50   13.06
  -3 -20  -7   26.85   15.68
  23  -3  -7    6.42   15.27
 -20  23  -7   15.80   14.16
  23  -3  -4   13.71   13.08
  -3 -20  -4   19.89   12.60
  23  -3  -4   33.33   14.98
 -20  23  -4   29.76   13.25
  -3 -20  -1   21.94   11.21
  23  -3  -1    6.50   10.60
  23  -3  -1   23.23   13.23
 -20  23  -1    2.81   11.94
  23  -3   2  260.55   21.04
  -3 -20   2  254.58   23.23
  23  -3   2  277.20   24.11
 -20  23   2  238.39   23.96
 -20  23   5    6.71   16.10
  23  -3   5    5.59   10.10
  -2 -21  -8   34.04   16.51
  23  -2  -8   39.24   17.33
  23  -2  -8   28.96   16.74
 -21  23  -8   58.48   18.33
  -2 -21  -5  163.11   21.71
  23  -2  -5  174.41   21.81
  23  -2  -5  171.19   21.93
 -21  23  -5  142.37   21.43
  23  -2  -2   83.36   15.07
  -2 -21  -2   85.33   15.28
  23  -2  -2  123.26   19.00
 -21  23  -2  111.26   18.57
  -2 -21   1  282.04   24.39
  23  -2   1  306.50   23.55
  23  -2   1  314.30   24.80
 -21  23   1  254.37   23.97
  23  -2   4   76.62   14.94
  23  -2   4  101.83   15.01
  -2 -21   4   84.03   17.88
 -21  23   4   78.82   17.35
 -21  23   7  178.82   26.70
  23  -2   7  199.13   16.83
  -1 -22  -9   25.49   16.92
  23  -1  -9   24.65   15.89
  23  -1  -9   31.55   18.03
 -22  23  -9   20.64   15.63
  23  -1  -6   31.30   15.85
  -1 -22  -6   -3.92   14.80
  23  -1  -6   33.01   14.97
 -22  23  -6   10.81   14.13
  23  -1  -3   34.67   14.56
  23  -1  -3   45.29   15.53
  -1 -22  -3   38.33   13.23
 -22  23  -3   47.10   14.94
  23  -1   0  134.37   18.44
  23  -1   0  136.58   18.37
 -22  23   0  165.25   19.95
  -1 -22   0  153.02   18.44
  23  -1   3   94.90   14.86
  -1 -22   3   83.15   16.84
  23  -1   3  109.68   16.66
 -22  23   3   81.38   18.26
 -22  23   6    7.62   17.01
  23  -1   6   15.80    9.55
  23   0  -7   10.05   14.13
   0 -23  -7   33.05   17.73
  23   0  -7    6.32   15.47
 -23  23  -7    3.85   14.88
   0 -23  -4  135.78   19.72
  23   0  -4  121.84   19.83
  23   0  -4  120.71   18.97
 -23  23  -4  138.53   20.83
   0 -23  -1   14.50   11.68
  23   0  -1   33.42   13.49
  23   0  -1   22.50   12.57
 -23  23  -1   13.07   13.06
  23   0   2  150.81   17.98
   0 -23   2  140.21   19.78
  23   0   2  133.39   18.68
 -23  23   2  148.33   20.15
 -23  23   5    3.08   15.04
  23   0   5    8.67   12.20
  23   0   5   -1.57   10.22
 -23  23   8  191.95   28.94
  23   1  -8  111.30   22.93
   1 -24  -8   59.10   21.75
  23   1  -8   88.56   22.28
 -24  23  -8   67.69   19.55
   1 -24  -5  198.22   24.70
  23   1  -5  236.41   26.28
  23   1  -5  219.56   25.20
 -24  23  -5  185.36   24.45
  23   1  -2   24.66   13.30
  23   1  -2   31.11   13.85
 -24  23  -2   11.60   12.34
   1 -24  -2   20.35   11.48
   1 -24   1  316.48   25.20
  23   1   1  364.85   26.66
  23   1   1  342.49   25.85
 -24  23   1  354.27   28.26
  23   1   4   24.37   13.03
   1 -24   4   53.28   17.01
  23   1   4   35.16   11.83
 -24  23   4   26.25   14.35
 -24  23   7  107.31   24.82
  23   2  -6   18.35   14.89
   2 -25  -6   11.73   13.79
  23   2  -6   23.61   14.90
 -25  23  -6    1.62   13.13
  23   2  -3  102.02   18.73
  23   2  -3   86.47   17.78
 -25  23  -3   69.36   16.73
  23   2   0   33.70   13.25
   2 -25   0   35.66   13.43
  23   2   0   20.87   13.45
 -25  23   0   30.67   13.70
  23   2   3  119.03   16.59
   2 -25   3  122.12   18.79
  23   2   3   99.53   17.81
 -25  23   3  142.22   21.64
 -25  23   6   28.41   18.11
  23   2   6   36.04   11.05
  23   3  -7   30.50   17.07
   3 -26  -7   29.40   16.92
  23   3  -7   35.62   17.70
 -26  23  -7  -18.55   16.08
   3 -26  -4  199.97   23.29
  23   3  -4  180.06   22.84
  23   3  -4  221.83   24.91
 -26  23  -4  209.52   25.00
   3 -26  -1   28.82   13.49
  23   3  -1   55.51   15.54
  23   3  -1   34.18   13.30
 -26  23  -1   13.60   13.16
  23   3   2  185.92   20.98
   3 -26   2  194.37   22.09
  23   3   2  204.16   21.63
 -26  23   2  190.34   23.69
 -26  23   5  -25.39   15.46
  23   3   5   14.43   13.51
  23   3   5    8.43   10.59
 -26  23   8  119.90   27.73
   4 -27  -8  -19.20   18.81
  23   4  -8   28.23   17.51
  23   4  -8   27.59   19.28
 -27  23  -8   40.49   18.57
  23   4  -5  146.44   23.01
  23   4  -5  141.30   22.61
   4 -27  -5  102.83   20.66
 -27  23  -5  108.89   21.79
  23   4  -2   92.77   18.82
  23   4  -2   65.45   15.94
 -27  23  -2  114.89   19.21
   4 -27  -2   65.84   15.76
  23   4   1   93.36   17.71
  23   4   1   62.63   14.80
 -27  23   1   83.43   17.46
   4 -27   1   74.90   16.13
   4 -27   4   24.67   15.78
  23   4   4    0.80   10.93
 -27  23   4  -16.40   14.17
  23   4   4    9.14   12.01
 -27  23   7   22.02   20.34
  23   5  -6   77.68   20.32
   5 -28  -6   54.85   20.08
  23   5  -6   48.91   17.90
 -28  23  -6   -1.38   16.02
  23   5  -3   65.59   18.13
   5 -28  -3   51.07   15.63
 -28  23  -3   68.95   19.10
  23   5   0   10.58   12.30
   5 -28   0   26.16   12.76
  23   5   0    8.75   12.58
 -28  23   0   24.89   13.73
  23   5   3  149.85   19.22
  23   5   3  136.44   19.54
   5 -28   3  150.52   22.41
 -28  23   3  166.12   23.88
 -28  23   6   34.00   19.07
  23   5   6   -2.59   10.30
  23   6  -7   53.14   20.71
   6 -29  -7   22.66   18.14
  23   6  -7   23.06   18.57
 -29  23  -7   36.29   20.39
  23   6  -4  124.73   21.81
  23   6  -4  157.85   24.52
   6 -29  -4  108.30   20.75
 -29  23  -4  124.11   22.74
   6 -29  -1   46.15   14.47
  23   6  -1   49.59   17.11
  23   6  -1   38.35   14.29
 -29  23  -1    8.28   13.60
  23   6   2  220.16   22.88
   6 -29   2  241.18   24.07
  23   6   2  201.17   22.21
 -29  23   2  235.10   25.79
  23   6   5   48.08   15.06
  23   6   5   48.57   13.47
 -29  23   5   60.39   18.90
  23   7  -5   -7.24   15.74
   7 -30  -5   28.76   16.51
  23   7  -5   -7.36   16.11
 -30  23  -5   12.30   15.23
  23   7  -2   27.40   16.33
  23   7  -2   -3.39   12.77
 -30  23  -2    2.39   13.41
   7 -30  -2   -2.26   11.69
   7 -30   1   35.33   15.03
  23   7   1   40.00   14.59
  23   7   1   41.24   14.56
 -30  23   1   56.66   16.72
  23   7   4  -12.14   12.53
   7 -30   4   24.87   15.72
 -30  23   4   11.59   14.58
  23   7   4   11.01   12.98
 -30  23   7   -2.92   17.58
  23   8  -6   48.66   20.10
   8 -31  -6   28.49   17.68
  23   8  -6   22.91   19.03
 -31  23  -6   20.38   16.55
  23   8  -3   61.08   19.78
  23   8  -3   63.12   18.55
 -31  23  -3   39.71   18.08
   8 -31  -3   32.52   14.00
  23   8   0   -0.82   13.20
   8 -31   0   17.02   13.07
  23   8   0   14.67   12.88
 -31  23   0   31.27   16.86
  23   8   3  102.06   18.64
   8 -31   3   48.72   16.50
  23   8   3   93.68   17.32
 -31  23   3   87.25   20.77
 -31  23   6   28.45   19.35
  23   9  -4   63.14   19.55
  23   9  -4   34.84   17.97
   9 -32  -4   36.49   17.45
 -32  23  -4   39.46   17.53
   9 -32  -1   74.46   17.65
  23   9  -1   96.70   21.05
  23   9  -1  101.07   19.76
 -32  23  -1   80.51   20.11
  23   9   2   84.08   17.82
  23   9   2   81.62   16.92
 -32  23   2   60.78   17.32
   9 -32   2   49.18   16.84
  23   9   5   47.22   15.49
 -32  23   5   23.81   18.50
  23  10  -5    2.56   16.14
  10 -33  -5   24.67   16.92
  23  10  -5  -24.49   17.90
 -33  23  -5   21.51   17.16
  23  10  -2   20.65   16.97
  23  10  -2   36.45   16.54
 -33  23  -2   54.77   17.64
  10 -33  -2   26.65   14.87
  10 -33   1    6.19   13.54
  23  10   1   20.98   15.18
  23  10   1   -2.39   12.59
 -33  23   1    7.41   14.03
  23  10   4   26.99   14.82
 -33  23   4   36.86   18.43
  23  10   4   13.30   14.00
  23  11  -3   42.27   19.59
  23  11  -3   55.33   19.18
 -34  23  -3   20.69   15.67
  11 -34  -3   26.37   16.08
  23  11   0   62.13   19.40
  11 -34   0   36.89   15.35
  23  11   0   34.35   15.35
 -34  23   0   11.28   17.17
  23  11   3  104.81   20.11
  23  11   3   75.06   16.51
 -34  23   3  102.58   22.99
  11 -34   3   41.77   15.96
  23  12  -1   37.66   18.95
  12 -35  -1   36.66   15.87
  23  12  -1   24.89   16.67
 -35  23  -1   30.79   18.20
  12 -35   2    6.25   14.37
  23  12   2   -0.67   14.93
  23  12   2   17.00   13.68
 -35  23   2   50.11   18.62
  13 -36  -2    6.57   14.91
  23  13  -2    0.17   17.79
  23  13  -2   37.15   18.43
 -36  23  -2   48.59   19.93
  13 -36   1   -3.86   13.91
  23  13   1    5.36   15.75
  23  13   1    5.80   13.99
 -36  23   1    1.71   14.33
  12  24   0   27.16   18.47
  12  24   0    1.62   13.47
 -36  12   0    3.46   14.49
  11  24  -1   37.05   18.31
  11  24  -1   19.37   15.08
 -35  11  -1   32.09   15.39
  11  24   2   12.50   16.30
 -35  11   2    5.20   12.71
  10  24  -2   86.35   21.41
  10  24  -2   60.69   17.15
  24 -34  -2   28.62   12.18
 -34  10  -2   68.69   18.58
  10  24   1   38.21   13.18
 -34  10   1   25.18   13.73
  10  24   4   13.17   14.22
   9  24  -3  120.07   22.92
  24 -33  -3   78.72   16.67
   9  24  -3   87.92   20.54
 -33   9  -3   78.72   20.71
   9  24   0   21.51   15.60
   9  24   0   15.71   13.43
 -33   9   0   43.26   15.04
   9  24   3  105.22   20.61
  24 -32  -4   23.36   13.82
   8  24  -4    6.03   15.33
   8  24  -4   35.42   17.38
 -32   8  -4   35.05   17.17
   8  24  -1    2.21   14.25
   8  24  -1   22.63   14.28
  24 -32  -1   21.98    9.63
 -32   8  -1   14.60   12.71
   8  24   2   53.45   16.88
   8  24   2   20.73   11.27
 -32   8   2   41.49   12.30
   8  24   5    1.57   13.61
   7  24  -5  123.17   23.79
   7  24  -5  120.47   25.04
 -31   7  -5  157.30   25.78
  24 -31  -5  111.61   20.29
   7  24  -2   25.14   16.47
  24 -31  -2   26.08   11.25
   7  24  -2   45.18   15.81
 -31   7  -2   47.08   16.99
   7  24   1  121.59   20.55
   7  24   1  127.17   16.54
 -31   7   1   96.60   16.54
   7  24   4   63.92   17.25
   6  24  -6   46.57   18.88
   6  24  -6    7.01   17.49
 -30   6  -6   24.82   19.83
  24 -30  -6   22.21   16.82
  24 -30  -3   38.19   12.92
   6  24  -3   53.88   18.70
   6  24  -3   43.32   16.79
 -30   6  -3   45.19   17.62
   6  24   0   60.38   17.04
   6  24   0   58.30   14.69
 -30   6   0   51.42   14.22
   6  24   3   67.72   17.84
 -30   6   3   40.34   11.97
   6  24   6   20.30   13.57
   5  24  -7  -14.19   16.47
   5  24  -7  -10.17   18.51
 -29   5  -7  -46.43   20.85
  24 -29  -7   -3.00   15.90
 -29   5  -4   13.97   13.43
   5  24  -4   50.80   17.34
   5  24  -4   35.45   17.26
 -29   5  -4   16.51   15.88
  24 -29  -4   25.22   13.75
   5  24  -1  -15.50   15.07
  24 -29  -1    0.80    7.54
   5  24  -1   -5.59   11.63
 -29   5  -1   19.19   13.59
   5  24   2   39.29   16.36
   5  24   2   19.22    9.58
 -29   5   2   21.52   10.46
   5  24   5   14.60   13.01
   4  24  -5  129.38   21.78
   4  24  -5  155.79   24.23
  24 -28  -5  178.15   21.97
 -28   4  -5  168.26   25.65
 -28   4  -5  145.37   20.02
  24 -28  -2   21.31    9.94
   4  24  -2   41.47   16.44
   4  24  -2   50.44   16.07
 -28   4  -2   58.02   15.72
   4  24   1  269.63   26.17
   4  24   1  264.93   21.34
 -28   4   1  294.18   22.57
   4  24   4    2.78   12.67
   3  24  -6   34.57   17.41
   3  24  -6   24.88   18.20
 -27   3  -6   17.07   17.67
  24 -27  -6   40.59   16.60
 -27   3  -6   51.98   15.47
   3  24  -3   51.70   18.31
   3  24  -3   -4.48   13.56
 -27   3  -3   20.31   13.72
 -27   3  -3   20.36   13.58
  24 -27  -3   21.16    9.98
  24 -27   0  116.11   10.79
   3  24   0  105.79   18.76
   3  24   0  141.59   17.90
 -27   3   0  106.81   16.26
   3  24   3   -2.39   12.75
   3  24   3    9.11    7.54
 -27   3   3   12.16    8.81
   3  24   6   64.61   15.32
 -26   2  -7   50.65   15.95
   2  24  -7   58.39   18.12
   2  24  -7   67.04   21.33
 -26   2  -7   28.35   17.65
  24 -26  -7   37.44   18.41
   2  24  -4   63.20   17.69
   2  24  -4   61.96   17.29
 -26   2  -4   30.17   13.99
 -26   2  -4   34.13   16.58
  24 -26  -4   48.65   13.90
   2  24  -1   80.46   17.14
 -26   2  -1  121.43   17.64
  24 -26  -1   88.40   11.15
   2  24   2   40.45   15.04
   2  24   2   66.67   11.94
 -26   2   2   63.45   10.86
   2  24   5  147.33   19.22
   1  24  -8   93.05   20.90
   1  24  -8  163.33   28.54
 -25   1  -8  177.72   29.60
  24 -25  -8   75.41   20.91
 -25   1  -8   83.21   17.21
   1  24  -5   67.85   15.31
   1  24  -5   67.14   18.13
   1  24  -5   92.50   20.21
 -25   1  -5  100.15   21.64
 -25   1  -5   55.13   15.69
  24 -25  -5   94.79   18.02
   1  24  -2   97.48   17.59
   1  24  -2   91.83   17.91
   1  24  -2   70.05   15.70
 -25   1  -2   73.53   16.60
  24 -25  -2   74.78   12.55
 -25   1  -2   85.44   16.89
   1  24   1  224.64   23.98
   1  24   1  258.83   19.89
 -25   1   1  237.90   18.62
   1  24   4   79.10   15.35
   1  24   7  122.65   16.55
   0  24  -6   82.93   14.34
   0  24  -6  100.11   19.94
   0  24  -6  145.57   23.62
  24 -24  -6   95.78   19.74
 -24   0  -6  156.29   25.81
 -24   0  -6   85.48   16.70
  24 -24  -6  106.06   19.21
   0  24  -3   17.21   14.11
   0  24  -3    2.65   13.02
 -24   0  -3    8.92   12.05
   0  24  -3   -9.43   13.04
 -24   0  -3   10.96   12.12
  24 -24  -3   -0.01    9.64
   0  24   0  147.84   19.98
   0  24   0  138.40   16.81
 -24   0   0  174.38   17.94
  24 -24   0  144.85   10.77
   0  24   3   18.00   13.46
   0  24   3   17.90    7.70
 -24   0   3    2.89    6.37
   0  24   6   39.89   12.53
  24 -23  -7   88.16   18.02
  -1  24  -7  163.45   22.65
  -1  24  -7  127.33   25.58
  24 -23  -7  120.85   21.74
 -23  -1  -7  157.89   25.34
 -23  -1  -7  115.67   18.30
  -1  24  -4   67.27   16.00
  24 -23  -4   45.81   14.06
  -1  24  -4   32.96   14.68
  -1  24  -4   31.55   15.04
 -23  -1  -4   41.74   14.01
  24 -23  -4   31.88   12.63
 -23  -1  -4   44.15   15.61
  -1  24  -1  315.57   28.21
  -1  24  -1  397.02   29.19
  -1  24  -1  386.92   26.62
 -23  -1  -1  343.41   27.37
  24 -23  -1  353.24   18.85
 -23  -1  -1  373.06   25.75
  -1  24   2   23.21   12.65
  -1  24   2    6.60    8.21
 -23  -1   2   24.47    7.96
  -1  24   5  209.97   21.15
  24 -22  -8   43.26   16.06
  -2  24  -8  122.73   22.34
 -22  -2  -8   72.69   16.93
  24 -22  -8  140.43   26.08
  -2  24  -8  118.70   23.97
 -22  -2  -8  145.32   25.33
  -2  24  -5  146.63   20.96
  -2  24  -5  152.07   22.75
  24 -22  -5  167.86   21.20
 -22  -2  -5  143.59   21.70
  24 -22  -5  160.44   20.59
  -2  24  -5  109.57   16.48
 -22  -2  -5  139.38   19.28
  -2  24  -2   43.60   14.46
  -2  24  -2   98.81   17.79
  -2  24  -2   94.59   17.14
  24 -22  -2   87.67   12.68
 -22  -2  -2   73.86   15.13
 -22  -2  -2   97.77   16.97
  -2  24   1  253.28   26.58
  -2  24   1  233.88   22.45
  -2  24   1  259.76   20.07
 -22  -2   1  265.12   18.60
  -2  24   4   47.39   14.22
  -2  24   4   30.10    6.34
  -2  24   7  207.72   20.41
  -3  24  -9   -3.35   15.67
  -3  24  -9   -0.58   18.10
  24 -21  -9   51.50   20.53
 -21  -3  -9   18.31   18.94
 -21  -3  -9   17.48   13.64
  24 -21  -9  -11.51   13.80
  24 -21  -6   68.72   17.18
  -3  24  -6   72.27   17.87
  -3  24  -6   81.88   19.86
 -21  -3  -6   80.43   16.64
  24 -21  -6   77.29   18.54
 -21  -3  -6  100.93   21.05
  -3  24  -6   69.61   15.50
  -3  24  -3   52.07   15.87
  24 -21  -3   10.82   13.91
  -3  24  -3   38.42   14.24
  -3  24  -3   68.47   16.38
  24 -21  -3   19.11   10.26
 -21  -3  -3   32.83   13.47
 -21  -3  -3   48.00   16.13
  -3  24   0  323.15   26.79
  -3  24   0  333.58   23.82
 -21  -3   0  347.06   27.15
  24 -21   0  334.94   15.21
 -21  -3   0  344.80   22.78
  -3  24   0  296.82   27.38
  -3  24   3  114.03   17.33
  -3  24   3   95.32   10.53
 -21  -3   3   74.86    7.69
  -3  24   6   41.18   13.21
 -20  -4  -7   99.21   17.44
  -4  24  -7  150.43   21.89
  -4  24  -7  174.09   24.23
  24 -20  -7  196.30   25.74
 -20  -4  -7  177.39   26.48
  24 -20  -7  171.34   21.93
  -4  24  -7  139.10   18.43
  24 -20  -4  106.86   18.21
  -4  24  -4  122.89   18.37
  24 -20  -4  116.92   17.55
  -4  24  -4   80.73   17.68
 -20  -4  -4  114.82   20.06
  -4  24  -4  119.08   17.54
 -20  -4  -4  110.23   17.37
  -4  24  -1  217.07   22.51
  -4  24  -1  210.59   20.70
  24 -20  -1  224.33   15.69
 -20  -4  -1  239.80   21.22
 -20  -4  -1  193.85   21.30
  -4  24  -1  192.77   22.72
  -4  24   2   31.36   14.55
  -4  24   2   35.75   13.75
  -4  24   2   26.06    9.38
 -20  -4   2   25.95    7.73
  -4  24   5  167.73   19.72
  -4  24   8   88.39   15.20
  -5  24  -8   16.90   15.96
  -5  24  -8   53.46   18.97
  24 -19  -8   41.58   18.65
  24 -19  -8   77.72   18.18
 -19  -5  -8   37.90   19.02
  -5  24  -8   29.53   13.89
 -19  -5  -8   61.25   15.65
  24 -19  -8   13.73   13.96
  -5  24  -5   35.63   14.43
  -5  24  -5   46.92   15.79
  24 -19  -5   71.37   17.12
 -19  -5  -5   33.31   12.67
  24 -19  -5   64.02   17.31
 -19  -5  -5   56.41   17.44
  -5  24  -5   35.64   13.70
  24 -19  -5   19.79   13.27
  -5  24  -2  239.38   23.42
  -5  24  -2  293.34   24.71
  24 -19  -2  285.72   20.10
 -19  -5  -2  240.64   22.34
  24 -19  -2  197.69   22.41
 -19  -5  -2  290.89   23.94
  -5  24  -2  242.45   23.06
  24 -19  -2  241.10   23.65
  -5  24   1  127.10   17.98
  -5  24   1  105.57   14.59
  24 -19   1   79.28    5.97
 -19  -5   1   93.59   17.44
 -19  -5   1  145.22   13.62
  24 -19   1   82.68    6.11
  -5  24   1  119.40   20.48
  -5  24   4   12.59   11.37
  -5  24   4   32.47    6.80
  -5  24   7  145.27   17.96
  -6  24  -9   32.56   14.31
  -6  24  -9   36.08   18.93
  24 -18  -9   33.97   19.76
  24 -18  -9   48.37   16.67
 -18  -6  -9   51.09   22.03
 -18  -6  -9   49.20   15.93
  24 -18  -9   40.58   15.88
  -6  24  -6  180.56   22.70
  -6  24  -6  213.82   25.14
  24 -18  -6  231.73   26.30
  24 -18  -6  208.63   24.18
 -18  -6  -6  167.27   21.15
 -18  -6  -6  274.36   29.18
  24 -18  -6  162.82   20.42
  -6  24  -6  158.25   19.10
  -6  24  -3  144.14   18.99
  24 -18  -3  108.57   15.09
  -6  24  -3   97.93   16.40
  24 -18  -3  120.56   18.86
 -18  -6  -3  111.78   18.06
  24 -18  -3   91.73   17.72
  -6  24  -3  101.59   16.71
 -18  -6  -3  125.90   18.06
  24 -18   0  133.18   19.48
  -6  24   0  134.09   16.69
  24 -18   0  127.52   11.21
 -18  -6   0  172.89   17.32
  24 -18   0  110.00   10.42
 -18  -6   0  147.64   19.64
  -6  24   0  125.54   19.93
  -6  24   3  231.97   26.36
  -6  24   3  240.73   15.92
 -18  -6   3  221.77   10.25
  -6  24   3  173.29   14.59
 -18  -6   3  180.20   10.44
  -7  24  -7   92.99   17.70
  -7  24  -7   88.96   20.86
  24 -17  -7   74.15   19.49
 -17  -7  -7  106.16   18.01
  24 -17  -7   90.40   18.22
  24 -17  -7  118.78   19.29
  -7  24  -7   74.99   14.73
  -7  24  -4   15.48   12.92
  -7  24  -4   44.72   14.95
  24 -17  -4   31.82   13.01
 -17  -7  -4   29.89   12.47
  24 -17  -4   34.16   14.68
  -7  24  -4   24.87   13.23
  24 -17  -4   45.27   14.50
  -7  24  -1  177.08   19.74
  24 -17  -1  198.31   15.64
 -17  -7  -1  151.61   18.73
  24 -17  -1  163.50   20.09
 -17  -7  -1  197.20   19.36
  24 -17  -1  133.07   14.02
  24 -17  -1  173.85   20.16
  -7  24  -1  170.61   21.66
 -17  -7   2  150.01   11.85
 -17  -7   2  110.33   17.96
  -7  24   2  113.59   14.03
 -17  -7   2  126.75   12.35
  -7  24   2  123.38   20.97
  -7  24   5  160.60    8.83
  -7  24   8  166.50   18.83
  -8  24  -8   77.23   16.98
  -8  24  -8   38.16   17.13
  24 -16  -8   26.47   17.74
  24 -16  -8   38.79   16.54
 -16  -8  -8    1.52   13.67
  -8  24  -8   52.84   14.90
  24 -16  -8   84.10   17.85
 -16  -8  -5   25.29   12.09
  -8  24  -5   -1.62   11.45
  -8  24  -5    7.16   12.88
  24 -16  -5   -7.64   12.52
  24 -16  -5   10.48   12.95
  -8  24  -5   21.69   11.59
  24 -16  -5   11.47   12.80
  -8  24  -2   48.92   14.20
  24 -16  -2   50.77   14.91
  24 -16  -2   46.98   11.38
  -8  24  -2   43.54   14.45
 -16  -8  -2   14.11   10.80
  24 -16  -2   33.40   12.97
  -8  24   1   12.88   12.23
 -16  -8   1   14.52    9.04
  24 -16   1   14.57   13.16
 -16  -8   1    7.33   12.22
  24 -16   1   15.80    5.76
  24 -16   1   23.92    5.48
  24 -16   1   12.51   11.73
 -16  -8   1    4.17    7.63
  -8  24   4   77.19   21.07
  -8  24   4  106.90   10.82
  -8  24   4   81.97   10.24
  -9  24  -9   89.05   18.44
  -9  24  -9   72.05   22.55
  24 -15  -9   60.86   22.89
  24 -15  -9  111.39   21.50
 -15  -9  -9   49.29   16.83
  -9  24  -9   44.04   15.36
  24 -15  -9   63.00   16.96
  -9  24  -6  178.98   21.60
  24 -15  -6  200.45   25.20
  -9  24  -6  190.66   24.17
 -15  -9  -6  182.40   20.90
  24 -15  -6  184.01   22.40
  24 -15  -6  182.73   22.16
  -9  24  -6  192.65   20.76
  24 -15  -3  249.14   23.10
 -15  -9  -3  204.83   20.46
  24 -15  -3  199.93   22.05
  -9  24  -3  253.92   24.01
  24 -15   0   61.12   14.71
  24 -15   0   66.12    9.20
  24 -15   0   72.89   15.25
 -15  -9   0   85.91   16.18
  -9  24   0   50.23   16.36
 -15  -9   3  389.82   12.91
  -9  24   3  370.19   20.03
 -15  -9   3  410.06   13.77
  -9  24   3  402.72   31.96
 -10  24 -10   19.47   15.35
 -10  24 -10   -1.61   18.71
  24 -14 -10    4.61   18.44
  24 -14 -10   10.19   15.76
 -14 -10 -10   31.61   16.87
  24 -14 -10    6.44   15.89
  24 -14  -7  111.13   21.56
 -10  24  -7  140.84   21.02
 -10  24  -7  104.61   22.15
 -14 -10  -7  129.21   19.31
  24 -14  -7  137.41   20.76
 -10  24  -7  131.77   18.65
  24 -14  -7   93.20   18.09
 -14 -10  -4   24.94   12.14
  24 -14  -4   42.17   13.83
 -10  24  -4   36.17   11.78
  24 -14  -4   48.99   14.80
 -14 -10  -1  223.21   21.22
  24 -14  -1  201.69   21.32
  24 -14  -1  175.14   15.39
  24 -14  -1  175.85   20.74
 -10  24  -1  191.04   22.05
 -14 -10   2  170.92   21.47
  24 -14   2  156.57   18.14
 -14 -10   2  187.97   13.52
  24 -14   2  155.06    9.12
 -10  24   2  193.32   24.35
 -10  24   5  318.23   30.32
 -11  24  -8   39.07   15.22
 -11  24  -8   20.48   16.57
  24 -13  -8   34.29   18.66
  24 -13  -8   14.82   14.03
 -13 -11  -8   52.80   17.23
  24 -13  -8   27.13   13.45
 -11  24  -8   26.82   13.12
 -11  24  -5   14.83   13.15
  24 -13  -5   28.96   13.97
  24 -13  -5   -3.77   13.22
 -11  24  -5   37.56   14.73
 -13 -11  -5   33.88   12.81
  24 -13  -2  141.13   18.75
 -11  24  -2  105.50   13.18
  24 -13  -2  123.95   18.83
 -13 -11  -2   98.91   15.87
 -11  24  -2  131.45   18.90
 -11  24   1   47.01   15.62
  24 -13   1   71.93   15.17
  24 -13   1   35.54    6.83
 -13 -11   1   63.39   15.98
  24 -13   1   86.71   15.19
 -13 -11   1   71.43   11.62
 -11  24   4   45.11   17.17
  24 -13   4   24.47    3.15
 -11  24   4   54.73   10.32
 -12 -12  -9  122.70   21.74
 -12  24  -9  104.25   18.67
 -12  24  -9  115.73   24.08
  24 -12  -9   98.50   24.36
  24 -12  -9   76.46   18.59
  24 -12  -9   70.91   17.62
 -12  24  -9  100.80   19.19
 -12  24  -6  129.35   19.03
  24 -12  -6  124.82   19.65
  24 -12  -6  106.28   18.54
 -12 -12  -6  115.38   17.62
 -12  24  -6   68.90   15.25
 -12 -12  -3  100.58   12.54
  24 -12  -3  144.48   19.90
 -12 -12  -3  150.96   18.73
 -12  24  -3  134.85   12.91
  24 -12  -3  143.15   19.35
 -12  24  -3  142.65   19.29
 -12 -12   0   98.85   15.92
  24 -12   0   94.11   15.94
  24 -12   0   77.41   10.47
 -12  24   0   72.53   15.56
  24 -12   0   87.66   16.23
  24 -12   3  165.93   18.69
  24 -12   3  134.99    9.27
 -12 -12   3  141.06   21.07
 -12 -12   3  167.90   10.57
 -12  24   3  141.32   22.95
 -13  24 -10   22.83   14.06
 -13  24 -10   39.25   21.47
  24 -11 -10   19.73   20.35
  24 -11 -10   75.54   20.02
 -11 -13 -10   37.95   17.62
  24 -11 -10   69.42   19.49
 -13  24 -10   45.42   17.16
 -13  24  -7  117.24   22.13
 -13  24  -7   95.02   18.07
  24 -11  -7   93.80   18.58
 -11 -13  -7   70.64   17.03
  24 -11  -7   87.10   19.74
 -13  24  -7   78.05   17.05
 -11 -13  -4   33.03    9.05
  24 -11  -4   19.07   13.32
  24 -11  -4   12.84   12.05
 -13  24  -4   35.77   13.85
 -13  24  -4   18.61    7.72
 -11 -13  -4   35.30   12.59
 -13  24  -1   70.52   11.09
  24 -11  -1   87.90   16.37
 -11 -13  -1   72.59   14.30
  24 -11  -1   48.92   14.52
  24 -11   2  120.41   10.74
  24 -11   2  187.25   18.82
 -11 -13   2  129.59   12.35
 -13  24   2  173.93   21.94
  24 -11   2  163.95   20.83
 -11 -13   2  181.36   21.43
 -13  24   5  -19.28   14.15
 -14  24  -8   53.73   15.90
 -14  24  -8   29.06   18.89
  24 -10  -8   41.56   14.79
 -10 -14  -8   47.38   15.95
  24 -10  -8   88.60   18.13
 -14  24  -8   54.25   17.05
 -10 -14  -5  308.33   26.14
  24 -10  -5  288.95   26.39
  24 -10  -5  289.24   25.50
 -14  24  -5  296.99   25.49
 -14  24  -2  146.65   12.76
  24 -10  -2  177.45   20.41
 -10 -14  -2  166.17   18.95
  24 -10  -2  167.71   19.33
 -14  24  -2  169.13   20.25
  24 -10   1  121.65   12.19
  24 -10   1  160.28   18.13
 -10 -14   1  161.61   18.79
  24 -10   1  160.18   18.97
 -10 -14   1  146.76   15.41
 -14  24   1  192.17   22.36
 -14  24   4   23.72   14.02
  24 -10   4   21.03   11.09
  24 -10   4    6.92    6.73
 -10 -14   4    6.46    3.47
 -15  24  -9   38.92   14.87
 -15  24  -9   57.29   20.33
  24  -9  -9   38.41   16.16
  -9 -15  -9   46.56   18.81
  24  -9  -9   53.62   17.81
 -15  24  -9   59.36   17.05
  -9 -15  -6  118.49   19.66
  24  -9  -6  137.08   19.77
  24  -9  -6  117.64   19.70
 -15  24  -6  132.80   19.41
  -9 -15  -3  130.89   13.43
 -15  24  -3  126.17   10.18
  24  -9  -3  168.74   20.28
  -9 -15  -3  158.39   19.14
  24  -9  -3  179.62   21.01
 -15  24  -3  157.78   19.39
  -9 -15   0   65.95   14.25
 -15  24   0   56.21   10.80
  24  -9   0   66.88   16.02
 -15  24   0   39.43   12.42
  24  -9   0   61.68   15.81
  24  -9   3  239.64   20.45
  -9 -15   3  201.31   23.03
  -9 -15   3  170.92   12.35
  24  -9   3  175.68   13.53
 -15  24   3  179.72   22.96
  24  -9   3  210.64   22.25
 -15  24   6   77.52   20.76
  24  -8  -7   10.64   13.80
  -8 -16  -7   -6.59   13.16
  24  -8  -7   49.32   15.68
 -16  24  -7   73.89   17.04
 -16  24  -4   95.08    6.70
  -8 -16  -4  177.03   20.56
  24  -8  -4  218.42   22.12
  24  -8  -4  150.31   20.03
 -16  24  -4  142.64   19.57
 -16  24  -1    2.41    6.72
  24  -8  -1    9.93   10.65
  -8 -16  -1   32.07   12.96
  24  -8  -1   22.00   11.96
 -16  24  -1   12.09   12.38
  24  -8   2   32.76   13.67
  24  -8   2   21.64    8.30
  24  -8   2   34.47   12.21
  -8 -16   2   20.36    8.71
 -16  24   2   31.83   14.60
 -16  24   5   18.78   15.76
  24  -8   5   59.59   12.20
 -17  24  -8   65.84   16.87
  24  -7  -8  110.06   19.91
  -7 -17  -8  108.29   21.15
  24  -7  -8   70.51   17.73
 -17  24  -8   54.95   15.85
  -7 -17  -5  292.14   25.98
  24  -7  -5  300.72   26.24
  24  -7  -5  272.20   25.95
 -17  24  -5  231.32   23.93
 -17  24  -2   80.74    8.31
  24  -7  -2   68.89   16.11
  -7 -17  -2   93.20   16.35
 -17  24  -2  102.04   17.24
  24  -7  -2   76.92   15.72
  -7 -17   1  229.00   23.01
  24  -7   1  223.08   20.49
  24  -7   1  260.87   22.71
 -17  24   1  204.32   23.95
 -17  24   4   37.49   16.73
  24  -7   4   50.07   14.58
  24  -7   4   53.24   12.49
  -7 -17   4   29.38    7.47
 -17  24   7   41.06   18.00
 -18  24  -9   39.44   16.11
  -6 -18  -9   61.28   19.18
  24  -6  -9   72.70   19.43
  24  -6  -9   93.32   20.73
 -18  24  -9   46.32   17.23
  -6 -18  -6  157.51   22.58
  24  -6  -6  171.37   22.49
  24  -6  -6  172.87   22.64
 -18  24  -6  144.72   21.43
  24  -6  -3  153.06   20.54
  -6 -18  -3  107.56   16.71
  24  -6  -3  110.95   17.58
 -18  24  -3  102.55   17.02
  24  -6   0  112.31   16.99
  24  -6   0  115.49   18.04
 -18  24   0   99.45   17.06
  -6 -18   0  100.30   17.52
  -6 -18   3  205.11   23.08
  24  -6   3  209.26   19.60
  -6 -18   3  172.89   15.01
  24  -6   3  210.47   21.71
 -18  24   3  175.05   22.84
 -18  24   6  148.38   23.87
  24  -6   6  123.34   15.05
  24  -5  -7  103.70   19.35
  -5 -19  -7  109.39   20.56
  24  -5  -7  105.72   19.86
 -19  24  -7   75.87   17.55
  24  -5  -4   20.72   13.17
  24  -5  -4   16.22   12.64
  -5 -19  -4   24.73   12.87
 -19  24  -4   -8.98   12.79
  24  -5  -1   86.34   15.58
  24  -5  -1   72.46   16.79
  -5 -19  -1  105.47   16.06
 -19  24  -1   94.38   16.87
  24  -5   2  228.72   20.83
  -5 -19   2  228.58   22.87
  24  -5   2  215.17   21.93
 -19  24   2  225.83   23.66
 -19  24   5   71.70   20.11
  24  -5   5   86.17   13.79
  24  -4  -8    9.59   15.03
  -4 -20  -8   44.57   17.71
  24  -4  -8   30.19   16.96
 -20  24  -8   38.50   16.27
  -4 -20  -5  200.74   23.08
  24  -4  -5  271.33   26.40
  24  -4  -5  208.10   23.60
 -20  24  -5  243.69   25.71
  -4 -20  -2   72.24   14.95
  24  -4  -2   35.97   14.23
  24  -4  -2   53.53   15.42
 -20  24  -2   59.27   13.88
  -4 -20   1  138.36   19.67
  24  -4   1  170.24   18.86
  24  -4   1  163.74   19.15
 -20  24   1  123.46   19.99
  -4 -20   4   96.19   19.18
  24  -4   4  126.42   16.08
 -20  24   4  115.11   21.08
  24  -4   4  112.62   18.61
 -20  24   7  107.94   23.18
 -21  24  -9   27.82   14.42
  -3 -21  -9   49.67   21.10
  24  -3  -9   42.29   18.26
  24  -3  -9   41.09   20.02
 -21  24  -9    0.83   15.28
  24  -3  -6   67.31   18.39
  -3 -21  -6   52.80   15.97
  24  -3  -6   49.54   16.07
 -21  24  -6   66.96   17.39
  24  -3  -3   35.65   14.27
  24  -3  -3   33.67   13.97
 -21  24  -3   43.61   15.34
  -3 -21  -3   47.72   13.98
  24  -3   0  254.49   22.82
  24  -3   0  277.15   24.27
 -21  24   0  251.06   24.22
  -3 -21   0  245.24   23.17
  24  -3   3   19.32   10.09
 -21  24   3   30.33   15.84
  -3 -21   3   18.64   13.89
  24  -3   3   23.79   13.26
 -21  24   6   70.04   20.48
  24  -3   6   56.14   12.70
  -2 -22  -7  133.59   22.98
  24  -2  -7  173.76   24.65
  24  -2  -7  140.45   22.12
 -22  24  -7  181.09   25.36
  24  -2  -4   32.14   13.26
  -2 -22  -4   44.57   14.78
  24  -2  -4   31.00   14.35
 -22  24  -4   55.60   15.32
  24  -2  -1  336.58   26.56
  -2 -22  -1  290.05   24.72
  24  -2  -1  291.51   25.46
 -22  24  -1  265.01   25.58
  -2 -22   2   59.80   15.06
  24  -2   2   54.18   13.96
 -22  24   2   68.08   16.68
  24  -2   2   63.06   15.01
  24  -2   5  110.05   15.73
 -22  24   5  137.09   23.02
  24  -1  -8   29.07   16.30
  -1 -23  -8   25.48   19.50
  24  -1  -8   58.47   19.65
 -23  24  -8   62.52   19.30
  -1 -23  -5  237.96   25.48
  24  -1  -5  248.44   26.30
  24  -1  -5  237.67   27.38
 -23  24  -5  255.55   26.80
  -1 -23  -2   23.88   12.38
  24  -1  -2   15.77   12.28
  24  -1  -2   19.78   12.47
 -23  24  -2   25.22   13.76
  -1 -23   1  283.23   24.90
  24  -1   1  285.59   24.31
  24  -1   1  295.52   24.93
 -23  24   1  270.17   25.82
  24  -1   4   49.44   14.80
  24  -1   4   68.71   13.95
  -1 -23   4   47.18   16.08
 -23  24   4   69.65   19.53
 -23  24   7   58.03   22.17
  24   0  -6   -0.12   13.99
   0 -24  -6   36.44   16.48
 -24  24  -6   28.85   15.81
  24   0  -3   22.84   14.04
  24   0  -3    4.12   13.25
 -24  24  -3  -14.95   12.66
   0 -24  -3   -1.41   11.45
  24   0   0  130.54   18.33
  24   0   0  151.39   19.24
 -24  24   0  128.57   20.54
   0 -24   0  142.31   19.58
  24   0   3  -10.08   10.67
   0 -24   3   -9.22   12.33
 -24  24   3   12.40   14.48
  24   0   3   -0.64   13.04
 -24  24   6  100.11   23.24
  24   0   6  120.98   15.78
   1 -25  -7  135.42   23.56
  24   1  -7  161.10   24.65
  24   1  -7  145.28   24.26
 -25  24  -7  152.12   23.59
   1 -25  -4  110.09   19.52
  24   1  -4   88.07   18.71
  24   1  -4   92.51   18.87
 -25  24  -4   60.65   16.78
  24   1  -1  238.51   24.34
   1 -25  -1  254.59   23.79
  24   1  -1  201.21   22.03
 -25  24  -1  194.81   23.01
  24   1   2   46.14   13.44
  24   1   2   42.59   13.70
 -25  24   2   59.17   18.12
   1 -25   2   39.78   15.41
  24   1   5  114.96   15.88
 -25  24   5  116.93   23.89
  24   1   5  120.84   19.77
 -25  24   8   15.65   19.41
  24   2  -8    8.81   16.10
   2 -26  -8   -0.15   16.47
  24   2  -8   47.59   18.27
 -26  24  -8   61.21   19.41
   2 -26  -5  143.03   23.41
  24   2  -5  176.49   25.00
  24   2  -5  151.34   21.87
 -26  24  -5  140.49   22.74
   2 -26  -2   27.27   12.74
  24   2  -2   18.90   14.18
  24   2  -2   25.39   13.19
 -26  24  -2   33.48   15.42
   2 -26   1   71.10   15.68
  24   2   1   82.74   16.98
  24   2   1   47.42   14.32
 -26  24   1   90.55   18.78
  24   2   4   74.56   16.46
   2 -26   4   61.80   18.85
  24   2   4   76.64   14.96
 -26  24   4   63.06   18.06
 -26  24   7    2.31   18.84
  24   3  -6   40.92   18.63
   3 -27  -6   28.21   16.91
  24   3  -6   19.99   15.24
 -27  24  -6   71.61   19.31
  24   3  -3    8.27   13.94
  24   3  -3   24.70   14.67
 -27  24  -3   24.70   15.97
   3 -27  -3   53.69   16.97
  24   3   0  160.31   21.51
  24   3   0  134.42   18.62
   3 -27   0  124.13   18.96
 -27  24   0  105.25   18.68
  24   3   3   14.85   12.65
   3 -27   3   -5.87   15.52
 -27  24   3    8.45   17.12
  24   3   3   31.29   14.10
 -27  24   6   60.03   21.37
  24   3   6   41.83   13.19
  24   4  -7   66.27   21.08
   4 -28  -7   64.64   19.86
  24   4  -7   87.62   22.83
 -28  24  -7   32.23   18.42
  24   4  -4   42.59   16.71
  24   4  -4   52.01   18.07
   4 -28  -4   46.91   15.98
 -28  24  -4   41.13   17.17
  24   4  -1  246.57   25.87
   4 -28  -1  238.93   23.80
  24   4  -1  237.94   24.90
 -28  24  -1  208.66   25.35
  24   4   2   10.13   11.98
  24   4   2   32.85   14.35
   4 -28   2   12.36   14.18
 -28  24   2   19.90   14.77
  24   4   5  115.01   17.61
  24   4   5  128.04   19.97
 -28  24   5  146.14   25.71
  24   5  -5  -13.20   16.48
   5 -29  -5   26.50   16.24
  24   5  -5   13.27   15.59
 -29  24  -5   -8.50   15.87
   5 -29  -2    5.08   11.71
  24   5  -2   31.81   15.68
  24   5  -2    9.22   13.57
 -29  24  -2   37.80   16.04
   5 -29   1   40.56   14.87
  24   5   1    3.22   12.28
  24   5   1   25.26   14.27
 -29  24   1    9.30   15.03
  24   5   4   45.11   14.14
   5 -29   4   52.45   17.25
 -29  24   4   68.94   19.31
  24   5   4   69.53   16.94
 -29  24   7  -22.43   21.04
  24   6  -6   48.67   19.60
   6 -30  -6   37.83   18.31
  24   6  -6   31.51   18.21
 -30  24  -6   35.34   18.69
  24   6  -3   49.96   19.27
   6 -30  -3  100.88   20.60
  24   6  -3   65.13   17.96
 -30  24  -3   65.18   18.80
  24   6   0   52.87   15.99
   6 -30   0   58.79   15.74
  24   6   0   44.18   15.45
 -30  24   0   63.90   16.78
  24   6   3   40.87   14.78
   6 -30   3   47.81   16.78
  24   6   3   37.79   15.29
 -30  24   3   56.71   18.05
 -30  24   6   20.77   19.98
  24   7  -4  105.58   22.29
  24   7  -4   77.23   19.66
   7 -31  -4   75.03   18.55
 -31  24  -4   88.48   21.71
   7 -31  -1   72.29   17.19
  24   7  -1   96.06   19.44
  24   7  -1   49.56   16.47
 -31  24  -1   40.92   16.17
  24   7   2   32.77   15.94
  24   7   2    8.23   12.53
 -31  24   2   33.26   15.49
   7 -31   2   24.33   15.35
  24   7   5   94.61   18.04
  24   7   5  124.49   18.55
 -31  24   5   82.66   21.65
  24   8  -5   17.15   16.76
   8 -32  -5   28.08   17.74
  24   8  -5   10.91   15.67
 -32  24  -5    5.48   18.69
   8 -32  -2   23.88   14.84
  24   8  -2   20.44   16.19
  24   8  -2   25.18   16.02
 -32  24  -2   33.10   16.75
   8 -32   1   21.24   14.00
  24   8   1   21.37   14.64
  24   8   1  -12.59   13.53
 -32  24   1   22.78   17.33
   8 -32   4   35.52   18.02
  24   8   4   28.51   14.56
 -32  24   4   42.48   19.87
  24   8   4   20.54   15.59
  24   9  -3  146.64   25.27
  24   9  -3  150.16   23.33
 -33  24  -3  107.24   22.75
   9 -33  -3  107.18   20.70
  24   9   0   75.68   19.77
   9 -33   0   17.97   13.74
  24   9   0   62.38   17.90
 -33  24   0   44.96   18.04
  24   9   3   99.02   19.21
   9 -33   3   43.78   17.39
  24   9   3   66.45   17.45
 -33  24   3   61.09   20.23
  24  10  -4    7.63   17.28
  24  10  -4   41.78   19.22
  10 -34  -4   51.62   18.79
 -34  24  -4   53.84   20.79
  24  10  -1   57.74   19.17
  10 -34  -1   39.17   15.48
  24  10  -1   40.93   16.70
 -34  24  -1   27.88   17.95
  10 -34   2   68.95   18.46
  24  10   2   26.58   16.13
  24  10   2   44.23   15.99
 -34  24   2   78.43   22.05
  11 -35  -2    6.51   13.88
  24  11  -2    6.62   17.75
  24  11  -2    9.05   17.36
 -35  24  -2    7.96   16.93
  11 -35   1    9.80   14.29
  24  11   1   50.88   18.77
  24  11   1   40.92   16.34
 -35  24   1   49.12   17.51
  24  12   0    8.22   15.53
  24  12   0   14.25   16.08
  12 -36   0   25.54   15.61
 -36  24   0   -0.17   15.72
  11  25   1   80.83   21.30
  11  25   1   89.47   17.34
 -36  11   1   81.32   18.69
  10  25  -3    7.82   17.32
  25 -35  -3   10.35   12.44
  10  25  -3    8.07   16.56
 -35  10  -3   19.29   16.71
  10  25   0   31.45   18.22
  10  25   0   59.59   16.42
 -35  10   0   61.02   17.31
  10  25   3   34.58   17.24
  25 -34  -4   12.99   13.78
   9  25  -4    0.58   17.90
   9  25  -4   25.42   17.51
 -34   9  -4    3.38   16.48
   9  25  -1   56.47   19.21
   9  25  -1    8.57   14.24
 -34   9  -1   45.66   17.98
   9  25   2   20.45   15.83
 -34   9   2    2.34   11.05
  25 -33  -5   58.28   17.83
   8  25  -5   73.13   22.52
   8  25  -5   60.47   21.43
 -33   8  -5   63.09   21.75
   8  25  -2   34.43   18.65
  25 -33  -2   27.08   11.59
   8  25  -2   17.98   14.91
 -33   8  -2   50.84   17.37
   8  25   1  117.59   23.07
   8  25   1   95.60   16.89
 -33   8   1   78.82   16.11
   8  25   4   13.25   15.53
  25 -32  -3   26.56   12.83
   7  25  -3   17.68   16.67
   7  25  -3   30.56   17.24
 -32   7  -3   48.85   19.12
   7  25   0   79.56   19.08
   7  25   0   63.85   15.16
 -32   7   0   70.59   16.11
   7  25   3   44.38   17.24
   6  25  -4   58.90   20.02
   6  25  -4   -3.92   15.95
 -31   6  -4   19.36   16.69
  25 -31  -4   34.33   13.88
   6  25  -1   56.88   18.39
   6  25  -1   32.80   14.44
  25 -31  -1   33.27    9.89
 -31   6  -1   58.76   16.79
   6  25   2   43.28   16.66
   6  25   2   27.07   10.83
 -31   6   2   10.30   10.81
   6  25   5    5.20   13.71
   5  25  -5  192.77   25.93
 -30   5  -5  161.95   21.17
   5  25  -5  210.83   28.18
 -30   5  -5  240.15   29.87
  25 -30  -5  203.34   23.94
   5  25  -2   69.91   19.96
   5  25  -2   55.09   17.06
  25 -30  -2   46.32   12.33
 -30   5  -2   61.44   17.15
   5  25   1  114.23   20.61
   5  25   1  124.50   16.72
 -30   5   1   98.74   15.59
   5  25   4   49.69   16.14
   4  25  -6   -2.58   15.96
   4  25  -6   16.22   18.15
 -29   4  -6    2.45   17.51
  25 -29  -6   23.06   16.62
   4  25  -3   65.71   17.92
   4  25  -3   64.82   18.19
 -29   4  -3   50.87   16.80
  25 -29  -3   34.92   12.93
   4  25   0   45.62   17.02
   4  25   0   50.78   13.12
 -29   4   0   48.44   13.68
   4  25   3   39.83   14.99
   4  25   3   31.93    9.75
 -29   4   3   23.29    9.28
   4  25   6   37.10   14.44
   3  25  -7    1.22   15.81
   3  25  -7   -8.41   18.59
 -28   3  -7   -5.39   17.03
  25 -28  -7   -7.71   15.63
 -28   3  -4   42.66   14.37
   3  25  -4   50.66   18.27
   3  25  -4   48.31   18.37
 -28   3  -4  107.80   21.28
  25 -28  -4   57.14   15.64
  25 -28  -1   13.11    8.10
   3  25  -1   48.47   16.12
   3  25  -1   28.20   13.48
 -28   3  -1    8.71   11.50
   3  25   2   83.56   17.83
   3  25   2   59.63   11.92
 -28   3   2   81.08   12.68
   3  25   5    9.14   13.22
   2  25  -5  167.21   25.11
   2  25  -5  195.01   26.83
  25 -27  -5  213.37   23.69
 -27   2  -5  169.54   22.05
 -27   2  -5  215.31   27.75
   2  25  -2  127.60   21.07
   2  25  -2  128.13   20.00
 -27   2  -2   90.32   18.54
 -27   2  -2   92.10   17.94
  25 -27  -2   82.60   12.78
   2  25   1  218.21   24.37
   2  25   1  229.50   20.51
 -27   2   1  234.12   19.47
   2  25   4   37.50   15.21
   1  25  -6   42.62   18.67
 -26   1  -6    7.69   13.82
 -26   1  -6   22.26   17.67
  25 -26  -6    1.53   12.98
   1  25  -3   42.46   14.60
   1  25  -3   56.50   17.21
   1  25  -3   34.96   14.32
 -26   1  -3   43.51   14.70
  25 -26  -3   43.25   12.81
 -26   1  -3   34.78   14.76
   1  25   0   42.83   16.12
  25 -26   0   37.44    7.31
   1  25   0   44.00   14.22
 -26   1   0   44.45   12.49
   1  25   3   88.87   17.21
   1  25   3   83.22   11.07
 -26   1   3   60.33    9.80
   1  25   6   -0.24   11.46
   0  25  -7   15.16   15.42
   0  25  -7   12.19   17.38
  25 -25  -7    7.90   13.86
 -25   0  -7   10.02   17.36
 -25   0  -7    5.85   13.01
   0  25  -4  220.50   25.21
   0  25  -4  204.03   25.08
  25 -25  -4  210.69   21.86
 -25   0  -4  177.97   20.87
 -25   0  -4  192.73   25.79
   0  25  -4  188.88   21.73
 -25   0  -1    3.22   13.44
   0  25  -1   16.51   13.30
   0  25  -1    6.40   12.08
 -25   0  -1   30.85   12.47
  25 -25  -1   -3.10    7.45
   0  25   2  170.02   20.50
   0  25   2  169.99   15.90
 -25   0   2  184.13   15.34
   0  25   5   -2.11   11.93
  25 -24  -8   32.12   15.86
  -1  25  -8   13.16   16.39
  -1  25  -8   31.18   20.88
 -24  -1  -8    5.14   13.16
  25 -24  -8   51.79   20.71
 -24  -1  -8   -3.58   18.43
  25 -24  -5  106.83   19.08
  -1  25  -5   88.43   19.28
 -24  -1  -5   97.26   16.92
  25 -24  -5  103.25   18.26
 -24  -1  -5   96.51   20.51
  -1  25  -5  115.75   17.69
  -1  25  -5  107.95   20.71
  -1  25  -2   42.35   15.80
  -1  25  -2   48.96   15.87
  -1  25  -2   50.67   15.63
 -24  -1  -2   48.63   15.18
  25 -24  -2   54.06   11.13
 -24  -1  -2   49.18   15.54
  -1  25   1  269.75   25.84
  -1  25   1  266.20   20.39
 -24  -1   1  243.22   18.68
  -1  25   4   99.73   17.28
  -1  25   7  109.98   16.76
  -2  25  -6   32.23   14.21
  25 -23  -6   45.34   14.61
  -2  25  -6   67.55   17.47
  -2  25  -6   29.25   17.40
  25 -23  -6   22.61   14.93
 -23  -2  -6   21.46   16.43
 -23  -2  -6   33.73   14.79
  -2  25  -3   88.10   16.91
  -2  25  -3  135.80   20.84
  -2  25  -3  155.25   21.25
  25 -23  -3   97.96   15.30
 -23  -2  -3  129.18   19.38
 -23  -2  -3   81.60   17.32
  -2  25   0    6.73   13.86
  -2  25   0   44.68   13.70
  -2  25   0   56.09   13.00
 -23  -2   0   51.85   12.57
  25 -23   0   27.59    6.25
 -23  -2   0   36.05   14.67
  -2  25   3  117.54   12.14
 -23  -2   3  102.22    9.71
  -2  25   6   16.39   12.25
  25 -22  -7    5.04   13.51
  -3  25  -7   36.78   17.48
 -22  -3  -7   29.19   13.28
  -3  25  -7    5.07   14.74
  25 -22  -7   10.56   15.03
 -22  -3  -7    5.19   16.19
  -3  25  -7   -6.90   11.96
 -22  -3  -4  212.67   22.04
  -3  25  -4  194.30   23.35
  -3  25  -4  240.29   25.80
  25 -22  -4  225.22   21.84
 -22  -3  -4  242.62   26.26
  -3  25  -4  163.42   20.38
  25 -22  -4  178.77   22.93
  -3  25  -1   31.84   15.26
  -3  25  -1   21.00   13.81
  -3  25  -1   21.80   11.69
 -22  -3  -1   34.26   12.85
  25 -22  -1   19.47    7.74
 -22  -3  -1   31.09   12.92
  -3  25   2   90.43   12.70
 -22  -3   2   79.39   10.57
  -3  25   5   23.04   12.76
 -21  -4  -8   -9.51   14.38
  -4  25  -8   14.89   15.83
  -4  25  -8   11.61   17.30
  25 -21  -8   14.06   16.01
 -21  -4  -8   12.07   19.11
  25 -21  -8    0.78   13.81
  -4  25  -5  215.75   24.77
  -4  25  -5  196.65   24.80
  25 -21  -5  180.81   22.90
 -21  -4  -5  232.27   26.91
 -21  -4  -5  159.11   20.74
  25 -21  -5  199.00   23.12
  -4  25  -5  161.10   20.12
  -4  25  -2    2.94   12.54
 -21  -4  -2   11.87   12.49
  25 -21  -2    4.43   13.31
  -4  25  -2    8.25   12.43
  -4  25  -2   25.28   13.45
  25 -21  -2    9.25    8.55
 -21  -4  -2   17.77   11.33
  -4  25   1  275.09   27.33
  -4  25   1  232.99   23.14
  -4  25   1  255.16   20.08
 -21  -4   1  222.72   17.14
  -4  25   4   43.99   14.42
  -4  25   4   42.20    7.06
  -4  25   7  136.07   17.84
  -5  25  -9   28.63   16.19
  -5  25  -9   30.51   18.84
  25 -20  -9   63.52   21.61
 -20  -5  -9   55.70   21.90
 -20  -5  -9    3.20   14.55
  25 -20  -9   21.89   16.65
  -5  25  -6   10.66   13.35
  -5  25  -6    1.72   14.78
 -20  -5  -6   17.73   12.29
  25 -20  -6   12.15   14.76
  25 -20  -6   -5.20   13.72
 -20  -5  -6   13.02   15.47
  -5  25  -6  -11.90   13.18
  25 -20  -6   30.90   16.09
  -5  25  -3  156.18   20.47
 -20  -5  -3  150.33   19.34
  -5  25  -3  218.96   23.59
  25 -20  -3  150.44   17.41
  25 -20  -3  162.60   21.96
 -20  -5  -3  174.81   21.99
  25 -20  -3  191.72   22.29
  -5  25  -3  138.28   19.44
  -5  25   0   70.72   18.29
  -5  25   0   88.15   17.22
  -5  25   0   88.51   15.29
 -20  -5   0   76.59   18.44
  25 -20   0   64.99    8.49
 -20  -5   0   79.95   13.87
  25 -20   0   60.46    8.83
  -5  25   3  146.10   19.16
  -5  25   3  139.70   13.08
 -20  -5   3  132.57    9.01
  -5  25   6   71.58   14.63
 -19  -6  -7   43.32   14.50
  -6  25  -7   41.17   16.06
  -6  25  -7   22.31   16.99
  25 -19  -7   49.83   17.48
  25 -19  -7   23.41   15.09
 -19  -6  -7   17.29   15.71
  -6  25  -7   15.97   12.30
  25 -19  -7  -10.04   14.81
  25 -19  -4   93.09   17.69
  -6  25  -4  123.52   18.99
  -6  25  -4  135.18   21.20
  25 -19  -4  125.88   18.05
  25 -19  -4  138.35   20.80
 -19  -6  -4   91.19   18.83
 -19  -6  -4  123.40   18.37
  -6  25  -4  109.52   17.91
  -6  25  -1   31.00   14.42
  25 -19  -1    4.26   12.23
  -6  25  -1   29.93   13.34
  -6  25  -1   45.73   13.45
 -19  -6  -1   35.56   14.03
  25 -19  -1   34.24    9.36
  25 -19  -1   11.86   12.11
 -19  -6  -1   18.08   11.33
  -6  25   2  183.03   16.60
 -19  -6   2  191.91   13.46
  -6  25   2  207.74   25.70
  -6  25   8  106.86   16.80
  -7  25  -8   33.26   15.32
  -7  25  -8   75.48   21.38
  25 -18  -8   28.57   17.88
  25 -18  -8   44.47   16.52
 -18  -7  -8   39.08   19.30
  -7  25  -8   19.74   13.26
 -18  -7  -8   40.50   16.20
  25 -18  -8   31.32   14.96
  -7  25  -5  162.48   21.06
  -7  25  -5  170.88   22.41
  25 -18  -5  169.29   22.01
  25 -18  -5  121.48   20.26
 -18  -7  -5  145.44   19.32
  25 -18  -5  175.43   21.88
  -7  25  -5  145.86   19.26
  25 -18  -2   32.78   14.54
  -7  25  -2   16.18   12.10
  -7  25  -2   60.81   14.76
  25 -18  -2   22.14   10.29
 -18  -7  -2   17.37   11.84
  25 -18  -2   20.14   13.12
 -18  -7  -2   39.34   12.96
  -7  25  -2   64.41   14.90
  -7  25   1   57.98   16.20
  -7  25   1   74.05   13.43
  25 -18   1   61.85    6.53
 -18  -7   1   82.82   12.69
  25 -18   1   50.28    6.04
 -18  -7   1   63.34   17.25
  -7  25   4   35.84    8.26
  -8  25  -9  202.56   25.27
  -8  25  -9  171.51   27.96
  25 -17  -9  170.25   28.25
 -17  -8  -9  213.69   24.95
  25 -17  -9  159.44   24.50
 -17  -8  -9  241.20   33.98
  25 -17  -9  242.52   26.58
 -17  -8  -6   19.84   14.25
  -8  25  -6   21.28   13.95
  -8  25  -6   23.32   16.97
  25 -17  -6    8.51   14.14
  25 -17  -6   39.37   16.16
  -8  25  -6   31.13   13.45
  25 -17  -6   48.02   14.89
  -8  25  -3  215.87   22.97
  -8  25  -3  174.55   20.57
  25 -17  -3  186.19   19.17
  25 -17  -3  166.79   22.27
  25 -17  -3  146.19   20.04
  -8  25  -3  165.35   21.33
 -17  -8  -3  142.50   18.80
  -8  25   0  141.45   17.03
  25 -17   0  112.41   11.24
  25 -17   0  139.60   12.38
  25 -17   0  135.31   19.85
 -17  -8   0  160.10   16.66
 -17  -8   0  173.84   20.51
  -8  25   0  122.26   19.83
  25 -17   0  120.33   19.55
  -8  25   3  279.29   18.41
 -17  -8   3  275.46   11.20
 -17  -8   3  244.73   11.61
  -8  25   3  269.80   28.13
  -9  25  -7   10.67   13.27
  -9  25  -7   -1.79   16.77
  25 -16  -7   28.92   16.93
  25 -16  -7   12.55   13.96
 -16  -9  -7    7.82   13.25
  -9  25  -7   22.56   12.79
  25 -16  -7    6.55   13.17
  -9  25  -4   59.60   16.53
  -9  25  -4   53.26   15.90
  25 -16  -4   63.90   14.82
 -16  -9  -4   61.80   15.42
  25 -16  -4   68.55   17.09
  -9  25  -4   44.10   15.19
  25 -16  -4   56.63   17.33
  25 -16  -1   48.01   15.66
  25 -16  -1   54.47   15.17
 -16  -9  -1   40.40   12.53
  25 -16  -1   45.41   10.67
  -9  25  -1   34.26   14.47
  -9  25   2   72.59   18.99
  25 -16   2   78.55    5.68
  25 -16   2  117.81   17.42
 -16  -9   2  143.34   12.07
 -16  -9   2  121.12   19.32
  25 -16   2   72.00    5.22
 -16  -9   2  107.51   11.67
  -9  25   5    2.05    5.45
 -10  25  -8   60.50   18.45
 -10  25  -8   29.27   15.59
  25 -15  -8   55.43   20.89
  25 -15  -8   54.89   17.51
 -15 -10  -8   66.86   16.67
 -10  25  -8   32.62   15.02
  25 -15  -8   60.26   16.31
 -15 -10  -5   71.08   15.23
 -10  25  -5   31.75   14.32
 -10  25  -5   67.49   17.75
  25 -15  -5   68.52   17.11
  25 -15  -5   37.41   15.86
 -10  25  -5   65.61   14.80
  25 -15  -5   73.31   16.61
  25 -15  -2    8.84   12.38
 -15 -10  -2    8.41   10.94
 -10  25  -2   33.05   14.57
  25 -15  -2   17.14   13.44
 -15 -10   1   70.01   12.02
  25 -15   1   56.45   14.90
  25 -15   1   78.29    8.63
  25 -15   1   79.14   15.51
 -15 -10   1   94.13   16.63
 -10  25   1   95.66   18.39
 -10  25   4   85.23   21.45
 -11  25  -9  137.25   26.14
 -11  25  -9  193.99   23.98
  25 -14  -9  221.31   31.40
 -14 -11  -9  186.92   25.42
  25 -14  -9  191.45   26.20
  25 -14  -9  168.55   23.42
 -11  25  -9  162.97   21.93
 -11  25  -6   73.32   17.26
 -11  25  -6   46.76   16.83
  25 -14  -6   64.91   16.85
  25 -14  -6   41.91   14.96
 -11  25  -6   54.53   14.86
 -14 -11  -6   53.36   16.82
  25 -14  -3  510.28   32.94
 -14 -11  -3  469.71   29.87
  25 -14  -3  521.95   32.91
 -11  25  -3  506.97   32.02
  25 -14   0   64.77    9.92
  25 -14   0   59.03   15.96
  25 -14   0   63.48   14.92
 -14 -11   0   69.36   15.10
 -11  25   0   46.73   16.10
  25 -14   3  166.10   19.60
 -14 -11   3  171.45   10.24
 -14 -11   3  159.91    9.71
 -11  25   3  163.21   23.64
 -12  25  -7   14.18   12.81
 -12  25  -7   11.64   16.75
  25 -13  -7   10.34   14.95
  25 -13  -7   18.42   15.10
 -13 -12  -7   33.74   15.10
  25 -13  -7   16.35   14.71
 -12  25  -7   21.96   14.73
 -13 -12  -4   52.11   15.21
  25 -13  -4   34.31   14.93
 -12  25  -4   65.96   15.88
  25 -13  -4   35.93   13.58
 -13 -12  -1    4.49   11.10
  25 -13  -1   29.63   13.38
 -12  25  -1   23.57   14.27
  25 -13  -1   12.75   12.11
 -13 -12   2  121.85   19.46
  25 -13   2  119.03   17.18
 -13 -12   2  112.85   11.87
 -12  25   2  175.51   23.40
  25 -13   2  153.50   20.07
  25 -13   2   91.74    9.27
 -12  25   5  -12.89   15.44
 -13  25  -8   41.57   14.99
 -13  25  -8   45.33   19.28
  25 -12  -8   55.25   22.35
  25 -12  -8   46.97   16.81
 -12 -13  -8   30.09   15.64
  25 -12  -8   52.17   17.36
 -13  25  -8   28.02   14.54
  25 -12  -5    8.44   12.59
  25 -12  -5    1.75   12.76
 -13  25  -5    9.00   12.68
 -12 -13  -5   -0.73   11.93
  25 -12  -2   98.69   17.25
 -13  25  -2   92.19   12.14
 -12 -13  -2   87.64   15.45
 -13  25  -2  105.59   17.41
  25 -12  -2   71.78   17.13
  25 -12   1    6.04   11.38
 -12 -13   1   -0.13   11.03
  25 -12   1    3.51   11.39
  25 -12   1    8.48    6.86
 -13  25   1   12.76   12.10
 -12 -13   1    6.34    8.20
 -13  25   4   67.61   19.00
  25 -12   4   89.56   14.73
 -14  25  -9  151.12   22.85
 -14  25  -9  114.40   24.54
  25 -11  -9  163.25   27.58
  25 -11  -9  214.42   26.48
  25 -11  -9  188.13   25.06
 -14  25  -9  163.70   23.29
 -11 -14  -9  148.58   23.36
  25 -11  -6   55.76   17.06
 -11 -14  -6   29.97   15.17
  25 -11  -6   25.98   14.37
 -14  25  -6   25.74   13.49
  25 -11  -3  236.51   23.53
 -14  25  -3  171.80   13.42
 -11 -14  -3  207.06   21.43
  25 -11  -3  245.72   23.82
 -14  25  -3  211.79   22.08
  25 -11   0   37.78   13.28
 -14  25   0   72.59   16.73
  25 -11   0   54.24   14.87
  25 -11   3  373.27   28.34
  25 -11   3  404.06   26.35
 -11 -14   3  359.44   29.49
  25 -11   3  318.10   15.82
 -11 -14   3  370.70   16.24
 -14  25   3  415.06   32.82
 -14  25   6   68.39   20.51
 -15  25  -7   18.62   13.66
  25 -10  -7   31.22   15.23
 -10 -15  -7   15.72   13.80
  25 -10  -7   14.44   12.89
 -15  25  -7   14.78   12.73
  25 -10  -4   38.30   14.98
  25 -10  -4   38.62   14.54
 -15  25  -4   64.77   15.93
 -10 -15  -4   53.64   15.16
 -15  25  -1   41.88   10.06
  25 -10  -1   35.88   14.39
 -10 -15  -1   29.94   12.87
 -15  25  -1   65.51   16.12
  25 -10  -1   38.06   15.12
  25 -10   2   -7.65   11.83
  25 -10   2   -1.55    7.04
  25 -10   2   -4.75   11.33
 -10 -15   2   15.10   12.20
 -10 -15   2   10.83    8.20
 -15  25   5   83.49   20.38
  25 -10   5   95.17   14.67
 -16  25  -8   98.78   19.16
  25  -9  -8   82.18   19.77
  -9 -16  -8   94.62   20.70
  25  -9  -8   23.50   14.86
 -16  25  -8  104.48   19.62
  25  -9  -5   66.10   16.01
  25  -9  -5   60.24   17.67
  -9 -16  -5   50.68   14.69
 -16  25  -5   69.81   15.97
 -16  25  -2  175.08   13.15
  25  -9  -2  221.53   23.79
  -9 -16  -2  197.69   21.35
  25  -9  -2  213.53   22.99
 -16  25  -2  207.00   22.97
  25  -9   1  124.48   17.86
  25  -9   1   97.20   18.00
 -16  25   1  127.52   20.62
  -9 -16   1   87.35   17.41
  25  -9   4  113.88   16.12
 -16  25   4  166.62   23.80
 -17  25  -9  146.28   26.37
  -8 -17  -9  161.76   24.59
 -17  25  -9  142.06   21.64
  25  -8  -9  109.07   20.94
  25  -8  -9  128.41   24.09
 -17  25  -9   69.64   19.73
  25  -8  -6   26.80   14.58
  -8 -17  -6   25.85   14.76
  25  -8  -6   -9.50   14.00
 -17  25  -6   21.10   15.11
  25  -8  -3  223.75   22.77
  -8 -17  -3  192.50   21.47
  25  -8  -3  199.86   22.33
 -17  25  -3  198.06   21.78
  -8 -17   0  151.23   18.89
 -17  25   0  134.37   14.26
  25  -8   0  150.25   19.40
  25  -8   0  144.08   18.95
 -17  25   0  134.52   20.10
 -17  25   3  108.97   20.43
  -8 -17   3  148.63   20.72
  25  -8   3  150.01   18.17
  -8 -17   3  114.21   12.26
  25  -8   3  109.59   18.20
 -17  25   6  139.34   25.25
  25  -7  -7   58.83   17.04
  -7 -18  -7   45.95   17.12
  25  -7  -7   66.91   18.23
 -18  25  -7   64.52   17.47
  25  -7  -4    9.03   12.13
  25  -7  -4   17.33   12.25
 -18  25  -4    4.57   12.92
  -7 -18  -4   28.65   15.13
  25  -7  -1   75.44   15.18
  -7 -18  -1   84.89   16.56
  25  -7  -1   82.44   15.91
 -18  25  -1   62.17   14.83
  -7 -18   2   16.68   12.59
  25  -7   2   25.30   12.59
 -18  25   2   24.02   14.26
  25  -7   2    5.66   11.60
  25  -7   5  197.64   18.72
 -18  25   5  203.82   27.32
  -6 -19  -8  122.45   23.49
  25  -6  -8  145.05   22.81
  25  -6  -8  151.28   23.10
 -19  25  -8  155.85   23.19
  25  -6  -5   40.97   15.94
  -6 -19  -5   31.29   15.50
  25  -6  -5   18.20   14.57
 -19  25  -5   24.49   12.61
  25  -6  -2  210.89   21.84
  -6 -19  -2  208.81   21.64
  25  -6  -2  183.37   20.79
 -19  25  -2  165.74   20.51
  25  -6   1   10.58   10.68
  -6 -19   1    2.89   11.57
 -19  25   1   11.92   13.78
  25  -6   1    7.77   11.47
  25  -6   4  102.90   18.21
  25  -6   4  100.42   15.19
 -19  25   4  114.06   22.33
 -19  25   7   15.06   18.77
 -20  25  -9   52.39   16.28
  25  -5  -9   75.02   20.58
  -5 -20  -9   84.83   21.70
  25  -5  -9   96.54   23.00
 -20  25  -9   61.93   18.61
  25  -5  -6   37.94   15.95
  -5 -20  -6   23.71   14.93
  25  -5  -6   17.12   13.93
 -20  25  -6   13.79   13.83
  25  -5  -3  175.26   21.24
  -5 -20  -3  180.75   21.42
  25  -5  -3  146.95   20.33
 -20  25  -3  164.08   20.95
  25  -5   0   67.75   16.57
  -5 -20   0   43.23   14.70
  25  -5   0   67.42   14.56
 -20  25   0   48.37   15.87
  25  -5   3  107.76   17.68
  -5 -20   3  144.06   21.33
  25  -5   3  110.18   16.24
 -20  25   3   93.34   21.46
 -20  25   6   27.13   19.34
  25  -5   6   19.02    9.65
  -4 -21  -7  193.95   26.19
  25  -4  -7  257.99   27.95
  25  -4  -7  223.85   26.92
 -21  25  -7  202.40   24.91
  25  -4  -4   30.98   14.29
  25  -4  -4   15.03   13.72
  -4 -21  -4   11.17   11.81
 -21  25  -4   42.05   15.97
  25  -4  -1  258.40   24.37
  25  -4  -1  231.58   23.28
  -4 -21  -1  253.09   24.40
 -21  25  -1  221.02   24.39
  -4 -21   2   -1.16   11.63
  25  -4   2   25.35   11.65
 -21  25   2   -3.31   12.91
  25  -4   2   10.13   12.51
  25  -4   5  146.06   17.50
 -21  25   5  160.38   25.02
  25  -3  -8  119.42   21.04
  -3 -22  -8  124.75   23.92
  25  -3  -8  164.69   25.43
 -22  25  -8   68.19   19.38
  25  -3  -5   41.26   15.99
  -3 -22  -5    2.56   12.68
  25  -3  -5   11.77   14.31
 -22  25  -5   -7.30   14.07
  -3 -22  -2   89.75   16.64
  25  -3  -2   98.98   16.52
  25  -3  -2  108.60   18.20
 -22  25  -2   56.15   15.20
  -3 -22   1   23.04   14.14
  25  -3   1   43.48   13.66
  25  -3   1    1.63   11.93
 -22  25   1   26.20   14.70
  25  -3   4  177.10   18.01
  -3 -22   4  136.60   21.24
  25  -3   4  177.56   20.99
 -22  25   4  137.85   21.83
 -22  25   7    2.92   18.17
  25  -2  -6   15.74   14.75
  -2 -23  -6   15.01   14.33
  25  -2  -6   -8.84   14.73
 -23  25  -6   15.41   15.37
  25  -2  -3   84.60   17.95
  -2 -23  -3  140.76   19.39
  25  -2  -3   99.91   18.53
 -23  25  -3  107.14   19.21
  25  -2   0   25.72   14.33
  -2 -23   0   46.43   13.99
  25  -2   0   14.86   13.47
 -23  25   0   19.53   14.35
  25  -2   3   67.76   14.21
  25  -2   3  110.12   19.43
 -23  25   3  133.43   21.64
  -2 -23   3  102.52   18.81
 -23  25   6  -12.12   16.88
  25  -2   6   27.02   11.58
  -1 -24  -7  150.18   25.96
  25  -1  -7  161.58   24.48
  25  -1  -7  142.75   23.31
 -24  25  -7  154.25   24.52
  25  -1  -4   96.50   18.39
  25  -1  -4   59.51   17.05
  -1 -24  -4   64.54   16.08
 -24  25  -4   59.25   17.28
  25  -1  -1  229.00   24.44
  25  -1  -1  202.85   22.75
  -1 -24  -1  181.61   21.27
 -24  25  -1  170.04   22.68
  -1 -24   2   74.05   16.97
  25  -1   2   69.70   15.26
 -24  25   2   70.55   18.66
  25  -1   2   69.11   16.17
  25  -1   5   47.61   15.85
  25  -1   5   43.25   12.13
 -24  25   8   87.62   24.77
  25   0  -8   63.97   20.11
   0 -25  -8   86.42   23.17
  25   0  -8   81.75   20.65
 -25  25  -8   62.87   21.62
  25   0  -5   36.03   17.19
   0 -25  -5   12.99   15.59
  25   0  -5   20.80   14.80
 -25  25  -5   -7.39   13.90
  25   0  -2  209.29   23.76
   0 -25  -2  208.55   22.34
  25   0  -2  176.16   22.44
 -25  25  -2  154.27   21.40
   0 -25   1   -2.94   12.78
  25   0   1   32.78   13.75
  25   0   1   -6.19   11.39
 -25  25   1   15.45   12.39
  25   0   4  193.69   19.54
   0 -25   4  175.15   24.46
  25   0   4  188.09   22.69
 -25  25   4  160.42   25.02
 -25  25   7   14.46   20.01
  25   1  -6   13.92   16.62
   1 -26  -6  -11.27   16.82
  25   1  -6   16.13   15.02
 -26  25  -6   20.71   16.45
  25   1  -3   44.33   16.23
  25   1  -3   16.61   13.13
 -26  25  -3   28.34   15.78
   1 -26  -3   37.63   15.80
  25   1   0   78.16   17.93
   1 -26   0   43.71   14.73
  25   1   0   73.09   17.68
 -26  25   0   65.57   17.18
  25   1   3   46.38   13.78
   1 -26   3   25.62   15.27
 -26  25   3   37.15   15.76
  25   1   3    1.92   13.28
 -26  25   6  -11.06   19.30
  25   1   6   32.42   12.07
  25   2  -7  142.31   24.73
   2 -27  -7  101.21   23.37
  25   2  -7  139.56   24.29
 -27  25  -7  153.32   25.84
  25   2  -4   57.00   18.36
  25   2  -4   76.72   18.79
   2 -27  -4   98.20   18.69
 -27  25  -4   87.95   20.34
  25   2  -1  258.44   26.84
  25   2  -1  237.69   24.23
   2 -27  -1  233.56   24.49
 -27  25  -1  233.30   26.87
  25   2   2   89.68   17.34
  25   2   2  149.96   20.80
 -27  25   2   86.75   20.83
   2 -27   2   95.07   18.05
 -27  25   5  114.70   22.81
  25   2   5  133.66   17.66
  25   2   5  108.59   19.46
  25   3  -5    8.22   15.25
   3 -28  -5  -11.37   16.57
  25   3  -5   37.74   17.22
 -28  25  -5    9.95   16.51
   3 -28  -2   88.14   17.20
  25   3  -2  100.35   19.95
  25   3  -2   99.26   19.73
 -28  25  -2  105.66   20.42
   3 -28   1   63.70   17.02
  25   3   1   10.43   12.75
  25   3   1   65.23   15.88
 -28  25   1   43.27   16.94
   3 -28   4   69.11   19.89
  25   3   4   50.59   14.02
 -28  25   4   40.98   19.12
  25   3   4   42.87   15.73
 -28  25   7   -2.46   19.05
  25   4  -6   35.17   18.29
   4 -29  -6   27.20   17.61
  25   4  -6   71.54   19.65
 -29  25  -6   29.14   16.36
  25   4  -3   33.12   16.76
  25   4  -3   33.92   15.31
 -29  25  -3   15.78   17.69
   4 -29  -3   26.27   15.30
  25   4   0   80.56   18.29
   4 -29   0   37.17   14.44
  25   4   0   53.49   16.16
 -29  25   0   34.10   15.32
  25   4   3   96.08   17.37
   4 -29   3   69.65   18.80
 -29  25   3   30.96   18.15
  25   4   3   54.37   16.37
 -29  25   6   20.60   18.66
  25   4   6   42.34   13.10
  25   5  -4   47.06   16.87
  25   5  -4   27.00   15.38
   5 -30  -4   44.91   18.53
 -30  25  -4   27.25   16.61
  25   5  -1   74.39   18.56
   5 -30  -1  104.78   18.97
  25   5  -1  113.21   22.18
 -30  25  -1   72.15   18.81
  25   5   2  105.08   18.88
  25   5   2  108.53   19.53
 -30  25   2   84.91   19.69
   5 -30   2   91.60   19.03
  25   5   5   85.33   19.14
 -30  25   5   62.66   21.77
  25   6  -5   -1.00   17.41
   6 -31  -5   -8.76   15.70
  25   6  -5   21.34   17.55
 -31  25  -5    7.93   16.46
   6 -31  -2   10.88   14.28
  25   6  -2   17.57   15.28
  25   6  -2    2.37   14.15
 -31  25  -2   27.83   16.43
   6 -31   1   61.95   17.50
  25   6   1   30.91   15.95
  25   6   1   35.32   15.12
 -31  25   1   48.48   18.14
  25   6   4   31.51   14.78
   6 -31   4   24.35   15.88
 -31  25   4   58.33   20.26
  25   6   4   52.65   17.10
  25   7  -3    5.55   15.36
  25   7  -3   10.50   15.33
 -32  25  -3   28.67   16.81
   7 -32  -3   31.91   16.36
  25   7   0   44.55   18.32
   7 -32   0   63.38   17.45
  25   7   0   55.58   17.31
 -32  25   0   67.09   20.23
  25   7   3   36.61   16.09
   7 -32   3   21.47   15.82
  25   7   3   22.22   14.22
 -32  25   3   34.59   17.59
  25   8  -4    5.09   16.06
  25   8  -4   26.99   17.40
   8 -33  -4    2.02   15.61
 -33  25  -4  -14.33   17.69
  25   8  -1   73.54   20.16
   8 -33  -1   50.19   17.35
  25   8  -1   60.86   18.43
 -33  25  -1   75.04   22.23
   8 -33   2   -0.69   15.19
  25   8   2   24.49   14.94
  25   8   2  -15.66   14.55
 -33  25   2   -2.41   15.81
  25   8   5   79.37   17.76
 -33  25   5   31.45   20.43
   9 -34  -2   40.40   17.70
  25   9  -2   12.06   16.37
  25   9  -2   17.62   16.30
 -34  25  -2  -14.56   16.64
   9 -34   1    8.62   14.16
  25   9   1   53.47   17.94
  25   9   1   21.87   15.73
 -34  25   1   44.83   18.87
  25   9   4   10.89   15.37
 -34  25   4   13.48   16.35
  25   9   4   32.79   16.62
  25  10  -3   39.65   20.33
  25  10  -3    2.45   15.48
  10 -35  -3   32.56   16.19
  25  10   0   82.19   21.24
  25  10   0   50.87   16.35
  10 -35   0   51.44   18.69
 -35  25   0   97.56   22.74
  10 -35   3   -3.51   15.87
  25  10   3   12.87   16.16
  25  10   3    9.00   14.46
 -35  25   3   10.02   16.38
  25  11  -1  131.39   25.53
  11 -36  -1   86.57   19.90
  25  11  -1   99.66   21.67
 -36  25  -1   79.65   22.49
   9  26  -2  109.84   23.24
   9  26  -2   86.79   20.20
 -35   9  -2   84.76   21.01
   9  26   1   -3.97   16.29
   9  26   1   15.46   13.78
 -35   9   1   -6.76   12.88
   8  26  -3   30.34   19.26
  26 -34  -3   25.97   13.58
   8  26  -3   40.43   19.05
 -34   8  -3   24.99   17.35
   8  26   0   14.20   16.13
   8  26   0    0.33   12.88
 -34   8   0    9.96   12.94
   8  26   3   39.45   17.80
  26 -33  -4   19.27   13.80
   7  26  -4   24.95   18.16
   7  26  -4   22.42   16.80
 -33   7  -4    1.29   16.02
   7  26  -1   50.83   20.96
   7  26  -1   12.58   13.40
 -33   7  -1   22.73   15.51
   7  26   2   18.10   16.79
 -33   7   2   15.29   11.42
   6  26  -5  -17.85   18.89
   6  26  -5    0.42   16.78
 -32   6  -5   21.82   18.31
  26 -32  -5   23.70   13.99
   6  26  -2  125.27   23.08
  26 -32  -2   77.57   14.02
   6  26  -2   96.83   20.50
 -32   6  -2   67.75   18.09
   6  26   1   45.96   17.97
   6  26   1   17.47   12.57
 -32   6   1   16.71   12.32
   6  26   4  124.96   22.15
  26 -31  -3   34.61   12.14
   5  26  -3   78.26   20.91
   5  26  -3   71.11   18.73
 -31   5  -3   65.37   18.46
   5  26   0   12.84   15.96
   5  26   0   25.09   13.12
 -31   5   0   20.52   11.96
   5  26   3   28.13   15.96
   4  26  -4   17.13   16.77
   4  26  -4   28.79   17.20
 -30   4  -4    4.29   13.58
  26 -30  -4   17.96   13.71
   4  26  -1   74.19   19.22
  26 -30  -1   51.74   10.23
   4  26  -1   56.58   15.99
 -30   4  -1   36.66   15.42
   4  26   2    0.23   13.54
   4  26   2   10.96    9.83
 -30   4   2   12.06    9.55
   4  26   5   -4.87   13.63
   3  26  -5   36.17   18.19
   3  26  -5   -7.88   15.26
 -29   3  -5   41.68   20.25
 -29   3  -5   21.85   15.83
  26 -29  -5   -1.36   13.53
   3  26  -2  178.88   24.71
   3  26  -2  209.06   25.33
 -29   3  -2  203.62   24.88
  26 -29  -2  127.35   15.47
   3  26   1   -6.08   13.86
   3  26   1    7.67   10.59
 -29   3   1   -0.27    9.68
   3  26   4  109.32   19.77
 -28   2  -6   10.58   13.39
   2  26  -6   19.35   16.64
   2  26  -6   17.55   16.71
 -28   2  -6   28.08   18.18
  26 -28  -6    6.58   14.33
   2  26  -3   79.49   19.97
   2  26  -3  113.90   20.99
 -28   2  -3   86.04   19.15
  26 -28  -3   54.12   13.72
 -28   2  -3  101.71   18.89
   2  26   0   34.93   15.17
   2  26   0   32.48   12.62
 -28   2   0    5.98   11.14
   2  26   3  109.27   18.76
   2  26   3   91.74   12.14
   2  26   6   38.14   15.17
   1  26  -7    1.30   15.50
 -27   1  -7    1.12   13.76
   1  26  -7    8.44   15.72
 -27   1  -7   23.53   18.73
  26 -27  -7   10.01   16.85
   1  26  -4   44.95   15.55
   1  26  -4   37.06   16.26
   1  26  -4   30.92   16.49
 -27   1  -4   55.90   16.49
 -27   1  -4   61.07   18.26
  26 -27  -4    4.59   12.42
   1  26  -1  127.67   21.06
   1  26  -1  112.54   18.60
 -27   1  -1   98.47   17.17
  26 -27  -1  101.94   12.22
   1  26   2   55.66   17.24
   1  26   2   43.92   11.20
 -27   1   2   31.57   10.34
   1  26   5   95.93   18.04
   0  26  -5    5.88   12.96
   0  26  -5  -19.19   15.53
   0  26  -5   25.70   16.74
 -26   0  -5   27.24   16.91
  26 -26  -5   -4.65   13.97
 -26   0  -5   17.48   13.93
   0  26  -2  311.30   28.02
   0  26  -2  328.40   29.35
   0  26  -2  323.93   27.12
 -26   0  -2  272.35   26.89
  26 -26  -2  303.14   20.79
 -26   0  -2  365.45   29.66
   0  26   1   -7.46   12.93
   0  26   1    7.68    9.46
 -26   0   1   -2.42    9.35
   0  26   4  320.70   26.82
   0  26   7   16.00   13.31
 -25  -1  -6   13.64   13.54
  -1  26  -6   37.03   17.80
  -1  26  -6   -3.95   16.53
  26 -25  -6   46.57   16.22
 -25  -1  -6   25.43   16.33
  -1  26  -3   54.07   17.00
  -1  26  -3   34.08   14.39
  -1  26  -3   21.54   15.31
 -25  -1  -3   45.50   15.33
 -25  -1  -3   51.16   15.95
  26 -25  -3   33.69   12.36
  -1  26   0  107.46   19.61
  -1  26   0   70.71   15.11
 -25  -1   0   86.38   14.85
  26 -25   0   61.23    7.98
  -1  26   3   32.84   13.79
  -1  26   3   23.16    8.33
 -25  -1   3   15.44    7.21
  -1  26   6   18.97   12.97
  26 -24  -7   30.73   16.21
  -2  26  -7   44.79   18.01
  -2  26  -7   15.92   16.30
  26 -24  -7    4.27   16.33
 -24  -2  -7   -4.65   16.22
 -24  -2  -7   38.65   15.47
  -2  26  -4   84.09   18.89
  -2  26  -4  103.93   19.58
 -24  -2  -4  128.09   22.05
  26 -24  -4   63.00   15.43
 -24  -2  -4   82.01   17.38
  -2  26  -4  105.60   18.43
  -2  26  -1  106.71   20.10
  -2  26  -1   82.92   16.72
  -2  26  -1  129.67   18.87
  26 -24  -1   70.21   10.47
 -24  -2  -1   89.16   16.02
 -24  -2  -1   91.84   18.67
  -2  26   2   58.28   16.02
  -2  26   2   29.63   10.24
 -24  -2   2   32.25    8.93
  -2  26   5  126.10   19.01
  -3  26  -8  187.29   28.68
  -3  26  -8  113.17   22.43
  26 -23  -8  116.13   24.27
 -23  -3  -8  102.33   24.45
 -23  -3  -8  132.15   20.96
  26 -23  -8  130.72   23.07
  -3  26  -5  -16.55   11.92
  26 -23  -5   30.82   15.25
  -3  26  -5   26.40   14.28
  -3  26  -5   20.85   15.23
  26 -23  -5    7.14   12.44
 -23  -3  -5  -10.10   14.29
 -23  -3  -5   -4.51   11.30
  -3  26  -2  213.74   23.77
  -3  26  -2  259.59   25.38
  26 -23  -2  203.70   17.45
 -23  -3  -2  256.42   24.90
 -23  -3  -2  212.23   22.95
  -3  26  -2  236.52   25.82
  -3  26   1   32.48   17.03
  -3  26   1   42.64   12.23
 -23  -3   1   49.99   10.84
  -3  26   1   43.28   15.50
  -3  26   4  172.32   21.72
  -3  26   7    6.19   11.52
  26 -22  -6   10.59   14.22
  -4  26  -6   17.74   14.95
  -4  26  -6   35.93   16.55
  26 -22  -6   41.65   16.91
 -22  -4  -6   27.55   17.97
 -22  -4  -6   33.57   15.36
  -4  26  -6   35.08   14.42
  -4  26  -3   78.54   17.36
  26 -22  -3   58.89   16.12
  -4  26  -3   69.31   17.65
  -4  26  -3   56.86   16.17
  26 -22  -3   65.55   13.80
 -22  -4  -3   61.29   16.51
 -22  -4  -3   29.16   13.60
  -4  26   0  282.91   25.88
  -4  26   0  298.64   23.57
 -22  -4   0  270.14   26.92
  26 -22   0  240.72   13.58
 -22  -4   0  272.77   20.99
  -4  26   0  253.85   27.35
  -4  26   3   23.53   13.09
  -4  26   3   32.18    8.93
 -22  -4   3   12.50    5.42
  -4  26   6   81.72   16.45
  -5  26  -7   39.13   17.08
  -5  26  -7   42.43   17.48
 -21  -5  -7    4.46   14.20
  26 -21  -7   23.14   16.93
 -21  -5  -7   15.07   16.47
  -5  26  -7    8.16   12.17
  26 -21  -7  -16.23   16.36
  26 -21  -4   32.06   15.16
  -5  26  -4   67.36   16.72
  -5  26  -4   33.43   15.36
  26 -21  -4   38.63   13.88
 -21  -5  -4   73.04   16.98
 -21  -5  -4   39.62   14.04
  -5  26  -4   52.22   15.64
  -5  26  -1   42.96   15.56
  -5  26  -1   55.81   15.44
  -5  26  -1   51.20   14.50
  26 -21  -1   37.27    9.03
 -21  -5  -1   42.33   14.22
 -21  -5  -1   45.07   13.30
  -5  26   2   16.28   16.12
  -5  26   2   37.27   14.57
  -5  26   2   27.16   10.53
 -21  -5   2   20.42    7.31
  -5  26   5  171.54   21.84
 -20  -6  -8   56.70   16.67
  -6  26  -8   46.80   17.28
  -6  26  -8   26.03   18.16
  26 -20  -8   52.91   21.30
 -20  -6  -8   51.43   21.35
  26 -20  -8   72.13   19.72
  26 -20  -5    8.75   13.25
  -6  26  -5   44.19   16.03
  26 -20  -5   68.37   16.98
  26 -20  -5   54.64   17.30
 -20  -6  -5   29.00   15.79
 -20  -6  -5   31.38   12.93
  -6  26  -5   69.27   17.30
  -6  26  -5   67.86   17.02
  -6  26  -2  173.04   21.70
  -6  26  -2  207.66   22.21
  26 -20  -2  175.03   17.18
 -20  -6  -2  164.38   21.39
  26 -20  -2  144.88   21.39
 -20  -6  -2  176.80   21.30
  -6  26  -2  163.79   21.91
  26 -20  -2  133.94   20.54
  -6  26   1   76.09   17.26
  -6  26   1   42.44   16.93
  -6  26   1   74.01   14.73
  26 -20   1   45.96    4.84
  26 -20   1   30.19    4.50
 -20  -6   1   62.93   10.89
 -20  -6   1   84.24   17.99
  -6  26   4  116.07   18.31
  -6  26   4  104.33   10.37
  -6  26   7  -10.56   12.16
  -7  26  -9   -0.06   15.02
  -7  26  -9  -12.63   17.14
  26 -19  -9   58.56   21.54
  26 -19  -9   25.30   16.60
 -19  -7  -9   31.47   23.80
 -19  -7  -9    3.84   13.98
  26 -19  -9   22.31   16.07
  -7  26  -6  315.95   28.36
  -7  26  -6  313.13   30.69
  26 -19  -6  336.16   30.22
  26 -19  -6  342.63   30.58
 -19  -7  -6  327.63   33.09
 -19  -7  -6  259.49   24.98
  26 -19  -6  294.99   28.61
  -7  26  -6  287.55   26.56
  26 -19  -3   32.78   15.36
 -19  -7  -3   18.07   12.74
  -7  26  -3   40.79   15.38
  -7  26  -3   29.68   14.81
  26 -19  -3   13.59   10.42
  26 -19  -3   36.81   14.98
 -19  -7  -3   14.29   13.12
  -7  26  -3   10.36   12.44
  -7  26   0  333.34   27.59
  -7  26   0  335.04   25.16
  26 -19   0  280.55   15.71
  26 -19   0  275.36   15.09
 -19  -7   0  350.00   23.64
 -19  -7   0  336.95   27.54
  -7  26   0  313.38   28.63
  -7  26   3   41.61   17.06
  -7  26   3   54.39   11.07
 -19  -7   3   63.96    6.75
 -18  -8  -7   48.70   17.07
  -8  26  -7   50.42   17.58
  -8  26  -7   25.88   18.72
  26 -18  -7   38.10   17.36
  26 -18  -7   44.39   16.46
  -8  26  -7   16.00   13.53
  26 -18  -7    5.96   13.22
  -8  26  -4   39.89   15.74
  -8  26  -4   46.23   15.62
  26 -18  -4   55.35   14.47
  26 -18  -4   39.63   15.48
 -18  -8  -4   18.08   12.51
  -8  26  -4   51.69   15.82
  26 -18  -4   40.96   14.57
  -8  26  -1   71.10   16.93
  26 -18  -1   53.07   16.53
  -8  26  -1   99.86   16.96
  26 -18  -1   80.29   11.97
  26 -18  -1   71.04   17.03
 -18  -8  -1   59.06   13.90
 -18  -8  -1   90.35   17.05
 -18  -8   2   46.11   10.08
  -8  26   2   80.98   19.57
  -8  26   2   98.51   14.48
 -18  -8   2   77.36   10.03
  -8  26   8   24.76   13.40
  -9  26  -8   27.90   14.95
  -9  26  -8   -4.93   15.63
  26 -17  -8    8.76   15.54
  26 -17  -8    0.90   16.25
 -17  -9  -8   11.48   13.84
  -9  26  -8   22.97   14.72
  26 -17  -8   10.13   14.94
  -9  26  -5  109.12   19.19
  -9  26  -5  120.41   21.26
  26 -17  -5   69.04   16.20
  26 -17  -5   90.60   19.57
 -17  -9  -5  104.05   17.08
  -9  26  -5  110.12   18.08
  26 -17  -5   57.70   16.72
  26 -17  -2   69.55   17.58
  -9  26  -2  104.19   18.28
 -17  -9  -2   65.21   16.15
  26 -17  -2   60.24   12.22
  26 -17  -2   62.10   17.81
  -9  26  -2   77.92   17.07
  -9  26   1   17.59   16.22
  26 -17   1   23.32   13.38
  26 -17   1   20.74    5.59
  26 -17   1   24.51    6.44
 -17  -9   1   30.54   15.35
  26 -17   1   32.39   14.33
 -17  -9   1   30.46    9.98
  -9  26   4   50.22   20.12
  -9  26   4   34.29    9.06
 -10  26  -9   66.30   18.39
 -10  26  -9   45.73   19.97
  26 -16  -9   14.92   18.99
  26 -16  -9   51.76   18.31
 -16 -10  -9   63.14   19.15
 -10  26  -9   23.46   14.94
  26 -16  -9   56.68   19.03
 -10  26  -6  259.26   26.21
 -10  26  -6  312.96   31.13
  26 -16  -6  247.69   26.77
  26 -16  -6  250.74   26.97
 -16 -10  -6  235.57   25.31
  26 -16  -6  263.66   26.99
 -10  26  -6  269.99   25.93
 -10  26  -3  160.35   22.04
  26 -16  -3  133.40   20.85
 -16 -10  -3  116.99   18.76
 -10  26  -3   95.53   18.68
  26 -16  -3   87.75   18.27
  26 -16   0  384.03   18.61
  26 -16   0  478.06   31.49
 -16 -10   0  430.65   30.11
 -10  26   0  388.26   31.47
  26 -16   0  367.00   28.99
 -10  26   3   51.42   17.83
 -16 -10   3   20.36    5.03
 -11  26  -7   95.89   19.28
 -11  26  -7  123.42   23.29
  26 -15  -7   97.06   22.81
  26 -15  -7   87.34   19.19
  26 -15  -7  108.24   19.97
 -11  26  -7  104.77   19.14
 -15 -11  -7   96.83   18.95
 -15 -11  -4   23.59   13.39
 -11  26  -4   16.37   11.77
  26 -15  -4   22.58   14.11
 -15 -11  -1  166.04   20.25
  26 -15  -1  214.48   22.95
  26 -15  -1  160.99   21.52
 -11  26  -1  215.24   23.85
 -11  26   2   46.22   15.91
  26 -15   2   75.91   15.43
 -15 -11   2  110.28   12.05
  26 -15   2   55.34    6.63
 -15 -11   2   91.74   18.45
 -15 -11   2   48.55   10.03
 -11  26   5   88.94   21.65
 -12  26  -8   22.01   14.88
 -12  26  -8   36.72   18.73
  26 -14  -8   25.31   19.19
  26 -14  -8   18.48   16.42
 -14 -12  -8   29.45   15.36
  26 -14  -8   26.08   15.85
 -12  26  -8   20.32   14.39
 -14 -12  -5   89.10   16.56
 -12  26  -5   60.75   15.97
  26 -14  -5   37.25   15.19
 -12  26  -5   62.96   15.89
  26 -14  -5   59.70   15.62
  26 -14  -2   13.92   13.57
 -14 -12  -2   12.48   11.86
 -12  26  -2   -9.85   12.61
  26 -14  -2    2.89   12.25
 -12  26   1   71.72   18.46
 -14 -12   1   45.02   11.83
  26 -14   1   77.54   17.39
  26 -14   1   73.19   15.42
 -14 -12   1   57.81   15.04
  26 -14   1   44.74    8.46
 -12  26   4   49.78   16.96
 -13  26  -9   39.20   16.11
 -13  26  -9   -6.84   18.61
  26 -13  -9   45.89   21.62
  26 -13  -9   62.99   19.66
 -13 -13  -9   18.15   17.22
  26 -13  -9   38.41   16.90
 -13  26  -9   17.14   13.82
 -13  26  -6  273.66   29.06
 -13  26  -6  320.64   28.15
 -13 -13  -6  289.15   26.67
  26 -13  -6  276.04   27.83
  26 -13  -6  273.38   29.67
 -13  26  -6  243.92   25.00
 -13 -13  -3   40.12   14.82
  26 -13  -3   20.74   13.15
 -13  26  -3   40.54   14.64
  26 -13  -3   32.44   14.42
 -13 -13   0  175.06   21.96
  26 -13   0  239.91   23.23
  26 -13   0  162.79   14.50
  26 -13   0  159.33   21.64
 -13  26   0  234.01   24.81
 -13  26   3   -5.59   13.47
 -13 -13   3   26.63   16.14
  26 -13   3   29.80   11.89
 -13  26   6  281.15   31.30
 -14  26  -7   50.67   16.77
 -14  26  -7   37.64   18.30
  26 -12  -7   47.59   16.14
 -12 -14  -7   69.05   17.28
  26 -12  -7   51.80   18.14
 -14  26  -7   30.74   15.05
 -12 -14  -4   57.78   14.67
  26 -12  -4   56.76   15.91
  26 -12  -4   33.63   13.34
 -14  26  -4   66.96   16.48
  26 -12  -1   66.59   16.08
 -14  26  -1   45.04   14.31
 -12 -14  -1   25.30   12.06
  26 -12  -1   55.47   14.97
 -14  26   2   22.73   15.71
  26 -12   2  -17.29   13.29
 -12 -14   2    4.49   12.45
  26 -12   2    2.43    6.84
  26 -12   2    7.68   10.71
 -12 -14   2    4.33    7.94
 -14  26   5   95.96   22.75
 -15  26  -8   21.97   15.37
 -15  26  -8   49.71   19.48
  26 -11  -8   40.01   16.90
 -11 -15  -8   30.31   16.40
  26 -11  -8   58.53   18.42
 -15  26  -8   40.32   16.50
  26 -11  -5   57.25   17.12
  26 -11  -5   30.62   14.84
 -15  26  -5   47.42   15.95
 -11 -15  -5   48.25   15.64
 -15  26  -2   68.43   10.65
  26 -11  -2   87.55   17.57
 -11 -15  -2   81.99   15.66
 -15  26  -2  102.53   18.13
  26 -11  -2   97.26   16.73
  26 -11   1   96.26   11.99
  26 -11   1  158.49   19.75
 -11 -15   1  144.63   19.10
  26 -11   1  142.92   20.34
 -15  26   1  131.48   20.18
 -15  26   4   34.80   17.62
  26 -11   4   24.79   11.51
 -16  26  -9    9.78   14.61
  26 -10  -9   -2.76   15.97
 -10 -16  -9    4.40   14.74
  26 -10  -9   32.84   17.41
 -16  26  -9    4.34   14.25
 -10 -16  -6  245.36   25.32
  26 -10  -6  312.32   28.66
  26 -10  -6  266.44   27.47
 -16  26  -6  227.73   24.93
 -10 -16  -3    8.76   12.85
  26 -10  -3   12.32   14.07
  26 -10  -3   32.90   14.52
 -16  26  -3    9.10   12.65
 -10 -16   0  428.41   29.75
  26 -10   0  415.71   28.95
  26 -10   0  385.07   29.54
 -16  26   0  447.44   32.23
 -10 -16   3   87.48   17.84
  26 -10   3  110.96   16.32
 -16  26   3  100.11   20.11
  26 -10   3  130.62   19.74
 -16  26   6  200.93   29.41
  26  -9  -7   50.60   17.18
  -9 -17  -7   13.96   14.77
  26  -9  -7   47.06   16.77
 -17  26  -7   30.31   14.76
  26  -9  -4   40.47   15.59
  26  -9  -4   29.01   14.38
 -17  26  -4   49.54   14.94
  -9 -17  -4   38.11   14.04
 -17  26  -1   23.26    8.53
  26  -9  -1   24.12   13.42
  -9 -17  -1   16.64   11.23
 -17  26  -1   41.23   15.13
  26  -9  -1    1.57   12.71
  26  -9   2   98.51   17.97
  26  -9   2  102.70   16.51
  -9 -17   2  120.20   18.85
 -17  26   2  131.16   22.18
 -17  26   5   50.93   18.68
  26  -9   5   41.02   12.85
 -18  26  -8   37.96   14.35
  26  -8  -8   42.27   17.80
  -8 -18  -8   27.23   16.46
  26  -8  -8   50.16   18.17
 -18  26  -8   11.38   14.62
  26  -8  -5   62.18   16.68
  26  -8  -5   50.04   16.06
  -8 -18  -5   25.92   13.40
 -18  26  -5   78.55   17.52
  -8 -18  -2   68.18   14.38
  26  -8  -2   85.84   17.13
  26  -8  -2  104.53   18.73
 -18  26  -2   96.45   18.06
  26  -8   1   54.19   14.52
 -18  26   1   48.66   15.30
  26  -8   1   75.68   16.09
 -18  26   4   27.40   15.73
  26  -8   4   23.80   12.44
 -18  26   7   54.76   20.79
 -19  26  -9   38.95   17.29
  26  -7  -9   44.80   17.67
  -7 -19  -9   35.27   17.82
  26  -7  -9   12.48   18.56
 -19  26  -9   42.60   17.82
  -7 -19  -6  190.54   25.91
  26  -7  -6  189.92   24.12
  26  -7  -6  164.46   22.93
 -19  26  -6  223.14   25.84
  -7 -19  -3   78.35   16.83
  26  -7  -3   88.91   17.98
  26  -7  -3   78.07   16.62
 -19  26  -3   91.03   17.79
  -7 -19   0  230.23   24.36
  26  -7   0  221.76   22.66
  26  -7   0  172.59   21.27
 -19  26   0  179.62   23.45
  26  -7   3   57.10   15.44
  26  -7   3   51.98   14.20
  -7 -19   3   36.11   16.83
 -19  26   3    8.96   15.83
  26  -7   6  259.00   21.49
 -19  26   6  247.50   31.16
  26  -6  -7   62.90   19.20
  -6 -20  -7    9.58   14.40
  26  -6  -7   51.17   19.25
 -20  26  -7   11.53   15.81
  -6 -20  -4   96.33   18.36
  26  -6  -4   84.79   18.38
  26  -6  -4   67.17   17.39
 -20  26  -4   99.08   18.67
  26  -6  -1   18.07   12.78
  -6 -20  -1   28.72   12.64
  26  -6  -1   16.34   12.75
 -20  26  -1   12.28   12.36
  26  -6   2  227.04   22.47
  -6 -20   2  225.42   23.81
  26  -6   2  254.27   24.05
 -20  26   2  161.42   23.69
 -20  26   5   35.11   17.06
  26  -6   5    8.84   10.59
  26  -5  -8  105.83   22.00
  -5 -21  -8   41.19   16.26
  26  -5  -8   54.28   18.59
 -21  26  -8   55.11   17.67
  26  -5  -5   64.53   17.57
  26  -5  -5   62.36   17.99
  -5 -21  -5  103.60   19.93
 -21  26  -5   89.99   19.51
  -5 -21  -2   21.41   12.96
  26  -5  -2   14.19   13.51
  26  -5  -2   59.18   16.30
 -21  26  -2   41.04   16.43
  26  -5   1   50.50   14.62
  -5 -21   1   20.37   13.28
 -21  26   1   58.87   18.92
  26  -5   1   51.97   15.72
 -21  26   4   35.42   17.34
  26  -5   4   41.80   15.78
  26  -5   4   38.94   13.00
  -5 -21   4   11.39   15.65
 -21  26   7   35.33   20.11
  26  -4  -6   56.11   17.22
  -4 -22  -6   36.78   17.37
  26  -4  -6   90.48   20.94
 -22  26  -6   54.54   18.31
  -4 -22  -3   69.05   16.30
  26  -4  -3   76.15   17.89
  26  -4  -3   45.71   15.59
 -22  26  -3   77.99   16.96
  26  -4   0  160.79   20.63
  26  -4   0  149.88   21.20
 -22  26   0  149.25   21.22
  -4 -22   0  124.72   20.40
  26  -4   3   51.09   15.52
  -4 -22   3   50.42   16.88
  26  -4   3   42.56   13.37
 -22  26   3   37.17   17.82
 -22  26   6   30.55   19.81
  26  -4   6   49.69   13.45
  26  -3  -7   -9.29   14.50
  -3 -23  -7  -26.84   16.71
  26  -3  -7   17.63   17.19
 -23  26  -7   25.06   16.90
  26  -3  -4  176.79   23.13
  -3 -23  -4  172.10   22.59
  26  -3  -4  176.25   23.58
 -23  26  -4  211.64   24.53
  26  -3  -1   24.45   14.01
  -3 -23  -1   55.08   15.64
  26  -3  -1   17.65   12.90
 -23  26  -1    3.09   13.94
  26  -3   2  280.53   24.23
  -3 -23   2  265.34   26.32
  26  -3   2  264.06   25.63
 -23  26   2  288.73   29.04
 -23  26   5   19.56   16.14
  26  -3   5   13.79   11.42
 -23  26   8  125.53   27.89
  26  -2  -8   50.00   19.86
  -2 -24  -8   -7.01   17.99
  26  -2  -8   -4.40   17.70
 -24  26  -8   36.60   16.95
  26  -2  -5  131.42   22.51
  -2 -24  -5   79.75   19.76
  26  -2  -5  119.32   20.89
 -24  26  -5  142.98   22.66
  -2 -24  -2   18.51   13.26
  26  -2  -2   43.32   15.00
  26  -2  -2   13.77   12.40
 -24  26  -2   21.95   15.05
  26  -2   1   84.71   16.47
  -2 -24   1   78.35   18.29
  26  -2   1   89.00   17.08
 -24  26   1   92.48   19.50
  26  -2   4   38.17   16.07
  -2 -24   4    9.01   15.17
  26  -2   4   15.24   11.53
 -24  26   4   26.52   16.67
 -24  26   7   53.37   21.57
  26  -1  -6   -3.38   14.55
  -1 -25  -6  -15.85   16.23
  26  -1  -6   12.47   15.99
 -25  26  -6    0.50   13.43
  26  -1  -3   83.77   19.02
 -25  26  -3   54.18   16.79
  -1 -25  -3   62.01   16.31
  26  -1   0   32.21   13.73
  -1 -25   0   64.60   17.22
  26  -1   0   45.76   13.99
 -25  26   0   53.63   16.85
  26  -1   3   43.53   13.93
  -1 -25   3   38.92   15.46
 -25  26   3   30.50   16.35
  26  -1   3   50.35   15.47
 -25  26   6    2.34   17.55
  26  -1   6   25.72   11.62
  26   0  -7   22.81   16.36
   0 -26  -7   -3.25   16.49
  26   0  -7   -7.92   15.52
 -26  26  -7   12.65   15.76
  26   0  -4  354.70   31.21
   0 -26  -4  369.31   31.05
  26   0  -4  348.58   30.84
 -26  26  -4  287.97   29.24
  26   0  -1   19.68   15.01
   0 -26  -1   -4.39   13.82
  26   0  -1   -6.26   13.35
 -26  26  -1    2.21   12.79
  26   0   2  326.96   26.68
   0 -26   2  283.21   27.87
  26   0   2  275.49   26.22
 -26  26   2  281.72   30.63
 -26  26   5   17.52   18.22
  26   0   5    2.65   14.33
  26   0   5    9.27   11.51
  26   1  -5   94.10   20.27
  26   1  -5   57.14   19.77
   1 -27  -5   78.80   19.85
 -27  26  -5  100.99   21.25
   1 -27  -2   49.21   15.25
  26   1  -2   47.40   16.97
  26   1  -2   40.58   15.70
 -27  26  -2   16.88   15.56
   1 -27   1   76.92   17.78
  26   1   1   78.59   16.80
  26   1   1   68.64   15.91
 -27  26   1   81.66   18.62
  26   1   4   -2.40   13.76
  26   1   4    5.99   12.07
   1 -27   4   -9.40   15.54
 -27  26   4   11.38   15.66
 -27  26   7   33.07   21.84
  26   2  -6   16.26   18.39
   2 -28  -6    1.13   15.54
  26   2  -6   14.50   17.46
 -28  26  -6  -23.95   17.86
  26   2  -3  112.71   21.51
  26   2  -3   68.12   19.20
 -28  26  -3   77.74   18.98
   2 -28  -3   53.12   17.17
  26   2   0   43.50   15.51
   2 -28   0   42.67   15.03
  26   2   0   30.78   14.00
 -28  26   0    9.08   13.76
  26   2   3   53.22   15.00
   2 -28   3   72.77   19.87
 -28  26   3   32.66   16.46
  26   2   3   79.14   18.41
 -28  26   6   34.70   20.50
  26   2   6   28.44   12.60
  26   3  -4  161.85   24.66
   3 -29  -4  176.19   24.68
  26   3  -4  186.61   25.46
 -29  26  -4  164.54   25.59
  26   3  -1  -24.18   16.19
   3 -29  -1    9.27   13.14
  26   3  -1   19.82   14.61
 -29  26  -1   27.21   16.13
  26   3   2  215.52   24.73
   3 -29   2  173.68   23.43
  26   3   2  228.79   24.60
 -29  26   2  182.76   26.20
 -29  26   5    2.06   18.04
  26   3   5    4.60   14.30
  26   3   5   54.03   15.08
  26   4  -5   24.08   17.57
  26   4  -5   27.85   19.53
   4 -30  -5  -11.09   15.21
 -30  26  -5    8.27   14.71
   4 -30  -2   19.21   13.12
  26   4  -2   -6.62   15.21
  26   4  -2  -22.52   13.95
 -30  26  -2   22.14   15.93
   4 -30   1   62.98   16.58
  26   4   1   38.97   16.21
  26   4   1   71.84   16.33
 -30  26   1   48.05   16.97
  26   4   4   -8.37   12.76
   4 -30   4   11.53   17.23
 -30  26   4  -10.37   17.67
  26   4   4   42.23   16.20
  26   5  -3  -10.15   16.71
  26   5  -3   12.54   14.56
 -31  26  -3   42.04   18.56
   5 -31  -3   17.04   13.91
  26   5   0   12.72   14.29
   5 -31   0    9.46   13.57
  26   5   0   26.23   16.01
 -31  26   0   34.49   17.63
  26   5   3   92.47   17.93
   5 -31   3   79.56   19.89
 -31  26   3   46.96   19.55
  26   5   3   61.07   16.90
  26   6  -4  138.47   24.82
  26   6  -4   93.14   22.71
 -32  26  -4  103.93   22.90
   6 -32  -4  105.34   20.99
  26   6  -1   10.64   15.74
   6 -32  -1   40.81   16.33
  26   6  -1   38.17   17.40
 -32  26  -1   27.38   16.94
   6 -32   2   45.00   17.55
  26   6   2   93.77   19.93
  26   6   2   63.41   17.94
 -32  26   2   28.55   16.04
  26   6   5   -4.34   14.40
  26   6   5    2.62   13.38
 -32  26   5  -22.05   18.24
   7 -33  -2   -3.02   14.84
  26   7  -2    3.95   15.44
  26   7  -2   22.92   16.74
 -33  26  -2    3.46   17.81
  26   7   1    7.66   13.69
   7 -33   1   39.01   18.19
  26   7   1   12.24   14.39
 -33  26   1   23.83   15.95
  26   7   4   10.83   14.08
   7 -33   4   43.75   20.48
 -33  26   4   19.36   18.43
  26   7   4   43.27   17.74
  26   8  -3    4.15   17.23
  26   8  -3   -1.53   16.62
 -34  26  -3    6.49   17.93
   8 -34  -3   43.90   18.45
  26   8   0   54.66   19.42
  26   8   0   34.23   16.71
   8 -34   0   11.36   15.06
 -34  26   0   27.91   18.14
   8 -34   3   52.27   19.30
  26   8   3   88.72   19.49
  26   8   3   54.27   17.70
 -34  26   3   67.30   22.40
  26   9  -1   12.72   17.61
   9 -35  -1   -3.70   14.67
  26   9  -1   -4.85   14.98
 -35  26  -1    6.04   17.01
   9 -35   2   52.66   20.56
  26   9   2   73.28   18.99
  26   9   2   46.13   18.08
 -35  26   2   77.69   22.05
   8  27  -1   31.41   18.59
   8  27  -1   10.35   14.34
 -35   8  -1   25.64   17.48
   8  27   2   29.65   16.63
   7  27  -2   45.80   19.66
   7  27  -2   32.33   16.68
 -34   7  -2   38.77   17.46
   7  27   1   67.32   15.64
 -34   7   1   36.07   14.10
   6  27  -3   94.31   23.07
   6  27  -3   60.10   18.79
 -33   6  -3   59.24   20.92
   6  27   0    9.46   15.57
   6  27   0    4.82   13.42
 -33   6   0    0.51   13.20
   6  27   3   37.27   17.65
   5  27  -4   69.31   20.48
   5  27  -4   26.28   19.03
 -32   5  -4   14.30   17.33
  27 -32  -4   20.70   13.81
   5  27  -1    9.39   15.57
   5  27  -1    7.89   13.83
 -32   5  -1   16.83   13.97
   5  27   2   -2.59   16.11
   5  27   5   58.97   18.10
   4  27  -5  121.34   24.45
   4  27  -5   95.83   23.52
 -31   4  -5  104.42   24.34
  27 -31  -5   53.70   17.08
  27 -31  -2   25.53   10.53
   4  27  -2   39.67   17.43
   4  27  -2   49.91   16.35
 -31   4  -2   60.57   18.22
   4  27   1  128.85   22.21
   4  27   1   80.92   16.07
 -31   4   1  107.37   15.94
   4  27   4   50.23   17.69
   3  27  -6   65.02   21.75
   3  27  -6   27.23   18.69
 -30   3  -6   32.86   20.99
  27 -30  -6   28.04   16.50
   3  27  -3   15.91   15.88
   3  27  -3    5.06   14.29
 -30   3  -3   20.40   16.55
  27 -30  -3   19.96   11.66
   3  27   0   36.96   16.45
   3  27   0   26.36   13.53
 -30   3   0   32.51   12.83
   3  27   3    2.97   14.27
   3  27   6   25.36   15.83
 -29   2  -4   29.52   15.54
   2  27  -4   30.54   17.26
 -29   2  -4    4.31   14.54
  27 -29  -4    2.42   11.91
   2  27  -1   22.34   16.20
   2  27  -1   20.18   12.95
 -29   2  -1   31.52   13.81
   2  27   2   13.77   13.50
   2  27   2   -3.78    9.50
 -29   2   2    6.72    9.14
   2  27   5   29.78   15.07
   1  27  -5  211.46   28.00
   1  27  -5  141.71   25.09
  27 -28  -5  101.12   19.59
 -28   1  -5  179.27   25.90
 -28   1  -5  151.33   21.25
   1  27  -2   70.80   18.47
   1  27  -2   64.99   17.98
 -28   1  -2   42.06   16.88
 -28   1  -2   56.50   18.05
  27 -28  -2   41.85   10.91
   1  27   1  144.15   21.79
   1  27   1  130.92   17.96
 -28   1   1  135.71   16.99
   1  27   4   42.17   15.26
   0  27  -6   31.33   18.26
   0  27  -6   26.57   17.67
 -27   0  -6   32.14   18.33
 -27   0  -6   38.17   15.50
  27 -27  -6   20.15   15.56
 -27   0  -3   -7.99   14.10
   0  27  -3  -12.35   14.62
   0  27  -3    8.16   14.01
   0  27  -3   17.98   14.00
 -27   0  -3   -0.24   13.67
  27 -27  -3  -25.72   11.86
   0  27   0   85.94   18.88
   0  27   0  126.15   17.51
 -27   0   0   99.73   15.99
   0  27   3    9.25   14.89
   0  27   3   -6.67    8.11
   0  27   6   19.79   14.44
 -26  -1  -7   38.06   16.54
  -1  27  -7    7.96   15.27
  -1  27  -7   42.27   19.27
 -26  -1  -7   26.25   20.48
  27 -26  -7    1.79   15.33
  -1  27  -4   12.58   13.75
  -1  27  -4   14.37   15.14
 -26  -1  -4   19.78   14.41
  -1  27  -4   37.36   17.15
 -26  -1  -4   -4.72   14.47
  27 -26  -4   47.10   14.52
  -1  27  -1   71.44   18.22
  -1  27  -1   88.87   18.95
  -1  27  -1  118.62   18.76
 -26  -1  -1  106.15   19.40
 -26  -1  -1  115.52   17.97
  27 -26  -1   84.79   11.07
  -1  27   2   35.44   16.29
  -1  27   2   42.47   10.83
 -26  -1   2   27.94    9.01
  -1  27   5   50.84   15.92
  -2  27  -5  112.53   18.53
  -2  27  -5  101.24   20.98
  -2  27  -5  125.48   23.40
  27 -25  -5  136.19   21.53
 -25  -2  -5  123.24   20.33
 -25  -2  -5   80.77   20.58
  -2  27  -2  105.89   20.47
  -2  27  -2  144.74   21.68
  -2  27  -2  131.60   19.71
  27 -25  -2  158.68   16.10
 -25  -2  -2  128.20   19.90
 -25  -2  -2  138.38   22.47
  -2  27   1  276.78   27.40
  -2  27   1  225.91   20.30
 -25  -2   1  272.25   20.70
  -2  27   4   59.31   17.11
  -2  27   7  112.53   18.99
  -3  27  -6   28.67   14.98
  27 -24  -6   33.82   15.98
  -3  27  -6   49.97   18.47
  -3  27  -6   11.57   16.37
  27 -24  -6   57.92   17.74
 -24  -3  -6   41.62   18.13
 -24  -3  -6    8.13   13.68
 -24  -3  -3   15.18   12.69
  -3  27  -3  -17.08   13.03
  -3  27  -3   18.33   14.89
  -3  27  -3   52.17   17.14
  27 -24  -3   14.49   11.51
 -24  -3  -3   18.08   15.31
  -3  27   0  148.62   23.93
  -3  27   0  146.10   21.54
  -3  27   0  133.69   17.52
 -24  -3   0  153.42   22.94
 -24  -3   0  172.88   18.61
  27 -24   0  111.58    9.64
  -3  27   3   48.28   15.27
  -3  27   3   39.58    9.64
  -3  27   6   29.94   14.45
  27 -23  -7   40.38   17.54
  -4  27  -7   15.37   14.21
  -4  27  -7   33.96   18.99
  27 -23  -7   25.40   17.89
 -23  -4  -7   24.56   14.33
 -23  -4  -7   25.17   16.51
  -4  27  -4    4.17   12.65
  27 -23  -4   20.59   14.23
  -4  27  -4    1.70   13.59
  -4  27  -4   -0.50   15.91
 -23  -4  -4    0.43   12.77
  27 -23  -4    2.43   11.63
 -23  -4  -4   18.50   15.83
  -4  27  -1   66.64   17.95
  -4  27  -1   61.65   18.63
  -4  27  -1   97.62   17.72
 -23  -4  -1   66.00   16.97
  27 -23  -1   69.20   10.50
 -23  -4  -1   67.19   15.36
  -4  27   2   67.91   16.08
  -4  27   2   86.78   13.46
 -23  -4   2   58.68    9.87
  -4  27   5  100.48   18.17
  27 -22  -8   62.16   18.95
  -5  27  -8   84.63   20.18
  -5  27  -8   49.52   22.02
 -22  -5  -8   25.24   15.89
  27 -22  -8    6.94   17.52
 -22  -5  -8  112.95   27.62
  27 -22  -5   52.76   18.21
  -5  27  -5   57.40   17.31
  -5  27  -5   95.72   19.72
  27 -22  -5   50.43   16.52
 -22  -5  -5   69.04   18.70
 -22  -5  -5   50.77   15.35
  -5  27  -5   54.98   16.77
  27 -22  -2  168.15   22.58
  -5  27  -2  210.19   23.94
  -5  27  -2  236.71   24.71
  27 -22  -2  207.58   18.23
 -22  -5  -2  179.96   23.07
 -22  -5  -2  221.33   22.73
  -5  27  -2  227.41   25.02
  -5  27   1  212.92   26.58
  -5  27   1  235.12   25.03
  -5  27   1  215.55   19.77
 -22  -5   1  232.12   17.93
  -5  27   4   73.11   17.46
  -5  27   4   51.62    8.62
  -5  27   7  104.57   18.54
  27 -21  -6   80.88   20.52
  -6  27  -6  112.44   19.56
  -6  27  -6   44.56   18.14
  27 -21  -6   72.22   18.31
 -21  -6  -6   68.12   17.71
  27 -21  -6  108.75   20.91
 -21  -6  -6  111.31   23.30
  -6  27  -6   77.65   17.81
  -6  27  -3   81.57   18.51
  -6  27  -3   67.45   17.39
  27 -21  -3   47.65   12.95
  -6  27  -3   66.28   16.89
 -21  -6  -3   60.26   15.62
 -21  -6  -3   95.59   18.39
  27 -21  -3   99.31   20.13
  -6  27   0   38.76   16.44
  -6  27   0   95.53   17.88
  -6  27   0   69.15   14.79
  27 -21   0   84.58    9.30
 -21  -6   0   77.72   17.37
 -21  -6   0   92.76   14.85
  -6  27   3   78.13   21.05
  -6  27   3   87.17   12.36
 -21  -6   3   65.76    7.55
  -6  27   6   26.36   14.42
  -7  27  -7   43.72   17.61
  -7  27  -7    4.04   15.70
 -20  -7  -7   37.95   14.86
  27 -20  -7   57.86   20.87
  27 -20  -7   24.22   14.78
 -20  -7  -7    9.87   16.31
  -7  27  -7   39.78   16.64
  27 -20  -7   15.15   14.98
  27 -20  -4   45.25   17.61
  -7  27  -4   28.10   14.84
  -7  27  -4   35.70   16.01
  27 -20  -4   -0.79   11.82
  27 -20  -4   36.71   16.84
 -20  -7  -4   14.83   14.56
 -20  -7  -4   39.86   14.74
  -7  27  -4    5.14   12.51
  27 -20  -1   71.18   17.43
  -7  27  -1  112.27   20.09
  -7  27  -1  124.09   18.57
  27 -20  -1  107.39   12.99
 -20  -7  -1  131.26   17.61
 -20  -7  -1  118.12   19.99
  -7  27  -1  113.02   20.31
  -7  27   2   26.81   15.09
  -7  27   2   41.68   11.43
 -20  -7   2   30.29    8.00
  -7  27   5   96.19   18.62
  -7  27   8   26.91   13.71
 -19  -8  -8   11.07   20.72
  -8  27  -8   20.75   15.96
  -8  27  -8   15.08   17.12
  27 -19  -8   -0.30   18.36
  27 -19  -8   24.70   16.59
 -19  -8  -8    4.27   19.25
  -8  27  -8   13.10   13.67
  27 -19  -8   21.07   15.51
  -8  27  -5   50.19   16.97
  -8  27  -5   34.91   16.30
  27 -19  -5   84.91   17.68
 -19  -8  -5   68.98   16.79
  27 -19  -5   47.36   17.12
  -8  27  -5   34.90   15.33
  27 -19  -5   47.96   15.34
  27 -19  -2   83.44   18.72
  -8  27  -2   97.47   18.58
  -8  27  -2  136.99   20.42
  27 -19  -2  118.97   15.00
 -19  -8  -2  105.45   17.92
  27 -19  -2   82.50   17.46
 -19  -8  -2  114.14   18.52
  -8  27  -2   91.96   18.59
  -8  27   1   37.22   15.24
  -8  27   1   63.83   13.15
  27 -19   1   38.38    5.78
 -19  -8   1   45.69   10.96
  -8  27   4   78.84   21.06
  -8  27   4   70.66   10.43
  -8  27   7   75.61   16.75
  -9  27  -6  139.21   21.62
  -9  27  -6  135.89   24.24
  27 -18  -6  115.74   21.65
 -18  -9  -6   92.89   18.48
  27 -18  -6  131.77   22.46
  -9  27  -6  102.25   18.79
  27 -18  -6   61.97   18.58
  27 -18  -3   40.28   16.03
  -9  27  -3  103.54   19.35
  27 -18  -3  127.64   17.43
  -9  27  -3   84.17   16.86
  27 -18  -3  112.33   20.35
 -18  -9  -3  136.41   19.36
  -9  27  -3   76.66   18.16
  -9  27   0   93.19   18.19
  -9  27   0  121.96   17.91
  27 -18   0  118.44   12.25
  27 -18   0  114.94   19.36
 -18  -9   0   77.74   17.74
 -18  -9   0  112.38   15.65
  27 -18   0  125.60   20.15
  -9  27   3  223.07   17.74
 -18  -9   3  178.82    9.94
  -9  27   3  200.00   26.55
 -10  27  -7   53.81   17.32
 -10  27  -7   53.81   18.54
  27 -17  -7   22.89   17.26
  27 -17  -7   48.31   17.40
 -10  27  -7   56.96   17.43
  27 -17  -7   36.06   16.30
 -17 -10  -7   64.01   16.36
 -10  27  -4   13.34   14.31
 -10  27  -4   56.10   18.50
  27 -17  -4   36.70   13.73
  27 -17  -4   14.02   14.10
 -17 -10  -4   25.22   13.75
 -10  27  -4   22.89   14.64
  27 -17  -4    6.00   12.88
  27 -17  -1   94.23   19.21
  27 -17  -1   79.21   12.29
  27 -17  -1  115.02   20.22
 -17 -10  -1  100.34   17.86
 -10  27  -1   99.30   18.63
 -17 -10   2   39.69   17.22
 -10  27   2   56.25   17.80
 -17 -10   2   64.13   10.29
 -11  27  -8    6.36   15.16
 -11  27  -8   -3.04   17.03
  27 -16  -8   -6.05   16.33
  27 -16  -8   19.96   16.86
 -16 -11  -8    1.56   15.21
 -11  27  -8   -8.20   13.42
  27 -16  -8   36.26   17.18
 -11  27  -5   37.63   15.57
 -11  27  -5   20.19   16.21
  27 -16  -5    6.43   12.97
 -16 -11  -5    8.25   13.22
  27 -16  -5    7.61   13.27
 -11  27  -5   34.72   13.76
  27 -16  -5   21.20   14.66
 -16 -11  -2   77.19   16.87
  27 -16  -2   78.76   16.63
 -11  27  -2   79.21   17.79
  27 -16  -2   56.16   16.78
 -11  27   1   32.08   16.36
  27 -16   1   26.14   14.67
  27 -16   1    8.84   11.73
 -16 -11   1   24.05   13.91
 -11  27   4   43.38   18.91
 -12  27  -9   37.49   16.84
 -12  27  -9   30.99   18.82
  27 -15  -9   80.79   26.10
  27 -15  -9   84.49   21.99
 -15 -12  -9   32.47   17.88
  27 -15  -9   24.92   17.14
 -12  27  -9   27.74   15.49
 -15 -12  -6   89.35   17.78
 -12  27  -6  115.57   20.46
 -12  27  -6  123.63   23.36
  27 -15  -6   85.86   20.34
  27 -15  -6   97.73   20.17
 -12  27  -6  123.16   18.79
  27 -15  -6   97.43   18.81
  27 -15  -3  209.65   25.50
  27 -15  -3  197.62   23.92
 -15 -12  -3  247.77   24.87
 -12  27  -3  211.54   23.98
  27 -15   0   79.54   17.38
 -15 -12   0   71.25   15.68
  27 -15   0   68.54   16.57
 -12  27   0   83.19   18.68
  27 -15   3  369.68   27.16
 -15 -12   3  327.13   14.34
 -13  27  -7   16.22   13.64
 -13  27  -7    7.57   16.18
  27 -14  -7   20.67   16.22
  27 -14  -7   13.19   15.16
  27 -14  -7    3.10   15.25
 -14 -13  -7    5.59   13.84
 -13  27  -7    7.60   13.14
 -14 -13  -4   34.02   15.08
  27 -14  -4   69.20   17.21
 -13  27  -4   51.13   16.44
  27 -14  -4   30.67   14.33
 -14 -13  -1   25.99   14.33
  27 -14  -1   11.94   13.73
 -13  27  -1   46.73   17.09
  27 -14  -1   26.44   15.16
 -13  27   2   17.58   16.89
  27 -14   2   30.39   15.98
  27 -14   2    6.16   11.78
 -14 -13   2    1.58   13.69
 -13  27   5   26.13   18.08
 -14  27  -8   29.50   18.87
  27 -13  -8  -11.46   16.76
  27 -13  -8   -8.70   15.93
 -14  27  -8   31.73   16.00
 -13 -14  -8   37.13   16.91
  27 -13  -8   20.58   15.60
 -14  27  -8    8.68   13.81
 -13 -14  -5   22.26   13.17
  27 -13  -5   60.87   17.86
  27 -13  -5   54.75   15.99
 -14  27  -5   51.09   16.96
  27 -13  -2    6.72   13.32
 -13 -14  -2   -0.20   12.05
 -14  27  -2    4.04   11.58
  27 -13  -2  -14.01   13.69
  27 -13   1   24.11   13.70
 -13 -14   1   36.61   13.65
  27 -13   1   11.93   11.94
 -14  27   1   25.09   14.70
 -14  27   4    1.74   14.36
  27 -13   4    2.68   10.44
 -15  27  -9   41.95   17.01
 -15  27  -9   31.48   18.98
  27 -12  -9   78.60   24.00
  27 -12  -9   97.62   21.84
 -12 -15  -9   19.82   16.04
  27 -12  -9  110.73   23.30
 -15  27  -9   51.28   17.95
 -12 -15  -6  181.63   23.25
  27 -12  -6  153.51   21.96
  27 -12  -6  140.63   21.72
 -15  27  -6  160.62   23.01
  27 -12  -3  375.67   30.04
 -12 -15  -3  394.98   29.32
  27 -12  -3  321.43   27.91
 -15  27  -3  323.48   28.28
  27 -12   0   65.76   16.24
 -12 -15   0   44.17   16.00
 -15  27   0   30.21   14.32
  27 -12   0   41.43   15.40
  27 -12   3  371.73   26.87
 -12 -15   3  328.41   30.87
 -15  27   3  281.07   29.62
 -15  27   6   47.06   20.08
 -16  27  -7   15.71   15.53
  27 -11  -7   -3.29   14.87
 -11 -16  -7   33.68   16.03
  27 -11  -7    6.16   15.18
 -16  27  -7   -5.02   13.95
 -11 -16  -4   82.20   17.25
  27 -11  -4   91.58   18.89
  27 -11  -4  111.16   20.03
 -16  27  -4  102.14   18.46
  27 -11  -1   28.67   14.78
 -16  27  -1   45.00   16.54
 -11 -16  -1   46.33   15.10
  27 -11  -1   22.34   12.50
 -16  27   2   34.71   16.96
  27 -11   2   26.88   15.01
  27 -11   2   16.08   13.17
 -11 -16   2   30.66   13.94
 -16  27   5   11.02   16.66
  27 -11   5    7.85   12.08
 -17  27  -8   30.09   15.82
  27 -10  -8   19.50   16.57
 -10 -17  -8   49.43   18.56
  27 -10  -8   37.43   17.08
 -17  27  -8   74.36   19.21
  27 -10  -5   54.85   16.37
  27 -10  -5   44.28   17.00
 -17  27  -5   24.32   15.18
 -10 -17  -5   10.16   13.01
  27 -10  -2   57.01   16.71
 -10 -17  -2   30.72   14.42
 -17  27  -2   50.06   14.80
  27 -10  -2   16.17   13.76
  27 -10   1   68.25   15.44
 -10 -17   1   97.57   18.33
 -17  27   1   62.06   17.99
  27 -10   1   90.31   17.61
 -17  27   4   45.95   19.51
  27 -10   4   49.59   13.95
  -9 -18  -6  210.15   25.85
  27  -9  -6  227.84   27.17
  27  -9  -6  179.48   24.41
 -18  27  -6  195.10   23.68
  27  -9  -3  213.24   24.32
  -9 -18  -3  205.81   22.85
  27  -9  -3  202.52   23.67
 -18  27  -3  170.87   21.74
  -9 -18   0   75.14   17.01
  27  -9   0   78.37   17.35
 -18  27   0   91.27   19.46
  27  -9   0   93.14   18.09
 -18  27   3  109.56   21.31
  27  -9   3   85.41   15.75
  -9 -18   3   97.12   19.66
  27  -9   3  114.46   19.76
 -18  27   6   16.38   17.57
  27  -8  -7   68.81   18.63
  -8 -19  -7   47.98   18.89
  27  -8  -7   92.23   20.87
 -19  27  -7   58.36   18.35
  27  -8  -4   74.61   17.78
  27  -8  -4   80.08   19.99
 -19  27  -4   77.73   17.20
  -8 -19  -4   59.26   16.09
  27  -8  -1   71.74   17.10
  -8 -19  -1   75.30   17.15
  27  -8  -1   79.21   17.48
 -19  27  -1   77.39   17.24
  27  -8   2   73.41   17.42
  27  -8   2   59.29   15.47
  -8 -19   2   91.39   18.58
 -19  27   2  117.68   21.01
  27  -8   5  130.15   17.28
 -19  27   5  116.96   23.66
  27  -7  -8   -6.02   16.89
  -7 -20  -8    6.37   15.17
  27  -7  -8    5.03   15.02
 -20  27  -8   18.92   17.59
  27  -7  -5   80.67   18.56
  27  -7  -5   37.38   16.08
 -20  27  -5   97.75   19.92
  -7 -20  -5   85.55   18.53
  -7 -20  -2   43.96   14.15
  27  -7  -2   39.38   15.24
  27  -7  -2    4.18   12.53
 -20  27  -2   14.78   13.01
  -7 -20   1  128.19   20.18
  27  -7   1   84.78   16.64
  27  -7   1  133.26   21.57
 -20  27   1   99.54   19.55
 -20  27   4   24.20   16.67
  27  -7   4   33.12   15.36
  27  -7   4   41.36   13.80
 -20  27   7   47.88   21.43
  27  -6  -6   55.05   17.64
  -6 -21  -6   12.14   14.76
  27  -6  -6   24.89   17.32
 -21  27  -6   60.91   18.05
  -6 -21  -3   31.89   13.42
  27  -6  -3   95.49   18.77
  27  -6  -3   50.72   18.04
 -21  27  -3   86.13   18.54
  -6 -21   0   50.14   16.27
  27  -6   0   39.76   14.94
 -21  27   0   51.02   17.65
  27  -6   0   65.43   16.77
  27  -6   3   86.09   18.72
  -6 -21   3   62.77   17.15
  27  -6   3   79.43   15.75
 -21  27   3   45.44   18.31
 -21  27   6   45.49   20.18
  27  -6   6   45.86   13.28
  27  -5  -7  137.33   22.63
  -5 -22  -7   82.50   20.58
  27  -5  -7   96.72   21.82
 -22  27  -7   61.26   19.16
  27  -5  -4   76.03   19.04
  27  -5  -4   66.50   17.20
 -22  27  -4   48.25   17.05
  -5 -22  -4   59.66   17.23
  27  -5  -1  218.99   23.68
  27  -5  -1  210.73   23.80
 -22  27  -1  198.64   23.70
  -5 -22  -1  251.99   24.68
  27  -5   2  153.41   20.05
  -5 -22   2  126.55   21.00
  27  -5   2  151.89   22.25
 -22  27   2  124.24   22.21
 -22  27   5   92.76   22.51
  27  -5   5  117.00   17.91
  27  -4  -8  -16.15   15.09
  -4 -23  -8    8.01   16.72
  27  -4  -8   -4.63   16.35
 -23  27  -8   -6.61   16.26
  27  -4  -5   98.72   20.53
  27  -4  -5   83.14   19.05
  -4 -23  -5   85.10   18.20
 -23  27  -5   74.09   19.81
  -4 -23  -2   40.71   15.73
  27  -4  -2   40.88   14.96
  27  -4  -2   44.04   15.57
 -23  27  -2   29.01   17.10
  27  -4   1   77.62   16.71
  -4 -23   1   75.60   17.76
 -23  27   1   67.60   18.25
  27  -4   1   74.82   17.00
 -23  27   4   16.09   18.62
  27  -4   4   37.80   16.68
  27  -4   4    4.89   11.08
  -4 -23   4   40.02   17.76
 -23  27   7   15.71   22.41
  27  -3  -6   56.18   18.50
  -3 -24  -6   71.48   20.06
  27  -3  -6   78.35   22.01
 -24  27  -6   62.48   18.52
  -3 -24  -3    1.59   11.72
  27  -3  -3    4.77   13.61
  27  -3  -3    6.54   13.06
 -24  27  -3    0.97   13.65
  27  -3   0   80.99   17.20
  27  -3   0  113.48   19.37
 -24  27   0  105.14   20.03
  -3 -24   0  111.72   19.30
  27  -3   3   29.24   15.54
  -3 -24   3    5.00   15.39
  27  -3   3   24.88   13.48
 -24  27   3    4.29   16.15
 -24  27   6   45.73   20.85
  27  -3   6   33.19   12.65
  27  -2  -7  129.89   24.35
  -2 -25  -7   93.17   22.10
  27  -2  -7   86.81   22.17
 -25  27  -7  118.40   25.74
  27  -2  -4  101.47   20.83
  27  -2  -4   56.01   17.54
 -25  27  -4   31.02   17.05
  -2 -25  -4   70.93   17.99
  27  -2  -1  228.64   24.98
  27  -2  -1  166.80   22.06
  -2 -25  -1  173.02   22.40
 -25  27  -1  184.44   25.23
  -2 -25   2   66.54   18.11
  27  -2   2  119.29   19.45
 -25  27   2   73.46   19.39
  27  -2   2   83.39   18.37
  27  -2   5  134.72   18.30
 -25  27   5  167.75   26.50
  27  -2   5  172.20   23.16
  27  -1  -5   83.15   19.80
  27  -1  -5  105.93   21.82
  -1 -26  -5   66.47   19.48
 -26  27  -5   79.01   21.92
  -1 -26  -2   21.73   14.99
  27  -1  -2   48.02   15.74
  27  -1  -2   24.02   15.45
 -26  27  -2   14.97   13.86
  27  -1   1  111.72   18.76
  -1 -26   1   86.15   17.86
  27  -1   1   67.33   16.98
 -26  27   1   57.26   16.68
  27  -1   4   25.64   15.70
  27  -1   4   22.57   13.79
  -1 -26   4   37.68   17.27
 -26  27   4  -15.36   16.93
 -26  27   7   13.70   19.71
  27   0  -6   29.61   17.70
   0 -27  -6   32.49   18.38
  27   0  -6   11.49   15.11
 -27  27  -6   28.38   16.27
   0 -27  -3   24.37   14.96
  27   0  -3   17.26   16.88
  27   0  -3    5.42   15.59
 -27  27  -3   28.66   16.53
  27   0   0   92.97   17.70
  27   0   0   81.49   17.39
   0 -27   0  102.55   18.83
 -27  27   0  112.63   20.81
  27   0   3   15.47   11.97
   0 -27   3   -7.81   14.47
 -27  27   3    8.96   15.86
  27   0   3    1.32   13.41
 -27  27   6   47.15   20.98
  27   0   6   37.34   13.88
  27   1  -4  112.59   22.49
  27   1  -4   72.51   19.80
 -28  27  -4   85.00   20.78
   1 -28  -4   41.95   16.62
  27   1  -1  193.14   24.72
  27   1  -1  175.70   23.64
   1 -28  -1  149.35   22.08
 -28  27  -1  160.16   24.10
   1 -28   2   23.91   16.60
  27   1   2   33.63   15.39
 -28  27   2   31.31   17.63
  27   1   2   -3.06   13.50
 -28  27   5  115.35   24.65
  27   1   5  153.00   19.50
  27   1   5  157.35   23.74
  27   2  -5   26.62   17.90
  27   2  -5   44.14   18.03
   2 -29  -5   -9.12   16.04
 -29  27  -5    9.47   15.56
   2 -29  -2    8.77   12.88
  27   2  -2   38.43   16.40
  27   2  -2   29.73   16.52
 -29  27  -2   14.60   14.91
  27   2   1    8.39   12.68
   2 -29   1    6.40   15.34
  27   2   1   29.81   14.19
 -29  27   1   30.25   16.08
  27   2   4   25.58   15.14
  27   2   4   12.67   13.09
   2 -29   4   13.26   17.54
 -29  27   4   -8.49   18.58
  27   3  -6   23.27   17.89
   3 -30  -6    7.87   16.04
  27   3  -6   26.74   19.15
 -30  27  -6   24.88   17.38
   3 -30  -3   26.68   15.51
  27   3  -3   14.42   16.53
  27   3  -3   15.79   16.39
 -30  27  -3   18.26   16.53
  27   3   0   63.70   19.25
   3 -30   0   47.84   16.23
  27   3   0   34.17   16.42
 -30  27   0   21.48   15.54
  27   3   3   21.26   14.32
   3 -30   3  -14.17   15.37
 -30  27   3   21.83   17.03
  27   3   3   29.26   14.84
 -30  27   6   38.31   22.03
  27   4  -4  112.95   23.51
  27   4  -4   50.69   19.02
 -31  27  -4   92.24   22.30
   4 -31  -4   78.76   21.12
  27   4  -1   92.72   21.53
   4 -31  -1   61.85   17.63
  27   4  -1   63.55   17.88
 -31  27  -1  105.63   21.57
   4 -31   2   23.13   16.82
  27   4   2   49.27   17.22
  27   4   2   30.10   16.09
 -31  27   2   30.50   19.46
 -31  27   5   78.31   23.88
  27   4   5  107.13   21.71
  27   4   5   84.91   17.84
  27   5  -5   20.29   19.25
  27   5  -5   22.74   19.28
   5 -32  -5   27.39   18.39
 -32  27  -5   -1.49   18.40
   5 -32  -2    3.80   16.07
  27   5  -2   21.45   16.10
  27   5  -2   17.48   15.08
 -32  27  -2    9.68   16.51
  27   5   1   -6.86   14.37
   5 -32   1    3.95   13.90
  27   5   1   27.50   16.95
 -32  27   1   10.69   16.05
   5 -32   4   -0.70   16.09
  27   5   4   23.02   15.45
 -32  27   4   32.67   18.55
  27   5   4   34.57   16.01
   6 -33  -3   12.56   16.67
  27   6  -3   21.49   17.21
  27   6  -3   14.73   16.32
 -33  27  -3   22.33   16.99
  27   6   0   10.02   14.97
  27   6   0   52.95   18.13
   6 -33   0   24.92   17.30
 -33  27   0   29.49   16.88
   6 -33   3   59.71   20.53
  27   6   3   31.86   15.22
 -33  27   3   23.38   18.04
  27   6   3   46.49   17.03
  27   7  -1   27.00   18.19
   7 -34  -1   71.05   19.93
  27   7  -1   52.58   18.64
 -34  27  -1   69.22   20.51
   7 -34   2   21.61   18.34
  27   7   2   41.71   17.76
  27   7   2   50.29   17.24
 -34  27   2   34.28   18.89
   8 -35  -2   28.89   17.49
  27   8  -2   17.40   17.96
 -35  27  -2    2.54   17.90
  27   8   1   32.58   17.92
   8 -35   1   21.44   17.03
  27   8   1   30.29   16.67
 -35  27   1   41.15   19.56
   7  28   0   36.40   19.02
   7  28   0    5.12   13.39
 -35   7   0   13.79   13.86
   6  28  -1   23.62   18.00
   6  28  -1   24.86   15.93
 -34   6  -1   19.30   16.07
   6  28   2   34.16   17.50
   5  28  -2   34.94   19.92
   5  28  -2   56.80   18.62
 -33   5  -2   35.51   18.78
   5  28   1   53.52   19.53
   5  28   1   52.29   15.11
 -33   5   1   50.24   13.93
   4  28  -3   37.92   18.98
   4  28  -3   63.06   19.81
 -32   4  -3   50.89   18.35
   4  28   0   19.52   16.49
   4  28   0   14.81   13.93
 -32   4   0   44.16   14.95
   4  28   3    5.94   14.82
   3  28  -4   79.65   20.68
   3  28  -4   17.23   16.36
 -31   3  -4   10.83   18.70
 -31   3  -4   33.35   18.29
  28 -31  -4   22.18   13.62
   3  28  -1   27.60   17.78
   3  28  -1    4.34   13.91
 -31   3  -1   32.25   15.36
   3  28   2    6.11   14.65
   3  28   5   -3.15   14.13
   2  28  -5  108.55   23.42
   2  28  -5  109.71   23.42
 -30   2  -5  102.93   26.11
  28 -30  -5   79.56   19.79
 -30   2  -5  100.41   20.23
   2  28  -2   34.85   16.65
 -30   2  -2    1.80   14.21
   2  28   1   85.44   19.90
   2  28   1   84.31   15.14
 -30   2   1   69.96   14.56
   2  28   4   81.08   20.30
 -29   1  -6   12.10   15.44
   1  28  -6   29.56   18.25
   1  28  -6   42.25   19.32
 -29   1  -6    1.26   17.78
  28 -29  -6   38.35   17.53
   1  28  -3   44.16   18.42
   1  28  -3   61.15   17.97
 -29   1  -3   64.29   18.60
  28 -29  -3   33.34   12.65
 -29   1  -3   63.91   18.67
   1  28   0   13.17   16.08
   1  28   0   20.90   13.01
 -29   1   0    0.69   11.26
   1  28   3   92.79   19.81
   1  28   6    2.93   13.40
   0  28  -4   30.89   15.39
   0  28  -4   29.22   16.66
   0  28  -4   54.55   18.60
 -28   0  -4   29.96   17.86
 -28   0  -4   17.18   15.22
  28 -28  -4   41.81   13.90
   0  28  -1    9.50   15.68
   0  28  -1   13.72   13.10
 -28   0  -1  -11.18   13.36
   0  28   2   24.02   16.01
   0  28   2    2.61    9.47
 -28   0   2   11.56    9.26
   0  28   5   -3.21   13.78
  -1  28  -5  178.83   26.46
  -1  28  -5  193.02   26.73
  28 -27  -5  126.86   20.93
 -27  -1  -5  135.35   21.88
 -27  -1  -5  208.16   27.97
  -1  28  -2   27.73   14.71
  -1  28  -2   29.91   16.34
  -1  28  -2   24.17   14.61
 -27  -1  -2   12.97   14.46
  28 -27  -2   10.55    9.22
 -27  -1  -2    7.95   14.39
  -1  28   1  145.45   22.44
  -1  28   1  183.86   19.35
 -27  -1   1  161.55   17.44
  -1  28   4   63.44   17.85
  -2  28  -6   19.50   15.09
 -26  -2  -6    5.86   13.94
  -2  28  -6   38.85   18.15
  28 -26  -6   40.85   17.99
 -26  -2  -6    1.83   15.45
  -2  28  -3   82.71   19.54
  -2  28  -3   78.98   18.54
  -2  28  -3   91.59   19.75
 -26  -2  -3   61.00   16.58
 -26  -2  -3   76.58   19.73
  28 -26  -3   85.27   14.50
  -2  28   0   21.01   14.75
  -2  28   0   27.22   13.04
 -26  -2   0   24.45   11.82
  -2  28   3   94.58   20.24
  -2  28   3   89.42   12.29
  -2  28   6   -4.86   13.88
  28 -25  -7    6.38   16.64
  -3  28  -7   46.75   19.80
  -3  28  -7   14.75   18.03
  28 -25  -7    5.77   16.09
 -25  -3  -7    7.82   19.30
 -25  -3  -7    4.43   13.86
  -3  28  -4   62.00   17.17
  -3  28  -4   61.48   18.58
  -3  28  -4   65.75   19.51
  28 -25  -4   65.80   16.16
 -25  -3  -4   69.55   19.91
 -25  -3  -4   68.15   18.49
  -3  28  -1   53.94   18.04
  -3  28  -1   32.91   15.56
  -3  28  -1   53.48   15.55
 -25  -3  -1   29.91   13.27
  28 -25  -1   30.98    8.78
 -25  -3  -1   57.47   17.73
  -3  28   2   94.44   19.46
  -3  28   2  108.76   14.69
 -25  -3   2   90.05   11.90
  -3  28   5    7.21   13.68
  -4  28  -5  162.16   23.51
  -4  28  -5  173.38   26.37
 -24  -4  -5  111.68   19.62
  28 -24  -5  153.80   22.30
 -24  -4  -5  142.20   24.10
  -4  28  -5  130.75   21.96
  28 -24  -5  124.44   22.65
  -4  28  -2    5.88   14.27
  -4  28  -2   24.64   15.57
  -4  28  -2   36.04   15.95
 -24  -4  -2    2.67   13.54
  28 -24  -2    4.87    8.87
 -24  -4  -2   24.11   15.57
  -4  28   1  249.65   30.92
  -4  28   1  241.53   25.57
  -4  28   1  291.34   23.23
 -24  -4   1  223.36   18.46
  -4  28   4   66.83   17.22
  -4  28   7   66.00   17.15
  28 -23  -6    2.01   14.81
  -5  28  -6   31.52   16.49
  -5  28  -6   11.25   18.62
  28 -23  -6   11.31   14.36
 -23  -5  -6   35.16   17.72
 -23  -5  -6   14.23   14.06
  -5  28  -6   -1.63   14.08
  28 -23  -3  118.05   20.77
  -5  28  -3  188.07   24.04
  -5  28  -3  195.17   24.90
  28 -23  -3  127.76   18.00
 -23  -5  -3  141.11   20.53
 -23  -5  -3  182.25   23.78
  -5  28  -3  125.68   21.66
  -5  28   0    9.55   15.18
  -5  28   0   18.13   13.90
 -23  -5   0   -6.77   14.17
  -5  28   0    2.98   11.57
 -23  -5   0    4.31   10.07
  28 -23   0    3.87    5.39
  -5  28   3  124.32   20.36
  -5  28   3  109.26   13.16
  -5  28   6   53.92   15.79
  28 -22  -7   40.85   18.35
  -6  28  -7   27.72   16.68
  -6  28  -7   37.39   18.52
  28 -22  -7   52.54   19.63
 -22  -6  -7   68.20   19.62
 -22  -6  -7   76.51   23.07
  -6  28  -7   53.66   17.49
  -6  28  -4   39.98   17.46
  28 -22  -4   34.26   16.62
  -6  28  -4   66.33   18.58
 -22  -6  -4   48.21   16.56
  -6  28  -4   46.80   16.72
  28 -22  -4   40.50   14.31
 -22  -6  -4   78.82   20.27
  -6  28  -1   41.15   16.34
  -6  28  -1   98.22   18.88
  -6  28  -1   73.60   16.66
  28 -22  -1   51.59   10.17
 -22  -6  -1   65.60   14.75
 -22  -6  -1   65.33   17.17
  -6  28   2   87.27   22.77
  -6  28   2   42.97   14.68
  -6  28   2   75.32   13.87
 -22  -6   2   83.33   10.75
  -6  28   5   40.90   15.54
  -7  28  -8   -0.62   16.49
 -21  -7  -8  -16.19   15.26
  -7  28  -8   54.01   21.68
  28 -21  -8   18.26   17.80
 -21  -7  -8   44.61   20.61
  28 -21  -8   45.57   19.01
  28 -21  -5  111.59   20.58
  -7  28  -5  117.14   21.20
  -7  28  -5  142.44   23.64
  28 -21  -5  154.27   21.25
  28 -21  -5  139.62   23.57
 -21  -7  -5  148.99   23.79
 -21  -7  -5  106.05   18.76
  -7  28  -5  117.20   19.62
  -7  28  -2   15.51   14.99
  28 -21  -2   -3.76   14.32
  -7  28  -2  -14.58   14.31
  -7  28  -2    3.25   12.82
  28 -21  -2    2.54    9.06
 -21  -7  -2    3.96   12.55
 -21  -7  -2   15.40   14.30
  -7  28   1  158.28   21.72
  -7  28   1  115.99   16.66
 -21  -7   1   92.18   20.07
 -21  -7   1  156.90   16.05
  -7  28   1  129.69   24.08
  -7  28   4   11.87   13.06
  -7  28   4   20.27    8.24
  -7  28   7   62.58   17.16
  -8  28  -6   55.49   18.04
  -8  28  -6   75.65   20.40
  28 -20  -6   58.08   18.85
 -20  -8  -6   52.99   16.79
  28 -20  -6   29.63   15.69
 -20  -8  -6   50.21   19.98
  -8  28  -6   24.51   15.97
  28 -20  -6   64.91   19.40
  -8  28  -3  237.54   26.10
  -8  28  -3  248.10   26.29
 -20  -8  -3  293.08   27.08
  28 -20  -3  262.44   22.98
  28 -20  -3  229.05   25.78
 -20  -8  -3  280.04   27.17
  28 -20  -3  276.47   28.66
  -8  28  -3  231.10   25.83
  -8  28   0   69.71   17.99
  -8  28   0   57.66   16.40
  -8  28   0   74.76   15.49
  28 -20   0   63.52    9.65
 -20  -8   0   59.33   14.18
 -20  -8   0   42.76   15.92
  -8  28   3  105.99   22.52
  -8  28   3  116.84   14.52
  -8  28   6   77.81   18.44
  -9  28  -7  -10.90   16.69
 -19  -9  -7   23.97   15.57
  -9  28  -7    6.04   17.18
  28 -19  -7   16.37   15.84
  28 -19  -7   10.29   15.51
  -9  28  -7   23.96   14.81
  28 -19  -7   -0.50   15.11
  -9  28  -4   50.13   16.91
  -9  28  -4   79.10   18.05
  28 -19  -4   59.83   15.50
  28 -19  -4   79.90   19.32
 -19  -9  -4   63.84   15.90
  -9  28  -4   49.72   16.51
  28 -19  -4   63.52   18.02
  -9  28  -1   96.54   19.73
  28 -19  -1   35.01   14.82
  -9  28  -1  117.73   18.86
 -19  -9  -1   67.52   18.07
  28 -19  -1   71.69   11.90
  28 -19  -1   82.94   17.89
 -19  -9  -1   84.18   15.91
  -9  28   2   14.46   16.74
  -9  28   2   20.39   11.39
 -19  -9   2   31.48    8.59
  -9  28   8   65.40   17.23
 -10  28  -8   -8.90   15.23
 -10  28  -8   -0.47   16.23
  28 -18  -8   15.42   18.03
  28 -18  -8    1.84   15.93
 -10  28  -8   -8.06   14.23
  28 -18  -8   -0.45   14.75
 -18 -10  -8   14.18   15.27
 -10  28  -5   72.13   19.06
 -10  28  -5   71.36   18.58
  28 -18  -5   61.81   18.13
 -18 -10  -5   51.75   17.31
  28 -18  -5   99.43   20.55
 -10  28  -5   62.36   17.87
  28 -18  -5   72.32   18.25
  28 -18  -2  -10.47   13.32
 -10  28  -2   -3.69   13.17
  28 -18  -2    8.50   10.51
 -18 -10  -2   14.87   14.53
  28 -18  -2  -22.48   15.42
 -10  28  -2   13.19   13.55
 -10  28   1   65.46   18.02
 -10  28   1   62.55   14.52
  28 -18   1   46.15    7.32
 -18 -10   1   54.13   16.64
  28 -18   1   69.74   17.63
 -18 -10   1   50.07   10.93
 -10  28   4    7.81   17.32
 -10  28   4    2.48    8.05
 -11  28  -6   67.51   18.65
 -11  28  -6   66.36   19.61
 -17 -11  -6   33.42   16.30
  28 -17  -6   44.77   15.53
  28 -17  -6   54.33   19.01
 -11  28  -6   67.06   17.88
  28 -17  -6   68.72   20.27
  28 -17  -3  217.58   21.41
 -11  28  -3  222.57   25.71
  28 -17  -3  259.25   27.24
  28 -17  -3  216.37   25.32
 -11  28  -3  210.49   24.85
 -17 -11  -3  218.94   23.80
  28 -17   0  149.89   22.01
 -17 -11   0  122.90   20.39
 -11  28   0  117.60   22.70
  28 -17   0  120.46   20.64
 -17 -11   3  200.86   10.91
 -11  28   3  222.22   29.29
 -12  28  -7   12.64   14.84
 -12  28  -7   27.40   18.40
  28 -16  -7  -21.09   19.58
  28 -16  -7   -2.08   15.09
 -12  28  -7    7.59   15.65
  28 -16  -7   11.13   14.90
 -16 -12  -7    1.06   14.04
 -12  28  -4   38.74   14.62
 -12  28  -4   70.39   19.04
 -16 -12  -4   32.26   14.80
  28 -16  -4   40.83   17.22
 -12  28  -4   58.56   16.50
  28 -16  -4   43.57   16.10
  28 -16  -1  -17.75   13.80
  28 -16  -1   19.56   14.39
 -16 -12  -1    7.32   12.68
 -12  28  -1   12.27   15.99
 -12  28   2   -0.46   15.60
 -16 -12   2    1.76   13.33
  28 -16   2  -14.89   14.26
 -16 -12   2    4.95    7.84
 -12  28   5  -17.98   17.82
 -13  28  -8   19.96   16.14
 -13  28  -8   26.43   19.29
  28 -15  -8  -14.93   17.87
  28 -15  -8    0.47   15.09
 -15 -13  -8   28.91   16.78
 -13  28  -8   21.82   15.54
  28 -15  -8   -3.32   14.61
 -13  28  -5   20.96   13.28
 -13  28  -5   18.68   14.89
 -15 -13  -5    2.41   14.69
  28 -15  -5   41.41   16.87
 -13  28  -5   37.34   15.52
  28 -15  -5   15.38   15.18
  28 -15  -2   37.29   15.26
 -13  28  -2   22.91   14.76
 -15 -13  -2   18.84   13.98
  28 -15  -2   43.65   16.10
  28 -15   1   63.31   16.85
  28 -15   1   91.01   16.99
 -15 -13   1   92.98   19.91
 -13  28   1  106.11   22.29
 -13  28   4    7.75   18.18
 -14  28  -6   65.59   18.68
 -14  28  -6   20.96   17.23
  28 -14  -6   42.39   17.25
 -14  28  -6   56.11   16.47
  28 -14  -6   39.63   17.23
 -14 -14  -6   58.70   17.35
  28 -14  -3  258.61   26.24
  28 -14  -3  267.99   26.64
 -14 -14  -3  265.56   25.69
 -14  28  -3  240.76   26.61
  28 -14   0  128.05   20.54
  28 -14   0  137.35   21.12
 -14 -14   0   64.46   17.53
 -14  28   0   85.69   17.94
  28 -14   3  302.87   26.04
 -14 -14   3  240.06   14.05
 -14  28   3  245.92   30.09
 -14 -14   3  335.16   30.73
 -14  28   6   95.53   24.54
 -15  28  -7    9.89   15.07
 -15  28  -7    3.21   16.73
  28 -13  -7   34.47   17.09
  28 -13  -7   14.91   15.21
 -15  28  -7   26.50   14.97
 -13 -15  -7  -20.44   15.94
 -13 -15  -4   41.85   14.88
  28 -13  -4    7.38   13.95
 -15  28  -4   12.72   13.09
  28 -13  -4   41.85   16.25
 -13 -15  -1   47.51   15.30
  28 -13  -1   67.40   16.96
 -15  28  -1   58.33   16.75
  28 -13  -1   65.61   17.17
 -15  28   2    1.92   14.95
  28 -13   2   24.99   14.03
 -13 -15   2  -13.95   14.11
  28 -13   2   10.86   11.41
 -15  28   5    8.91   16.36
 -16  28  -8   37.79   17.20
 -16  28  -8   16.15   18.06
  28 -12  -8   -7.22   15.80
 -12 -16  -8   43.16   20.28
  28 -12  -8  -13.33   15.98
 -16  28  -8    6.15   13.85
 -12 -16  -5   12.33   13.68
  28 -12  -5   -4.79   14.58
  28 -12  -5   17.40   14.65
 -16  28  -5   -5.05   14.68
  28 -12  -2   12.30   13.89
 -12 -16  -2   20.23   12.75
 -16  28  -2   15.74   15.32
  28 -12  -2   41.50   15.37
  28 -12   1   23.22   14.52
 -12 -16   1   64.01   16.90
  28 -12   1   80.28   17.28
 -16  28   1   57.08   18.06
 -16  28   4   25.66   17.55
  28 -12   4   18.06   11.36
  28 -11  -6   21.60   16.08
  28 -11  -6    7.73   14.41
 -17  28  -6   12.70   14.91
 -11 -17  -6   14.21   13.64
  28 -11  -3  284.19   27.54
 -11 -17  -3  294.33   27.05
  28 -11  -3  245.06   26.75
 -17  28  -3  293.85   28.13
 -11 -17   0  163.49   22.38
  28 -11   0  184.86   21.50
  28 -11   0  147.09   21.68
  28 -11   3  112.44   17.99
 -11 -17   3  127.71   22.01
 -17  28   3  147.75   23.95
  28 -11   3  127.11   21.77
 -17  28   6  125.13   26.53
  28 -10  -7   67.14   19.19
 -10 -18  -7   26.43   15.40
  28 -10  -7   77.88   21.13
 -18  28  -7   16.97   15.73
 -10 -18  -4   22.69   14.21
  28 -10  -4   -6.44   13.16
  28 -10  -4  -11.31   13.51
 -18  28  -4   12.46   13.65
  28 -10  -1  137.14   20.59
 -18  28  -1  102.57   20.24
  28 -10  -1   73.25   16.96
 -10 -18  -1  138.30   20.50
  28 -10   2   19.15   13.76
  28 -10   2   11.57   12.29
 -10 -18   2   11.89   14.90
 -18  28   2   31.04   14.80
 -18  28   5   55.83   19.08
  28 -10   5   37.18   12.74
 -19  28  -8   36.99   17.14
  28  -9  -8   66.84   19.60
  -9 -19  -8   18.25   16.66
  28  -9  -8   43.52   18.61
 -19  28  -8   40.63   18.18
  28  -9  -5   10.79   14.07
  28  -9  -5  -29.06   15.62
 -19  28  -5    9.25   13.80
  -9 -19  -5    9.42   13.70
  28  -9  -2   28.85   15.03
  -9 -19  -2    6.80   13.22
  28  -9  -2   13.99   13.19
 -19  28  -2   18.75   12.73
  28  -9   1  125.29   18.82
  -9 -19   1  129.11   20.75
 -19  28   1  143.93   22.62
  28  -9   1   96.65   19.74
 -19  28   4   94.55   21.29
  28  -9   4   87.18   16.16
 -19  28   7    7.77   19.53
  28  -8  -6   -3.19   14.56
  28  -8  -6   37.74   17.50
  -8 -20  -6    3.42   13.73
 -20  28  -6    3.44   13.88
  -8 -20  -3   93.33   18.44
  28  -8  -3   97.44   18.85
  28  -8  -3  111.94   20.23
 -20  28  -3  122.14   20.36
  -8 -20   0   47.29   14.54
  28  -8   0   54.83   15.70
 -20  28   0   69.39   19.48
  28  -8   0   38.85   14.45
  -8 -20   3  128.86   22.55
  28  -8   3  188.79   21.09
 -20  28   3  148.74   23.31
  28  -8   3  123.78   21.65
 -20  28   6   56.81   22.33
  28  -8   6   97.11   16.71
  28  -7  -7  113.23   22.76
  -7 -21  -7  103.25   23.15
  28  -7  -7  100.93   21.66
 -21  28  -7   90.97   21.64
  -7 -21  -4   35.00   15.61
  28  -7  -4   33.10   16.72
  28  -7  -4   28.54   14.68
 -21  28  -4    3.06   15.60
  28  -7  -1  133.32   21.38
 -21  28  -1  120.91   22.02
  -7 -21  -1  107.78   19.20
  28  -7  -1   82.60   18.75
  28  -7   2    9.79   13.62
  -7 -21   2   10.73   14.48
  28  -7   2   37.50   14.56
 -21  28   2   33.67   16.89
 -21  28   5   59.70   22.98
  28  -7   5   92.38   16.33
  28  -6  -8   50.65   18.37
  -6 -22  -8   28.61   17.57
  28  -6  -8   33.00   19.92
 -22  28  -8   16.59   16.62
  28  -6  -5   -3.37   13.79
 -22  28  -5   -6.22   15.26
  -6 -22  -5  -14.02   15.53
  28  -6  -2   56.66   16.68
  -6 -22  -2   51.35   16.58
  28  -6  -2   60.94   16.75
 -22  28  -2   41.07   16.52
  28  -6   1   31.50   13.93
  -6 -22   1   33.16   16.73
 -22  28   1   12.97   14.36
  28  -6   1   26.89   15.26
 -22  28   4  101.99   22.94
  28  -6   4   82.14   19.29
  28  -6   4   74.87   15.76
  -6 -22   4  101.12   20.98
 -22  28   7   -9.81   18.63
  28  -5  -6   35.44   16.76
  -5 -23  -6   10.47   15.82
 -23  28  -6   19.58   14.89
  -5 -23  -3   57.16   15.99
  28  -5  -3   88.64   18.52
  28  -5  -3   62.13   18.59
 -23  28  -3   59.74   17.44
  -5 -23   0    8.85   13.51
  28  -5   0   14.58   13.02
  28  -5   0   12.87   12.87
 -23  28   0   14.72   13.10
  28  -5   3  103.78   20.07
  -5 -23   3  112.99   20.96
  28  -5   3   92.16   17.31
 -23  28   3   77.84   20.30
 -23  28   6   26.89   18.40
  28  -5   6   24.03   12.22
  28  -4  -7   74.36   20.93
  -4 -24  -7   85.20   21.64
  28  -4  -7  102.16   22.68
 -24  28  -7   98.75   23.77
  28  -4  -4   27.70   16.72
  28  -4  -4   46.95   16.83
 -24  28  -4   37.77   16.94
  -4 -24  -4   34.55   15.54
  28  -4  -1  278.01   26.58
  28  -4  -1  279.84   27.60
 -24  28  -1  294.38   29.49
  -4 -24  -1  238.85   26.17
  -4 -24   2   50.01   17.04
  28  -4   2   78.29   17.40
 -24  28   2   50.35   19.84
  28  -4   2   10.57   14.07
 -24  28   5  126.00   25.68
  28  -4   5  111.98   17.88
  28  -3  -5   41.31   17.82
  28  -3  -5   32.16   16.26
 -25  28  -5   32.21   16.33
  -3 -25  -5   23.07   15.04
  -3 -25  -2   99.40   18.30
  28  -3  -2   91.05   18.96
  28  -3  -2   86.91   19.45
 -25  28  -2   85.31   20.04
  28  -3   1   17.96   13.50
  -3 -25   1   29.52   14.66
 -25  28   1   34.19   16.88
  28  -3   1   57.93   17.19
 -25  28   4   33.57   19.09
  28  -3   4   63.78   18.17
  28  -3   4   59.64   15.34
  -3 -25   4   44.24   17.21
 -25  28   7    3.88   21.28
  28  -2  -6   71.22   19.67
  -2 -26  -6   18.45   17.34
  28  -2  -6   53.76   19.95
 -26  28  -6   15.59   17.36
  -2 -26  -3   82.79   18.67
  28  -2  -3   77.90   19.02
  28  -2  -3   96.95   20.96
 -26  28  -3   70.93   19.37
  28  -2   0    2.30   13.18
  28  -2   0   28.48   15.06
 -26  28   0   32.06   15.40
  -2 -26   0   43.20   15.80
  -2 -26   3   68.54   19.45
  28  -2   3   91.01   16.83
  28  -2   3  119.05   21.02
 -26  28   3  111.52   21.73
 -26  28   6   19.92   21.95
  28  -2   6   16.43   11.89
  28  -1  -4   45.71   18.14
  28  -1  -4   49.54   18.14
 -27  28  -4   17.25   16.76
  -1 -27  -4   35.78   16.42
  28  -1  -1  213.06   25.38
  28  -1  -1  168.42   23.23
 -27  28  -1  135.83   24.17
  -1 -27  -1  150.67   22.99
  -1 -27   2   34.83   18.02
  28  -1   2   54.25   16.83
 -27  28   2   62.78   19.94
  28  -1   2   36.30   15.37
  28  -1   5  161.95   20.42
  28  -1   5  169.86   24.44
  28   0  -5   -4.39   15.64
  28   0  -5   -1.00   15.49
 -28  28  -5    3.48   16.14
   0 -28  -5   21.16   16.43
   0 -28  -2   43.09   18.41
  28   0  -2   57.20   18.02
  28   0  -2   27.07   15.19
 -28  28  -2   65.89   21.10
  28   0   1   16.65   13.87
   0 -28   1   23.40   16.57
  28   0   1   -0.81   14.86
 -28  28   1   45.50   17.01
  28   0   4   13.72   15.85
   0 -28   4   -2.90   16.65
  28   0   4   31.81   13.94
  28   1  -6   11.00   17.84
  28   1  -6   48.01   19.65
   1 -29  -6   -0.02   17.84
 -29  28  -6   27.84   17.12
   1 -29  -3   43.72   17.34
  28   1  -3   54.37   18.81
  28   1  -3   54.09   18.96
 -29  28  -3   49.46   18.20
  28   1   0   46.43   16.46
  28   1   0   30.66   15.90
 -29  28   0   35.80   17.70
   1 -29   0    2.23   13.64
  28   1   3   43.14   16.44
 -29  28   3   43.32   18.93
   1 -29   3   34.54   18.63
  28   1   3   71.77   18.61
 -29  28   6   42.22   21.73
  28   2  -4   51.15   19.89
  28   2  -4    6.28   16.05
 -30  28  -4   27.74   17.83
   2 -30  -4   -6.01   16.01
  28   2  -1  107.95   20.79
   2 -30  -1   50.63   17.35
  28   2  -1   83.74   18.84
 -30  28  -1   92.23   20.89
   2 -30   2   62.03   18.88
  28   2   2   49.67   17.04
 -30  28   2   36.19   19.03
  28   2   2   41.43   16.52
 -30  28   5   45.41   23.46
  28   2   5   64.10   18.17
  28   2   5   75.52   18.12
  28   3  -5   -0.55   16.35
  28   3  -5   16.05   16.19
 -31  28  -5   12.39   18.21
   3 -31  -5   -9.28   15.98
   3 -31  -2    7.58   16.16
  28   3  -2  -11.54   15.10
  28   3  -2    1.77   15.29
 -31  28  -2  -11.76   15.89
  28   3   1   18.71   15.02
   3 -31   1   46.38   18.83
  28   3   1   24.70   14.83
 -31  28   1   39.46   19.12
  28   3   4   35.36   17.35
   3 -31   4  -16.30   18.42
  28   3   4   28.35   14.48
 -31  28   4   31.82   20.32
   4 -32  -3   26.37   16.30
  28   4  -3   21.76   17.91
 -32  28  -3   -1.80   17.23
  28   4   0   13.91   14.41
 -32  28   0   -0.27   15.77
   4 -32   0   15.18   15.92
   4 -32   3   10.35   17.14
  28   4   3   38.91   16.11
 -32  28   3   42.68   19.25
  28   4   3   16.20   16.16
  28   5  -1   83.65   21.17
   5 -33  -1   40.11   18.35
  28   5  -1   68.55   20.26
 -33  28  -1   32.99   18.13
   5 -33   2   39.62   19.28
  28   5   2   47.07   17.66
  28   5   2   22.70   15.69
 -33  28   2   11.62   16.25
   6 -34  -2   33.99   16.90
  28   6  -2    4.57   16.32
  28   6  -2   41.69   18.00
 -34  28  -2   29.82   19.00
  28   6   1   19.94   16.45
   6 -34   1   26.22   17.00
  28   6   1   17.11   16.67
 -34  28   1    9.39   17.68
  28   7   0   36.89   18.25
  28   7   0    0.81   15.26
 -35  28   0   31.61   17.74
   7 -35   0   33.83   17.04
   5  29   0   -6.22   16.70
   5  29   0   12.39   14.38
 -34   5   0   25.40   14.01
   4  29  -1   -6.87   15.61
   4  29  -1   -6.80   14.52
 -33   4  -1  -14.54   15.64
   4  29   2  -12.30   16.37
   3  29  -2  178.35   27.18
   3  29  -2  239.04   27.89
 -32   3  -2  171.64   24.54
   3  29   1  -16.05   15.57
   3  29   1    3.19   11.74
 -32   3   1   -4.89   11.27
   3  29   4  154.56   24.36
   2  29  -3   34.64   18.76
   2  29  -3   81.30   19.58
 -31   2  -3   60.68   20.01
   2  29   0    8.39   14.99
   2  29   0   15.08   14.13
 -31   2   0    9.33   12.91
   2  29   3    4.01   15.85
   1  29  -4   -1.26   15.48
   1  29  -4    1.61   16.57
 -30   1  -4   15.84   15.78
 -30   1  -4    3.87   15.79
  29 -30  -4  -25.65   14.18
   1  29  -1   31.60   17.53
   1  29  -1   54.65   16.94
 -30   1  -1   27.78   15.62
   1  29   2   31.94   16.76
   1  29   5   11.37   15.50
   0  29  -5   14.63   15.92
   0  29  -5   -2.13   17.66
 -29   0  -5   13.85   16.25
 -29   0  -5   36.16   19.96
  29 -29  -5  -23.55   14.75
 -29   0  -2   93.18   20.32
   0  29  -2  134.79   24.08
   0  29  -2  136.21   22.64
 -29   0  -2  131.94   22.46
   0  29   1   -0.19   14.34
   0  29   1    8.16   11.31
 -29   0   1   15.03   11.08
   0  29   4  210.87   26.28
  -1  29  -6    2.48   17.32
  -1  29  -6   15.68   19.04
 -28  -1  -6   19.50   17.86
  29 -28  -6   32.58   17.06
 -28  -1  -6  -17.74   16.20
  -1  29  -3   52.45   18.39
  -1  29  -3   95.56   21.43
 -28  -1  -3   55.95   18.76
  -1  29  -3   68.72   18.49
 -28  -1  -3   53.93   18.86
  29 -28  -3   42.01   13.69
  -1  29   0   38.93   17.41
  -1  29   0   39.57   14.72
 -28  -1   0   39.70   13.73
  -1  29   3   66.80   19.35
  -1  29   6    9.89   14.80
  -2  29  -4   35.04   16.68
  -2  29  -4   27.04   16.95
  -2  29  -4   13.99   15.02
 -27  -2  -4   15.42   14.85
 -27  -2  -4    8.57   15.44
  29 -27  -4   15.33   12.56
  -2  29  -1    0.70   17.10
  -2  29  -1   16.32   14.36
 -27  -2  -1   23.10   17.92
  -2  29  -1    7.37   12.27
 -27  -2  -1   31.83   13.64
  -2  29   2   -1.85   14.08
  -2  29   2   11.60   10.35
  -2  29   5   14.42   15.54
  -3  29  -5    7.06   14.26
  -3  29  -5   24.19   17.82
  -3  29  -5   25.94   17.91
  29 -26  -5   37.33   15.06
 -26  -3  -5    9.62   16.57
 -26  -3  -5   25.69   15.20
 -26  -3  -2  188.05   25.77
  -3  29  -2  196.86   25.66
  -3  29  -2  195.84   24.25
  29 -26  -2  183.26   17.44
 -26  -3  -2  247.14   25.83
  -3  29  -2  195.33   27.74
  -3  29   1   11.88   15.79
  -3  29   1   32.69   12.82
 -26  -3   1    6.47    9.92
  -3  29   4  166.34   24.00
 -25  -4  -6   61.25   17.67
  29 -25  -6   27.25   16.35
  -4  29  -6   16.78   16.10
  -4  29  -6   45.79   20.24
  29 -25  -6   12.24   17.02
 -25  -4  -6   40.35   19.21
  -4  29  -3   42.11   16.03
  -4  29  -3   62.05   17.40
  -4  29  -3   83.40   19.80
 -25  -4  -3   17.81   15.96
  29 -25  -3   47.30   12.73
 -25  -4  -3   99.66   19.70
  -4  29   0   33.77   18.37
  -4  29   0   90.47   19.72
  -4  29   0   81.79   17.52
 -25  -4   0   56.52   17.37
 -25  -4   0   64.67   14.87
  -4  29   3   11.57   14.02
  -4  29   3   14.70    9.21
  -4  29   6   31.48   16.16
  29 -24  -7  -20.90   17.14
  -5  29  -7   15.92   16.50
  -5  29  -7   10.28   16.93
  29 -24  -7   18.82   19.26
 -24  -5  -7   -4.77   18.37
 -24  -5  -7    2.07   15.59
  -5  29  -4   29.44   14.91
  29 -24  -4   81.41   21.26
  -5  29  -4   51.38   17.66
  -5  29  -4   39.86   17.85
  29 -24  -4   62.46   15.56
 -24  -5  -4   49.80   17.26
 -24  -5  -4   52.22   18.21
  -5  29  -1    9.94   14.81
  -5  29  -1   22.10   16.38
  -5  29  -1   19.71   13.83
 -24  -5  -1   20.24   14.68
 -24  -5  -1   14.96   12.20
  29 -24  -1   20.26    8.32
  -5  29   2   35.97   16.31
  -5  29   2   14.09   10.35
 -24  -5   2   10.29    7.87
  -5  29   5    5.03   13.80
  -6  29  -5   27.42   15.36
 -23  -6  -5   27.57   16.14
  29 -23  -5   46.19   18.55
  -6  29  -5   43.46   17.50
  -6  29  -5   44.01   18.49
  29 -23  -5   24.00   15.32
 -23  -6  -5   55.31   20.58
  -6  29  -2  237.62   26.73
  -6  29  -2  195.83   24.03
  29 -23  -2  214.07   18.60
 -23  -6  -2  235.21   24.89
 -23  -6  -2  192.12   24.51
  -6  29  -2  213.16   26.23
  -6  29   1   15.45   15.56
  -6  29   1   51.03   15.78
  -6  29   1   28.21   12.45
 -23  -6   1   27.03   10.40
  -6  29   4  136.25   21.86
  -6  29   7   28.23   15.11
  29 -22  -6   87.91   19.87
  -7  29  -6   86.31   20.77
  -7  29  -6  102.92   22.14
  29 -22  -6   57.18   18.50
 -22  -7  -6  133.72   25.32
 -22  -7  -6   78.31   19.63
  -7  29  -6   79.05   18.40
  -7  29  -3   49.05   16.99
  29 -22  -3   27.13   16.20
  -7  29  -3   14.72   14.35
  -7  29  -3   28.97   16.14
  29 -22  -3   27.73   12.57
 -22  -7  -3   24.52   14.13
 -22  -7  -3   -0.62   13.91
  -7  29   0  129.44   23.27
  -7  29   0  164.45   23.06
  -7  29   0  149.68   19.75
 -22  -7   0  134.23   22.67
  29 -22   0  111.34   10.35
 -22  -7   0  156.92   18.65
  -7  29   3   51.36   19.36
  -7  29   3   34.19   14.63
  -7  29   3   25.25   10.86
  -7  29   6  111.16   20.81
  -8  29  -7   -8.32   14.92
  -8  29  -7    2.48   16.04
  29 -21  -7   23.88   16.85
 -21  -8  -7    3.37   14.24
  29 -21  -7    4.56   17.03
 -21  -8  -7   11.54   18.96
  -8  29  -7   -2.06   14.48
  29 -21  -7  -26.93   17.42
  29 -21  -4  -11.73   15.43
 -21  -8  -4    5.11   13.89
  -8  29  -4   22.89   15.88
  -8  29  -4   24.01   15.55
  29 -21  -4   46.47   14.28
  29 -21  -4   48.68   17.64
 -21  -8  -4   32.02   14.95
  -8  29  -4   34.28   15.88
  -8  29  -1   22.07   15.18
  29 -21  -1   24.34   15.87
  -8  29  -1  -12.05   14.18
  -8  29  -1    9.34   12.80
  29 -21  -1    3.84    8.26
 -21  -8  -1    6.60   13.62
 -21  -8  -1   -4.49   11.87
  -8  29   2   70.99   21.45
  -8  29   2   96.08   19.39
  -8  29   2   88.07   14.43
 -21  -8   2   91.78   11.40
  -8  29   5    1.50   13.79
  -9  29  -5   72.06   19.02
  -9  29  -5   39.84   18.71
  29 -20  -5   49.77   16.81
  29 -20  -5   48.88   18.62
 -20  -9  -5   55.37   19.07
 -20  -9  -5   56.70   17.32
  -9  29  -5   71.39   17.81
  29 -20  -5   14.42   15.25
  -9  29  -2   91.32   18.91
  29 -20  -2   73.56   19.77
  -9  29  -2   85.27   18.39
  29 -20  -2   92.79   14.92
  -9  29  -2   67.18   16.81
  29 -20  -2   82.48   18.91
 -20  -9  -2   70.57   15.69
 -20  -9  -2   77.17   18.02
  -9  29   1   41.70   18.72
 -20  -9   1    4.85   14.72
  -9  29   1   25.66   12.76
 -20  -9   1   27.35   10.47
  -9  29   4  106.37   23.04
  -9  29   4  120.79   13.07
  -9  29   7   46.97   15.70
 -10  29  -6  237.15   27.70
 -10  29  -6  217.35   27.99
  29 -19  -6  282.60   29.09
  29 -19  -6  261.69   29.61
 -19 -10  -6  218.78   25.83
  29 -19  -6  194.70   25.10
 -10  29  -6  228.87   26.27
  29 -19  -3   29.60   16.73
 -10  29  -3   33.28   15.46
 -19 -10  -3   23.94   14.51
 -10  29  -3   35.80   15.71
  29 -19  -3   21.29   11.78
  29 -19  -3   36.82   17.40
 -10  29  -3    2.60   14.88
 -10  29   0  411.88   29.34
  29 -19   0  367.68   19.17
  29 -19   0  332.78   29.48
 -19 -10   0  397.28   26.85
 -19 -10   0  353.31   31.07
 -10  29   0  341.55   32.30
  29 -19   0  270.83   27.71
 -10  29   3    7.57   17.12
 -10  29   3   17.37   10.93
 -18 -11  -7  -11.60   14.27
 -11  29  -7   36.44   16.95
 -11  29  -7   32.08   20.64
  29 -18  -7  -12.29   16.08
  29 -18  -7   10.71   16.63
 -11  29  -7    0.85   14.54
  29 -18  -7   26.29   16.42
 -11  29  -4   22.51   13.35
 -11  29  -4   35.80   16.90
  29 -18  -4   31.24   13.96
  29 -18  -4   50.50   17.79
 -18 -11  -4   52.69   16.40
 -11  29  -4   30.94   15.19
  29 -18  -4   31.89   17.37
 -18 -11  -1   16.98   15.14
  29 -18  -1   43.55   16.81
 -11  29  -1   58.85   15.08
  29 -18  -1   26.93   10.77
  29 -18  -1   74.14   17.77
 -11  29  -1   29.63   16.94
 -11  29   2   12.76   15.56
 -18 -11   2   25.22    9.44
 -18 -11   2   38.48   16.41
 -12  29  -8   20.51   17.47
 -12  29  -8   -1.69   17.47
  29 -17  -8   -2.35   18.20
  29 -17  -8    3.12   16.01
 -12  29  -8   10.67   15.56
  29 -17  -8   17.50   17.31
 -17 -12  -8    3.74   15.50
 -12  29  -5   63.55   18.06
 -12  29  -5   79.53   19.65
  29 -17  -5   72.36   17.35
 -17 -12  -5   68.31   16.96
  29 -17  -5   44.70   17.07
 -12  29  -5   87.24   19.05
  29 -17  -5   17.39   15.05
  29 -17  -2   22.27   14.70
 -17 -12  -2   53.04   16.75
  29 -17  -2   28.10   14.62
 -12  29  -2   38.01   16.00
 -12  29   1  101.54   21.64
  29 -17   1  113.10   19.95
 -17 -12   1   99.28   19.79
  29 -17   1  113.91   19.74
 -17 -12   1  108.87   14.76
 -12  29   4   17.24   17.24
  29 -16  -6  296.49   30.80
 -13  29  -6  309.34   30.30
 -13  29  -6  341.98   33.40
  29 -16  -6  332.46   31.94
 -16 -13  -6  259.86   27.22
  29 -16  -6  297.05   30.00
 -13  29  -6  282.24   28.06
  29 -16  -3   64.10   17.96
 -16 -13  -3   50.39   15.22
 -13  29  -3   38.11   15.59
  29 -16  -3   29.88   15.07
  29 -16   0  303.27   27.50
 -16 -13   0  277.23   27.14
  29 -16   0  322.98   29.34
 -13  29   0  345.76   31.86
 -13  29   3   25.09   16.39
 -14  29  -7   38.26   16.32
 -14  29  -7   24.97   20.72
  29 -15  -7   25.62   18.96
  29 -15  -7   14.91   16.68
 -14  29  -7   28.08   16.79
  29 -15  -7   -6.79   16.59
 -15 -14  -7   21.42   15.83
 -15 -14  -4  -16.25   13.96
  29 -15  -4   -0.81   14.61
 -14  29  -4   13.73   12.75
  29 -15  -4    2.21   14.34
  29 -15  -1   30.18   15.84
  29 -15  -1    6.96   12.94
 -15 -14  -1   18.05   14.44
 -14  29  -1   13.95   15.67
 -14  29   2   24.92   18.26
  29 -15   2  -10.08   13.42
  29 -15   2    2.75   11.96
 -15 -14   2   -8.66   15.37
 -14  29   5   22.64   18.90
 -15  29  -8   -8.09   15.87
 -15  29  -8   23.52   20.00
  29 -14  -8   39.44   19.96
  29 -14  -8    7.19   16.10
  29 -14  -8   16.41   16.94
 -15  29  -8   19.08   15.96
 -14 -15  -8    8.30   16.45
 -14 -15  -5   66.20   18.23
  29 -14  -5   42.26   17.15
 -15  29  -5   29.86   16.45
  29 -14  -5   37.48   16.10
  29 -14  -2   31.27   15.49
 -14 -15  -2  -13.13   12.45
 -15  29  -2   13.97   14.53
  29 -14  -2   -4.72   13.69
 -15  29   1   39.02   17.06
  29 -14   1   31.46   15.06
  29 -14   1   63.90   16.88
 -14 -15   1   29.82   16.02
 -15  29   4   27.94   18.95
  29 -14   4    6.20   12.79
 -16  29  -6  234.30   27.77
  29 -13  -6  227.45   27.85
 -13 -16  -6  226.54   26.10
  29 -13  -6  262.26   28.54
 -16  29  -6  266.89   29.21
  29 -13  -3   12.82   13.45
 -13 -16  -3    7.70   15.10
 -16  29  -3  -17.95   15.24
  29 -13  -3  -22.27   15.71
 -13 -16   0  258.88   26.17
  29 -13   0  272.77   26.49
  29 -13   0  197.30   23.93
 -16  29   0  249.44   27.77
 -16  29   3   17.64   18.38
  29 -13   3   37.02   15.37
 -13 -16   3   35.94   15.95
 -16  29   6  236.48   32.05
 -17  29  -7   10.13   15.27
  29 -12  -7   -3.44   15.06
  29 -12  -7   10.12   15.55
 -17  29  -7   49.90   17.95
 -12 -17  -7   41.35   18.40
 -12 -17  -4    2.76   12.60
  29 -12  -4   37.83   16.48
  29 -12  -4   49.66   17.20
 -17  29  -4   39.36   16.14
 -12 -17  -1   69.24   17.28
  29 -12  -1   60.71   16.94
 -17  29  -1   42.27   17.20
  29 -12  -1   63.31   17.86
 -17  29   2   79.82   20.42
 -12 -17   2   61.05   18.76
  29 -12   2   52.40   15.84
  29 -12   2   92.48   20.98
 -17  29   5    9.50   16.81
 -18  29  -8   52.07   17.96
 -18  29  -8   30.26   19.44
  29 -11  -8   15.62   17.51
 -11 -18  -8   37.15   18.33
  29 -11  -8   43.30   19.32
 -18  29  -8   46.36   19.65
 -11 -18  -5   26.66   14.92
  29 -11  -5   16.29   15.18
  29 -11  -5  -18.72   16.84
 -18  29  -5   12.79   14.78
  29 -11  -2    3.09   14.26
 -11 -18  -2   -9.40   13.02
 -18  29  -2   24.17   14.79
  29 -11  -2   37.60   16.75
  29 -11   1   -2.25   13.53
 -11 -18   1    1.84   13.77
  29 -11   1    5.20   12.37
 -18  29   1   20.87   14.20
 -18  29   4   42.16   19.31
  29 -11   4   52.29   15.42
 -10 -19  -6  153.77   24.53
  29 -10  -6  117.34   24.52
  29 -10  -6  150.45   23.92
 -19  29  -6  163.45   23.96
 -10 -19  -3   32.16   15.29
  29 -10  -3   45.37   15.49
  29 -10  -3   55.75   19.07
 -19  29  -3   30.23   16.19
 -10 -19   0  317.34   28.78
  29 -10   0  338.74   28.52
  29 -10   0  352.96   30.28
 -19  29   0  320.15   31.44
 -19  29   3   72.42   21.40
  29 -10   3   56.59   17.70
  29 -10   3  111.42   18.40
 -10 -19   3   66.21   19.09
 -19  29   6  201.23   32.77
  29  -9  -7   74.86   20.34
  29  -9  -7   26.34   16.20
  -9 -20  -7   26.81   16.79
 -20  29  -7   47.55   17.55
  29  -9  -4  130.69   22.10
  -9 -20  -4  144.68   21.57
  29  -9  -4  161.66   23.56
 -20  29  -4  174.99   24.29
  29  -9  -1   20.56   14.18
 -20  29  -1    5.25   15.28
  29  -9  -1   35.63   15.60
  -9 -20  -1   28.90   14.94
  29  -9   2  104.79   18.71
  -9 -20   2  154.76   24.50
  29  -9   2  153.13   22.31
 -20  29   2  160.65   25.17
 -20  29   5   55.18   21.83
  29  -9   5   25.66   13.08
  29  -8  -5    4.10   14.05
  29  -8  -5   20.08   16.30
 -21  29  -5    5.46   14.05
  -8 -21  -5    1.32   13.84
  29  -8  -2   89.17   18.99
  -8 -21  -2   92.93   19.30
  29  -8  -2   43.75   15.28
 -21  29  -2   41.75   16.75
  -8 -21   1    2.31   14.69
  29  -8   1   21.18   12.35
 -21  29   1   25.85   15.62
  29  -8   1    2.47   13.56
 -21  29   4   12.35   17.15
  29  -8   4   17.28   16.13
  29  -8   4   25.17   13.52
 -21  29   7   25.79   20.92
  29  -7  -6   90.35   20.55
  29  -7  -6   63.58   19.83
 -22  29  -6   72.53   20.36
  -7 -22  -6   98.54   22.21
  -7 -22  -3   34.98   15.53
  29  -7  -3   50.54   17.97
  29  -7  -3   64.09   17.82
 -22  29  -3   45.81   15.87
  -7 -22   0  118.30   20.65
  29  -7   0  164.56   21.76
  29  -7   0  145.38   21.77
 -22  29   0  135.53   22.97
  29  -7   3   35.95   16.57
  29  -7   3   11.98   12.68
  -7 -22   3    3.67   16.08
 -22  29   3   14.49   15.21
 -22  29   6   61.41   22.25
  29  -7   6   69.04   15.45
  29  -6  -7   18.53   15.99
  -6 -23  -7   68.12   20.55
  29  -6  -7   25.06   17.94
 -23  29  -7    0.63   15.87
  29  -6  -4  195.24   25.05
  -6 -23  -4  158.60   22.66
  29  -6  -4  174.73   24.25
 -23  29  -4  170.39   25.12
  29  -6  -1   35.84   14.63
  -6 -23  -1    5.54   13.18
  29  -6  -1   40.67   16.15
 -23  29  -1   46.74   16.93
  29  -6   2  296.81   26.62
  -6 -23   2  226.63   26.32
  29  -6   2  222.28   25.30
 -23  29   2  252.88   30.07
 -23  29   5   18.55   19.85
  29  -6   5    3.46   11.89
  29  -5  -5   24.31   16.52
  29  -5  -5   -5.66   15.08
 -24  29  -5   38.11   16.45
  -5 -24  -5  -13.90   16.19
  29  -5  -2   10.50   13.71
  -5 -24  -2   38.27   15.06
  29  -5  -2   36.86   15.35
 -24  29  -2   40.07   16.96
  29  -5   1   -6.25   12.44
  -5 -24   1   -2.59   14.08
 -24  29   1   22.40   16.08
  29  -5   1    0.43   13.85
 -24  29   4   31.89   18.90
  29  -5   4   22.55   15.68
  29  -5   4   38.47   14.17
  -5 -24   4   33.61   17.94
 -24  29   7   15.54   20.90
  29  -4  -6   55.05   20.23
  29  -4  -6   18.10   15.94
  -4 -25  -6   36.98   17.83
 -25  29  -6    7.25   15.19
  -4 -25  -3   43.54   16.97
  29  -4  -3   82.45   19.76
  29  -4  -3   52.71   18.50
 -25  29  -3   32.90   17.98
  -4 -25   0   54.49   17.47
  29  -4   0   43.83   15.96
  29  -4   0   35.56   14.54
 -25  29   0   26.01   18.14
  29  -4   3   52.83   17.21
  -4 -25   3   39.89   19.12
  29  -4   3   53.82   16.12
 -25  29   3   42.96   18.09
 -25  29   6    3.45   19.16
  29  -4   6   23.18   14.61
  29  -3  -4  129.06   23.28
  -3 -26  -4  156.25   23.77
  29  -3  -4  128.49   22.40
 -26  29  -4  145.15   24.03
  29  -3  -1   -4.23   13.64
  -3 -26  -1   -3.88   13.00
  29  -3  -1    9.09   13.22
 -26  29  -1   30.54   16.19
  29  -3   2  245.53   25.53
  -3 -26   2  177.41   25.71
  29  -3   2  256.59   27.57
 -26  29   2  246.82   30.10
 -26  29   5   19.42   18.61
  29  -3   5   10.41   12.11
  29  -2  -5   25.19   16.56
  29  -2  -5   -7.55   16.65
 -27  29  -5  -34.22   17.92
  -2 -27  -5   14.34   15.15
  29  -2  -2   -1.22   14.46
  -2 -27  -2   -2.28   13.76
  29  -2  -2   13.62   15.22
 -27  29  -2   17.62   14.99
  29  -2   1   12.05   13.67
  -2 -27   1   -4.98   14.39
  29  -2   1   -8.45   14.04
 -27  29   1   19.26   17.36
  29  -2   4   25.22   15.69
  29  -2   4   -7.74   13.28
  -2 -27   4   21.13   17.60
 -27  29   4   26.69   17.73
  29  -1  -6   -0.17   16.96
  29  -1  -6   16.05   18.15
  -1 -28  -6   13.11   17.11
 -28  29  -6    9.45   16.30
  -1 -28  -3  100.45   20.90
  29  -1  -3   93.26   21.05
  29  -1  -3   68.31   21.07
 -28  29  -3   98.50   21.88
  -1 -28   0   11.70   15.47
  29  -1   0    4.76   13.90
  29  -1   0   24.31   15.59
 -28  29   0   29.49   18.73
  -1 -28   3   45.68   18.64
  29  -1   3   38.01   15.60
 -28  29   3   35.79   18.31
  29  -1   3   18.18   17.37
 -28  29   6   -0.80   20.76
  29   0  -4  209.82   28.82
   0 -29  -4  183.18   25.77
  29   0  -4  142.18   25.66
  29   0  -1   -9.52   14.93
   0 -29  -1   -9.20   13.59
  29   0  -1  -15.80   14.64
 -29  29  -1   27.74   16.17
   0 -29   2   42.04   17.09
  29   0   2  104.80   20.07
 -29  29   2   89.60   22.84
  29   0   2   98.88   20.23
 -29  29   5   22.91   20.04
  29   0   5   -9.65   16.49
  29   0   5    8.44   13.22
  29   1  -5    0.60   16.98
  29   1  -5   27.21   18.07
 -30  29  -5   25.64   18.52
   1 -30  -5    8.74   19.06
   1 -30  -2   33.95   16.49
  29   1  -2    0.09   14.96
  29   1  -2   -8.15   14.76
 -30  29  -2   -6.22   14.90
  29   1   1   32.02   16.42
   1 -30   1   40.45   18.41
  29   1   1   29.50   15.11
 -30  29   1   42.20   18.54
  29   1   4   17.83   17.43
   1 -30   4   31.33   18.60
  29   1   4   21.79   16.11
 -30  29   4   -8.20   16.34
   2 -31  -3   52.60   17.72
  29   2  -3    4.05   15.43
  29   2  -3   14.18   18.33
 -31  29  -3   23.99   17.40
   2 -31   0   18.34   16.33
  29   2   0   10.77   14.29
  29   2   0   11.26   14.76
 -31  29   0    5.92   17.42
   2 -31   3    2.33   16.35
  29   2   3   46.37   16.82
 -31  29   3   13.38   18.06
  29   2   3   44.77   18.07
  29   3  -4  144.99   25.77
  29   3  -4  145.70   25.97
 -32  29  -4  117.62   24.75
   3 -32  -4  100.35   22.93
  29   3  -1   11.68   15.32
   3 -32  -1    3.89   14.84
  29   3  -1    2.46   17.21
 -32  29  -1    0.10   17.19
   3 -32   2   84.69   21.18
  29   3   2  131.92   22.35
 -32  29   2  130.51   25.32
  29   3   2   63.95   19.43
  29   4  -2    9.43   17.00
   4 -33  -2  -18.18   15.45
  29   4  -2  -12.92   15.61
 -33  29  -2   30.11   18.43
  29   4   1  -20.16   15.24
   4 -33   1   -5.91   16.51
  29   4   1   14.60   16.50
 -33  29   1  -12.61   16.94
   5 -34   0   49.95   20.52
  29   5   0   14.93   17.00
  29   5   0   40.61   17.48
 -34  29   0   40.05   20.02
   3  30   0   17.27   18.92
   3  30   0   14.68   14.20
 -33   3   0   -6.61   13.87
   2  30  -1   -5.93   15.72
   2  30  -1   -7.24   14.78
 -32   2  -1   12.32   14.24
   2  30   2   11.06   16.10
   1  30  -2   64.37   20.71
   1  30  -2   44.92   17.94
 -31   1  -2   71.08   20.19
   1  30   1  100.59   20.89
   1  30   1  109.18   18.03
   1  30   4   48.47   19.16
   0  30  -3    5.87   15.32
 -30   0  -3   37.81   19.36
   0  30  -3   -2.01   15.39
 -30   0  -3   -7.16   15.42
   0  30   0    8.29   16.05
   0  30   0   52.59   16.63
 -30   0   0   19.23   12.74
   0  30   3   -8.13   16.35
  -1  30  -4   18.33   15.63
  -1  30  -4   14.79   16.49
  -1  30  -4   14.78   15.91
 -29  -1  -4   17.37   16.52
  30 -29  -4  -14.18   12.92
 -29  -1  -4   15.73   16.74
  -1  30  -1   43.14   19.54
  -1  30  -1   18.70   14.07
 -29  -1  -1   61.02   16.90
  -1  30   2  -18.53   16.68
  -1  30   5   24.65   16.74
  -2  30  -5   60.01   21.51
 -28  -2  -5   66.20   21.21
  -2  30  -5   36.48   20.15
 -28  -2  -5   92.93   24.34
  30 -28  -5   73.99   19.40
  -2  30  -2   41.89   18.23
 -28  -2  -2   35.89   16.61
  -2  30  -2   45.63   18.46
  -2  30  -2   93.82   20.72
 -28  -2  -2   59.24   17.19
  -2  30   1  101.82   21.53
  -2  30   1   78.06   15.28
 -28  -2   1   84.17   14.43
  -2  30   4   37.55   16.08
  -3  30  -6   46.52   20.04
  -3  30  -6   27.45   19.99
 -27  -3  -6   34.00   21.06
  30 -27  -6   36.20   17.61
 -27  -3  -6   36.52   16.57
  -3  30  -3   18.60   16.72
  -3  30  -3   22.70   15.50
  -3  30  -3   -5.62   16.69
 -27  -3  -3   13.12   14.95
  30 -27  -3   19.49   12.03
 -27  -3  -3   18.98   15.66
  -3  30   0   50.91   17.93
  -3  30   0   23.37   13.82
 -27  -3   0   38.86   13.92
  -3  30   3   21.03   17.13
  -3  30   6   11.38   14.66
  -4  30  -4   12.45   15.86
 -26  -4  -4   15.73   16.74
  -4  30  -4   -7.06   15.18
  -4  30  -4   28.59   16.63
  30 -26  -4   33.72   14.43
 -26  -4  -4  -11.54   17.12
  -4  30  -1   79.27   21.83
  -4  30  -1   97.25   22.89
 -26  -4  -1   35.05   17.08
  -4  30  -1   80.67   18.20
 -26  -4  -1   62.21   16.42
  -4  30   2   -8.71   14.55
  -4  30   2   14.84   10.54
  -4  30   5    8.56   14.46
  30 -25  -5   68.20   20.46
  -5  30  -5  137.22   23.93
 -25  -5  -5  143.97   23.98
  -5  30  -5  103.91   23.92
  30 -25  -5  115.56   20.72
 -25  -5  -5  143.41   25.79
  -5  30  -5  112.69   22.56
  -5  30  -2  100.25   22.92
  -5  30  -2   87.45   19.78
  -5  30  -2   90.24   18.86
  30 -25  -2   86.12   13.93
 -25  -5  -2  106.02   20.48
 -25  -5  -2   63.45   18.92
  -5  30   1   45.33   18.43
  -5  30   1   88.26   19.41
  -5  30   1   63.83   14.40
 -25  -5   1   90.67   14.68
  -5  30   4   36.86   17.79
  -6  30  -6   12.11   15.97
  30 -24  -6   10.16   16.03
  -6  30  -6   22.81   16.68
  -6  30  -6   11.97   17.52
  30 -24  -6  -10.50   15.46
 -24  -6  -6    8.54   16.27
 -24  -6  -6   35.01   18.33
  -6  30  -3   31.82   17.36
  30 -24  -3   61.80   19.86
 -24  -6  -3   -6.98   15.16
  -6  30  -3   88.42   19.82
  -6  30  -3   44.69   16.77
  30 -24  -3   48.30   14.00
 -24  -6  -3   45.45   17.13
  -6  30   0   61.96   22.16
  -6  30   0   64.33   18.31
  -6  30   0   84.96   17.21
 -24  -6   0   61.43   20.87
 -24  -6   0   76.07   15.57
  -6  30   3   38.27   17.21
  -6  30   3   68.14   12.13
  -6  30   6   74.69   19.61
  30 -23  -7    6.95   15.97
  -7  30  -7   23.69   15.57
  -7  30  -7   -0.85   17.58
  30 -23  -7   29.56   19.12
 -23  -7  -7   -6.64   17.43
 -23  -7  -7   23.27   15.66
  -7  30  -4    6.95   15.47
  30 -23  -4   14.79   15.53
  -7  30  -4   -0.26   14.48
  -7  30  -4    0.74   14.79
 -23  -7  -4   12.36   13.82
  30 -23  -4   24.46   14.60
 -23  -7  -4   16.96   16.79
  -7  30  -1   44.96   18.41
  -7  30  -1   45.63   18.60
  -7  30  -1   50.40   17.04
  30 -23  -1   18.78    8.33
 -23  -7  -1   34.02   13.45
 -23  -7  -1   41.18   18.30
  -7  30   2   31.39   19.21
  -7  30   2   15.02   15.31
  -7  30   2    4.19   10.19
 -23  -7   2   14.52    7.83
  -7  30   5    6.40   15.29
  30 -22  -5   41.87   17.17
  -8  30  -5   56.42   18.52
  -8  30  -5   73.63   20.38
  30 -22  -5   91.32   20.19
  30 -22  -5   73.72   21.02
 -22  -8  -5   41.46   18.33
 -22  -8  -5   82.76   19.29
  -8  30  -5   33.64   17.56
  -8  30  -2   75.80   20.21
  30 -22  -2   71.40   20.39
  -8  30  -2  100.24   21.22
 -22  -8  -2   83.27   18.54
  -8  30  -2   80.03   17.92
  30 -22  -2   73.37   13.58
 -22  -8  -2  110.86   19.05
  -8  30   1  108.80   24.21
  -8  30   1  118.73   21.68
  -8  30   1  150.98   19.45
 -22  -8   1  143.81   15.89
 -22  -8   1  144.90   24.09
  -8  30   4   32.62   16.61
  -8  30   7   16.70   15.11
  -9  30  -6   13.12   15.51
  -9  30  -6   38.72   20.40
  30 -21  -6   50.57   20.08
  30 -21  -6   56.11   19.81
 -21  -9  -6   83.07   22.82
 -21  -9  -6   16.78   14.51
  -9  30  -6   21.22   16.91
  30 -21  -6   36.99   17.56
  -9  30  -3  155.83   24.28
  -9  30  -3  157.51   23.62
  30 -21  -3  156.94   19.89
 -21  -9  -3  119.77   21.80
  30 -21  -3  164.56   25.58
 -21  -9  -3  163.01   23.90
  30 -21  -3  163.75   24.58
  -9  30  -3  113.42   22.37
  -9  30   0   39.38   18.08
  -9  30   0   52.48   17.61
  -9  30   0   79.79   17.39
 -21  -9   0   56.59   17.26
  30 -21   0   49.36    9.36
 -21  -9   0   90.40   15.53
  -9  30   3  139.66   25.93
  -9  30   3  203.54   18.30
  -9  30   6   49.45   16.52
 -10  30  -7   14.29   17.16
 -10  30  -7   29.43   19.56
  30 -20  -7    6.34   15.44
 -20 -10  -7   17.62   14.39
  30 -20  -7   50.60   19.10
 -20 -10  -7    7.75   18.87
 -10  30  -7    6.07   15.78
  30 -20  -7   20.92   17.28
  30 -20  -4   34.66   17.15
 -10  30  -4   29.55   15.73
 -10  30  -4   21.22   16.61
  30 -20  -4    2.82   12.61
  30 -20  -4   21.91   16.42
 -20 -10  -4   24.43   14.58
 -10  30  -4   31.32   17.37
 -10  30  -1   39.99   18.59
  30 -20  -1   15.70   13.99
 -10  30  -1   30.71   16.61
 -10  30  -1   35.96   15.50
 -20 -10  -1   24.87   15.12
  30 -20  -1   23.67    9.71
  30 -20  -1   20.41   16.32
 -20 -10  -1    4.15   13.04
 -10  30   2   25.55   17.57
 -10  30   2   16.57   11.23
 -20 -10   2   42.77    9.60
 -11  30  -5   -9.05   14.87
 -11  30  -5   20.18   16.83
  30 -19  -5    3.16   14.07
  30 -19  -5   34.52   18.58
 -19 -11  -5    0.55   14.20
 -11  30  -5   30.19   16.33
  30 -19  -5   -8.46   15.39
  30 -19  -2   25.85   16.12
 -11  30  -2   36.22   15.92
 -11  30  -2   48.10   16.45
  30 -19  -2   55.99   13.91
  30 -19  -2   49.49   18.49
 -19 -11  -2   36.51   16.86
 -11  30  -2   34.07   17.70
 -11  30   1   14.32   15.96
 -11  30   1   23.47   13.05
  30 -19   1   -4.16   14.12
 -19 -11   1   16.90    9.82
 -19 -11   1   23.05   15.43
 -11  30   4  108.12   24.88
 -11  30   4   34.60   10.59
 -12  30  -6  105.82   22.50
 -12  30  -6  116.24   23.80
  30 -18  -6   82.53   20.46
 -18 -12  -6   99.57   20.92
  30 -18  -6   52.00   18.38
 -12  30  -6   41.90   16.91
  30 -18  -6   66.81   21.24
 -18 -12  -3  222.21   25.66
 -12  30  -3  238.17   27.77
  30 -18  -3  249.40   23.65
 -12  30  -3  254.67   28.09
  30 -18  -3  182.51   25.11
  30 -18  -3  213.64   26.05
 -12  30  -3  218.16   26.69
 -12  30   0   79.77   18.84
  30 -18   0   90.95   19.91
  30 -18   0   83.77   12.32
 -18 -12   0   84.33   18.88
  30 -18   0   98.50   19.31
 -12  30   3  249.40   30.59
 -17 -13  -7   -4.29   16.49
 -13  30  -7    7.45   14.52
 -13  30  -7   60.66   23.42
  30 -17  -7   42.59   20.35
  30 -17  -7   12.73   15.95
 -13  30  -7   20.10   16.05
  30 -17  -7  -17.14   15.79
 -13  30  -4  -13.59   15.64
 -13  30  -4   24.20   16.94
  30 -17  -4   20.75   13.95
  30 -17  -4   34.58   17.70
 -17 -13  -4   -9.42   13.97
 -13  30  -4   39.30   17.04
  30 -17  -4   21.20   15.60
  30 -17  -1   39.44   16.36
  30 -17  -1   23.99   14.80
 -17 -13  -1   41.36   15.76
 -13  30  -1  -14.27   15.40
 -13  30   2   19.68   16.18
 -17 -13   2   15.45   15.85
  30 -17   2   -2.20   12.95
 -17 -13   2   -9.19    8.47
 -13  30   5   11.44   20.20
 -14  30  -5   10.18   14.38
 -14  30  -5   -3.85   16.23
 -16 -14  -5    9.55   14.67
  30 -16  -5   -1.84   15.73
 -14  30  -5  -14.23   14.13
  30 -16  -5   -1.99   14.42
 -16 -14  -2  -12.06   14.86
  30 -16  -2   -2.67   13.86
 -14  30  -2   28.08   14.04
  30 -16  -2   10.93   14.02
 -14  30   1  -10.54   15.22
  30 -16   1   14.05   16.25
  30 -16   1   -0.39   13.79
 -16 -14   1   17.83   15.71
 -14  30   4   15.74   17.94
 -15  30  -6  131.39   25.83
 -15  30  -6  119.06   22.48
 -15 -15  -6   92.97   20.26
  30 -15  -6  133.02   24.41
 -15  30  -6   77.64   20.29
  30 -15  -6   89.91   20.98
  30 -15  -3  173.95   23.74
  30 -15  -3  204.09   25.84
 -15  30  -3  195.32   25.47
 -15 -15  -3  190.39   25.41
  30 -15   0   41.48   17.61
 -15 -15   0   30.33   16.85
  30 -15   0    6.02   14.52
 -15  30   0   32.08   17.49
  30 -15   3  265.05   26.21
 -15  30   3  224.02   29.96
 -15  30   6   23.45   19.66
 -16  30  -7   25.70   16.83
 -16  30  -7    9.83   18.14
  30 -14  -7   58.59   20.72
  30 -14  -7    4.36   15.37
 -16  30  -7   55.48   19.51
 -14 -16  -7   23.45   16.22
 -14 -16  -4    7.29   13.13
  30 -14  -4   37.71   19.66
 -16  30  -4    1.55   15.56
  30 -14  -4  -15.91   17.63
 -14 -16  -1   -2.43   13.24
  30 -14  -1   15.86   14.12
 -16  30  -1   16.97   15.26
  30 -14  -1    9.01   13.53
 -16  30   2    0.65   15.45
  30 -14   2    4.11   14.52
 -14 -16   2  -10.55   16.22
  30 -14   2   18.94   14.34
 -16  30   5   15.90   19.27
 -13 -17  -5   24.36   16.30
  30 -13  -5    9.95   16.38
  30 -13  -5   44.35   17.60
 -17  30  -5   20.41   16.57
  30 -13  -2    1.98   13.50
 -13 -17  -2   27.60   16.05
 -17  30  -2   -9.22   13.71
  30 -13  -2   -4.04   13.37
  30 -13   1   19.05   15.15
 -13 -17   1  -19.08   15.77
  30 -13   1   18.18   14.79
 -17  30   1   12.44   14.94
 -17  30   4   -9.03   17.01
  30 -13   4   10.92   13.28
 -12 -18  -6   44.93   17.60
  30 -12  -6   70.86   20.41
  30 -12  -6   55.64   18.67
 -18  30  -6   63.26   19.61
  30 -12  -3  219.22   25.36
  30 -12  -3  179.13   24.54
 -12 -18  -3  186.82   24.21
 -18  30  -3  184.30   24.56
  30 -12   0   66.46   17.09
 -12 -18   0   81.85   18.14
 -18  30   0   88.43   20.24
  30 -12   0   39.27   16.85
  30 -12   3  193.51   25.07
  30 -12   3  156.86   21.38
 -12 -18   3  174.60   25.21
 -18  30   3  160.20   25.88
 -18  30   6   20.97   19.88
 -19  30  -7   40.14   17.97
  30 -11  -7   36.20   18.78
  30 -11  -7   25.75   17.88
 -19  30  -7   32.22   17.37
 -11 -19  -7   44.04   18.02
 -11 -19  -4   76.68   19.21
  30 -11  -4  109.42   21.34
  30 -11  -4  112.69   21.30
 -19  30  -4   64.12   18.12
 -11 -19  -1   27.18   15.10
  30 -11  -1   47.46   16.14
 -19  30  -1   27.02   17.66
  30 -11  -1   29.57   16.50
  30 -11   2   37.95   16.92
  30 -11   2   23.76   14.09
 -11 -19   2   21.07   15.63
 -19  30   2   -1.61   15.66
 -19  30   5    9.34   19.05
  30 -11   5   23.49   13.68
 -10 -20  -5  -13.69   15.06
  30 -10  -5    5.17   15.43
  30 -10  -5  -14.09   16.59
 -20  30  -5    6.85   14.48
 -10 -20  -2   -0.18   13.02
 -20  30  -2   14.29   15.00
  30 -10  -2   15.45   14.51
  30 -10   1   39.72   15.44
 -10 -20   1    9.58   13.38
  30 -10   1   37.97   15.88
 -20  30   4   25.37   17.77
  30 -10   4   -6.67   12.26
 -20  30   7   38.96   23.15
  30  -9  -6  105.08   22.07
 -21  30  -6  108.51   22.30
  30  -9  -6  111.08   22.57
  -9 -21  -6   93.91   21.60
  30  -9  -3  219.03   27.31
  -9 -21  -3  138.99   21.89
  30  -9  -3  153.54   23.76
 -21  30  -3  189.31   25.96
  30  -9   0   46.51   16.64
  -9 -21   0   76.37   19.20
 -21  30   0   47.94   18.13
  30  -9   0   93.14   20.19
  -9 -21   3  159.13   25.56
  30  -9   3  222.00   23.40
 -21  30   3  231.76   30.48
  30  -9   3  204.63   25.52
 -21  30   6   22.34   20.47
  30  -9   6   23.33   13.18
  30  -8  -7   64.13   20.71
  30  -8  -7   18.82   16.46
  -8 -22  -7   67.08   21.52
 -22  30  -7   48.09   19.61
  -8 -22  -4   59.30   17.80
  30  -8  -4   87.75   19.76
  30  -8  -4   65.92   18.79
 -22  30  -4   48.09   21.32
  30  -8  -1  118.05   20.76
 -22  30  -1  140.74   22.81
  30  -8  -1  114.62   21.26
  -8 -22  -1  136.97   21.99
  30  -8   2   44.70   17.31
  30  -8   2   45.36   15.68
  -8 -22   2   69.73   19.04
 -22  30   2   27.84   16.51
 -22  30   5  102.93   25.95
  30  -8   5   80.96   17.60
  30  -7  -5   25.46   17.42
  30  -7  -5  -23.97   16.20
 -23  30  -5    6.22   14.08
  -7 -23  -5   22.35   15.64
  30  -7  -2   32.22   17.42
  -7 -23  -2   34.73   16.17
  30  -7  -2   19.82   14.88
 -23  30  -2   16.64   15.07
  -7 -23   1  -17.99   16.02
  30  -7   1   29.19   14.64
 -23  30   1   11.23   14.88
  30  -7   1   24.05   16.11
 -23  30   4   13.94   18.36
  30  -7   4   19.69   16.02
  30  -7   4    8.47   11.89
 -23  30   7    3.17   19.98
  30  -6  -6   95.13   22.08
  30  -6  -6   32.63   18.14
 -24  30  -6   57.47   19.36
  -6 -24  -6   35.47   18.97
  -6 -24  -3   16.52   14.78
  30  -6  -3   57.79   18.86
 -24  30  -3   25.35   15.92
  -6 -24   0   36.70   18.20
  30  -6   0   73.77   17.94
 -24  30   0   32.40   17.05
  30  -6   0   72.50   19.14
  30  -6   3   33.85   15.73
  30  -6   3   56.77   16.43
  -6 -24   3   46.03   18.30
 -24  30   3   67.98   21.30
 -24  30   6   16.04   20.22
  30  -6   6   23.18   13.19
  -5 -25  -4   33.71   17.16
  30  -5  -4   32.52   16.93
  30  -5  -4   39.40   16.80
 -25  30  -4   38.04   19.66
  30  -5  -1  122.54   21.49
  30  -5  -1  104.65   22.02
  -5 -25  -1  124.50   22.03
 -25  30  -1   81.92   21.95
  -5 -25   2   61.41   18.90
  30  -5   2   61.58   17.44
 -25  30   2   47.86   18.76
  30  -5   2   56.44   17.73
 -25  30   5  125.42   29.28
  30  -5   5  189.23   22.54
  30  -4  -5  -18.02   15.76
  30  -4  -5   -4.29   15.96
 -26  30  -5   -5.12   17.28
  -4 -26  -5   -1.42   16.25
  30  -4  -2   27.97   15.20
  -4 -26  -2   12.12   15.44
  30  -4  -2   16.72   15.59
 -26  30  -2  -21.56   17.56
  30  -4   1   47.09   15.71
  -4 -26   1   35.10   15.78
 -26  30   1   33.01   17.96
  30  -4   1   40.49   16.60
 -26  30   4   27.57   19.10
  30  -4   4   37.17   17.45
  -4 -26   4   26.56   18.95
  30  -4   4   24.92   15.08
  30  -3  -6  -16.75   17.31
 -27  30  -6    7.55   16.53
  -3 -27  -6    4.15   16.73
  -3 -27  -3   10.45   15.45
  30  -3  -3  -10.28   14.51
  30  -3  -3   32.99   15.71
 -27  30  -3   26.15   17.61
  -3 -27   0   -4.77   16.46
  30  -3   0   25.60   15.66
  30  -3   0   17.04   16.65
 -27  30   0   18.36   16.00
  30  -3   3    0.32   16.07
  -3 -27   3   -2.85   19.06
  30  -3   3  -11.46   14.43
 -27  30   3   40.53   20.39
 -27  30   6   34.96   21.49
  -2 -28  -4   38.22   18.11
  30  -2  -4   75.09   21.62
  30  -2  -4   34.21   19.78
 -28  30  -4   64.98   21.91
  30  -2  -1   97.04   20.52
  -2 -28  -1  104.27   20.83
  30  -2  -1   93.38   20.13
 -28  30  -1   49.01   18.40
  -2 -28   2   13.92   15.45
  30  -2   2   14.88   15.58
 -28  30   2   16.03   16.56
  30  -2   2   52.81   17.30
 -28  30   5  120.20   27.90
  30  -2   5  121.07   22.39
  30  -2   5  121.33   20.28
  30  -1  -5   25.17   18.64
  30  -1  -5   21.90   18.14
 -29  30  -5   45.98   21.84
  -1 -29  -5   15.70   17.01
  30  -1  -2    1.93   15.13
  -1 -29  -2   -7.50   15.40
  30  -1  -2   24.36   17.47
 -29  30  -2    2.28   16.94
  30  -1   1   30.71   15.41
  -1 -29   1   42.36   17.95
  30  -1   1   36.89   17.34
 -29  30   1   40.12   19.63
  30  -1   4   -3.43   16.21
  30  -1   4   29.71   14.92
  -1 -29   4    6.67   17.02
 -29  30   4  -17.16   19.36
   0 -30  -3    7.87   15.21
  30   0  -3   -7.09   16.00
  30   0  -3   18.16   15.53
 -30  30  -3   40.15   19.50
   0 -30   0   -0.89   15.00
  30   0   0   40.35   17.18
  30   0   0    4.15   15.12
 -30  30   0   -2.47   16.69
   0 -30   3   16.35   19.39
  30   0   3   23.98   15.15
 -30  30   3  -13.96   19.11
  30   0   3   14.33   15.72
   1 -31  -4   52.52   19.30
  30   1  -4   56.00   20.44
  30   1  -4   34.53   21.64
 -31  30  -4   59.04   20.84
  30   1  -1   86.18   20.68
   1 -31  -1   87.45   21.42
  30   1  -1   92.46   20.68
 -31  30  -1   70.48   20.75
   1 -31   2   37.17   20.60
  30   1   2   55.53   18.87
 -31  30   2   43.85   19.45
  30   1   2   21.06   15.85
  30   2  -2   -3.58   17.24
   2 -32  -2   31.20   17.04
  30   2  -2   24.12   17.88
 -32  30  -2    4.90   16.11
  30   2   1   -3.71   14.69
   2 -32   1   16.58   16.24
  30   2   1   18.20   16.81
 -32  30   1    0.92   18.23
   3 -33   0   11.11   15.72
  30   3   0   26.15   16.98
  30   3   0   47.07   17.59
 -33  30   0   38.85   20.80
   2  31   1  102.04   23.82
   1  31   0   32.12   18.85
   1  31   0   20.25   14.77
 -32   1   0  -14.19   14.16
   0  31  -1   15.96   17.02
   0  31  -1   17.22   15.32
 -31   0  -1    9.82   13.30
   0  31   2    1.07   16.29
  -1  31  -2   37.72   18.93
  -1  31  -2   67.34   20.17
 -30  -1  -2    7.94   15.47
  -1  31   1   95.34   22.54
  -1  31   1   84.28   17.27
  -1  31   4   45.65   19.57
  -2  31  -3   68.80   20.02
  -2  31  -3   72.75   21.00
  -2  31  -3   40.79   17.87
 -29  -2  -3   82.23   22.52
 -29  -2  -3   41.31   19.11
  -2  31   0   12.44   15.80
  -2  31   0   21.88   14.76
 -29  -2   0    3.80   11.18
  -2  31   3   35.59   17.83
  -3  31  -4   16.08   17.27
  -3  31  -4   22.42   17.63
  -3  31  -4   51.29   19.51
 -28  -3  -4    8.45   16.20
 -28  -3  -4   23.84   17.09
  31 -28  -4    3.09   12.90
  -3  31  -1   10.69   17.77
  -3  31  -1    2.60   16.15
  -3  31  -1   28.77   14.37
 -28  -3  -1   27.86   15.09
  -3  31   2    6.68   14.77
  -3  31   2   25.85   12.05
  -3  31   5   25.84   17.43
  -4  31  -5  133.36   25.50
  -4  31  -5  103.43   24.10
  31 -27  -5   77.24   18.91
 -27  -4  -5  138.46   25.93
 -27  -4  -5   77.55   21.67
  -4  31  -2   -8.39   16.72
  -4  31  -2    6.49   17.20
  -4  31  -2   26.93   16.17
 -27  -4  -2   32.63   18.92
 -27  -4  -2   36.34   16.75
  -4  31   1   85.93   20.92
  -4  31   1   85.62   16.14
 -27  -4   1   92.75   14.56
  -4  31   4   47.15   17.13
  -5  31  -3   68.96   19.34
  -5  31  -3   81.46   21.02
  -5  31  -3   97.85   21.88
 -26  -5  -3   93.38   20.13
 -26  -5  -3   68.24   19.16
  31 -26  -3   70.09   15.08
  -5  31   0   22.23   17.39
  -5  31   0   20.11   15.41
  -5  31   0    6.47   14.05
 -26  -5   0   25.44   12.95
  -5  31   3   -7.53   15.52
  -6  31  -4   67.22   20.29
  31 -25  -4   26.92   18.13
  -6  31  -4   62.77   18.78
  -6  31  -4   22.18   18.29
  31 -25  -4   42.50   14.85
 -25  -6  -4   42.58   18.21
 -25  -6  -4   36.79   16.76
  -6  31  -1   44.78   18.38
  -6  31  -1    9.18   15.18
  -6  31  -1   52.80   17.69
 -25  -6  -1   71.71   19.85
 -25  -6  -1   45.02   15.52
  -6  31   2    4.44   15.01
  -6  31   2   34.49   12.63
  -6  31   5   -1.15   15.30
  31 -24  -5  105.38   22.96
  -7  31  -5  128.62   24.37
  -7  31  -5  188.22   28.70
 -24  -7  -5  123.92   23.41
  31 -24  -5  121.96   22.37
 -24  -7  -5  156.66   26.81
  -7  31  -5  129.07   23.33
  -7  31  -2    9.90   15.83
  -7  31  -2    7.45   14.82
  -7  31  -2   27.32   15.69
 -24  -7  -2   18.41   15.74
  31 -24  -2   40.83   12.06
 -24  -7  -2   28.92   16.14
  -7  31   1   57.76   21.36
  -7  31   1   81.63   20.34
  -7  31   1   81.15   16.57
 -24  -7   1   89.94   14.55
  -7  31   4  109.64   21.17
  31 -23  -6   25.01   18.74
  -8  31  -6   58.42   20.07
  -8  31  -6   19.33   18.84
  31 -23  -6   62.94   19.39
 -23  -8  -6   -2.37   16.41
 -23  -8  -6   32.88   16.66
  -8  31  -6   31.17   18.16
  -8  31  -3   95.82   20.58
  31 -23  -3   87.83   22.16
  -8  31  -3   99.41   22.02
  -8  31  -3   86.81   21.50
  31 -23  -3   86.85   16.33
 -23  -8  -3  126.49   22.05
 -23  -8  -3  108.29   22.49
  -8  31   0    7.70   17.96
  -8  31   0   15.28   15.46
  -8  31   0    4.79   13.00
 -23  -8   0    5.43   11.35
 -23  -8   0   16.42   16.80
  -8  31   3   49.17   20.77
  -8  31   3   50.73   17.26
  -8  31   3   56.38   12.41
  -8  31   6   22.05   16.47
  31 -22  -4   14.38   17.31
  -9  31  -4   12.07   15.61
  -9  31  -4   -0.99   15.60
 -22  -9  -4   22.33   17.17
  31 -22  -4   19.34   14.73
  31 -22  -4    1.69   16.69
 -22  -9  -4    1.19   16.05
  -9  31  -4    8.50   14.98
  -9  31  -1   18.37   17.15
  31 -22  -1   26.15   16.02
  -9  31  -1   45.42   18.57
  -9  31  -1   43.07   17.00
  31 -22  -1   39.46   10.67
 -22  -9  -1   34.00   14.25
 -22  -9  -1   22.18   15.12
  -9  31   2  -12.85   17.92
  -9  31   2   11.99   15.79
  -9  31   2   -0.22   11.23
  -9  31   5   20.21   14.98
  31 -21  -5   15.30   17.65
 -10  31  -5   79.32   20.23
 -10  31  -5   22.47   18.90
  31 -21  -5   43.06   16.98
  31 -21  -5   33.42   18.37
 -21 -10  -5   47.60   19.12
 -21 -10  -5   13.09   15.83
 -10  31  -5   27.84   17.19
 -10  31  -2   25.92   16.75
 -21 -10  -2    6.27   15.62
  31 -21  -2   42.62   17.17
 -10  31  -2   19.95   14.67
 -10  31  -2   -6.43   14.88
  31 -21  -2   30.83   11.87
  31 -21  -2    9.03   15.17
 -21 -10  -2   13.91   13.18
 -10  31   1   47.46   19.78
 -10  31   1   53.58   15.52
 -21 -10   1   57.70   19.60
 -21 -10   1   49.62   12.82
 -10  31   4   65.41   22.38
 -11  31  -6   24.08   16.12
 -11  31  -6   27.97   20.10
  31 -20  -6   49.98   18.82
  31 -20  -6   58.50   21.59
 -20 -11  -6   36.73   17.30
 -11  31  -6   41.48   18.06
  31 -20  -6   34.52   18.05
  31 -20  -3  118.83   23.13
 -11  31  -3  131.28   22.01
  31 -20  -3  121.59   18.44
 -11  31  -3  105.15   21.00
 -20 -11  -3  110.42   21.11
  31 -20  -3  131.52   23.43
 -11  31  -3  147.45   24.12
 -11  31   0   67.05   20.52
  31 -20   0   49.91   18.11
 -11  31   0  123.89   19.80
  31 -20   0   83.35   11.42
  31 -20   0   92.88   21.04
 -20 -11   0   65.69   14.60
 -20 -11   0   78.80   20.22
 -11  31   3  162.82   28.02
 -11  31   3  144.46   17.46
 -12  31  -7   18.25   16.20
 -12  31  -7    0.86   18.75
  31 -19  -7  -32.06   18.61
 -19 -12  -7   14.37   15.06
  31 -19  -7    8.45   16.81
 -12  31  -7    1.05   16.22
  31 -19  -7   22.60   16.70
 -12  31  -4   -8.09   14.77
 -12  31  -4   10.67   15.60
  31 -19  -4   13.11   13.92
  31 -19  -4    9.27   15.64
 -19 -12  -4    8.32   14.83
 -12  31  -4  -12.79   16.21
  31 -19  -4   19.64   15.86
 -12  31  -1   32.90   16.61
  31 -19  -1   20.92   16.62
 -12  31  -1   43.93   16.03
 -19 -12  -1   26.57   14.77
  31 -19  -1   53.18   12.57
  31 -19  -1   11.72   14.53
 -12  31   2   76.07   22.81
 -19 -12   2   55.67   19.97
 -12  31   2   64.70   15.47
 -19 -12   2   46.33    9.93
 -13  31  -5   21.73   16.77
 -13  31  -5    1.85   17.18
  31 -18  -5    5.27   14.81
  31 -18  -5   -3.47   16.25
 -18 -13  -5    7.95   14.95
 -13  31  -5   19.30   15.23
  31 -18  -5   25.30   18.23
  31 -18  -2   32.47   18.88
 -13  31  -2   29.24   15.76
  31 -18  -2   28.84   12.47
  31 -18  -2    7.17   16.07
 -18 -13  -2   43.88   16.84
 -13  31  -2   12.43   14.90
 -13  31   1   67.57   19.05
  31 -18   1   25.01   16.20
 -18 -13   1   53.62   18.47
  31 -18   1   63.93   18.06
 -18 -13   1   54.01   13.19
 -13  31   4   69.73   23.78
 -13  31   4   58.73   13.53
 -14  31  -6   25.25   18.26
 -14  31  -6   30.60   19.16
  31 -17  -6   22.25   16.18
 -17 -14  -6   63.25   18.80
  31 -17  -6   39.18   19.83
 -14  31  -6    2.66   15.20
  31 -17  -6   53.95   18.31
  31 -17  -3  362.31   32.86
  31 -17  -3  215.70   26.81
 -14  31  -3  266.03   29.01
 -17 -14  -3  314.75   31.08
 -14  31   0  123.18   23.54
  31 -17   0  105.61   21.88
 -17 -14   0  106.70   21.27
  31 -17   0  138.25   22.41
 -14  31   3  156.28   27.64
 -15  31  -7   11.34   16.75
 -16 -15  -7  -28.05   16.83
 -15  31  -7   51.90   22.79
  31 -16  -7   -3.61   16.19
  31 -16  -7   12.33   18.19
 -15  31  -7   -4.44   15.49
  31 -16  -7   23.73   16.92
  31 -16  -4   14.29   15.09
 -16 -15  -4   50.82   18.03
 -15  31  -4   19.87   17.39
  31 -16  -4   22.58   17.57
  31 -16  -1   16.31   16.28
  31 -16  -1   47.74   17.31
 -16 -15  -1    1.69   13.81
 -15  31  -1   -6.96   16.50
 -15  31   2   41.47   19.40
  31 -16   2   36.22   14.91
 -16 -15   2   49.13   19.28
 -15  31   5   33.75   22.49
 -15 -16  -5   41.58   17.70
  31 -15  -5   29.73   16.62
 -16  31  -5    8.06   16.59
  31 -15  -5   35.94   16.66
 -15 -16  -2   45.31   15.93
  31 -15  -2   45.94   17.52
 -16  31  -2    4.30   15.48
  31 -15  -2   69.30   19.84
 -16  31   1   -0.92   15.21
  31 -15   1    4.14   17.14
  31 -15   1   16.61   13.93
 -15 -16   1    7.81   15.68
 -16  31   4   48.28   20.82
 -17  31  -6   58.53   19.89
 -14 -17  -6   51.18   17.32
  31 -14  -6    9.88   15.93
 -17  31  -6   29.70   17.95
  31 -14  -6   41.54   20.24
  31 -14  -3  208.54   26.56
  31 -14  -3  201.33   26.85
 -17  31  -3  218.77   27.11
 -14 -17  -3  185.17   24.40
  31 -14   0   52.62   17.60
 -14 -17   0   66.24   17.21
  31 -14   0   61.28   18.09
 -17  31   0   53.21   18.62
  31 -14   3  251.68   25.74
 -17  31   3  277.23   34.10
 -17  31   6   39.82   21.25
 -18  31  -7   19.86   16.24
 -18  31  -7  -15.25   18.67
  31 -13  -7   -2.12   15.89
  31 -13  -7  -34.48   18.57
 -18  31  -7   23.63   17.84
 -13 -18  -7   25.87   18.65
 -13 -18  -4   82.03   19.46
  31 -13  -4   76.84   20.35
 -18  31  -4   35.56   17.00
  31 -13  -4   51.10   20.45
 -13 -18  -1   81.36   18.92
  31 -13  -1   55.22   16.51
 -18  31  -1   74.02   20.53
  31 -13  -1   72.38   20.07
 -18  31   2   64.36   19.36
  31 -13   2   71.69   18.40
 -13 -18   2   50.41   18.47
  31 -13   2   64.69   17.95
 -18  31   5   -3.54   20.01
 -12 -19  -5   -0.81   14.06
  31 -12  -5    2.88   17.19
  31 -12  -5    3.45   15.55
 -19  31  -5   -7.08   15.79
  31 -12  -2   33.76   16.20
 -12 -19  -2   36.81   14.40
 -19  31  -2   30.42   15.80
  31 -12  -2   13.82   15.42
  31 -12   1   23.24   17.27
 -12 -19   1   15.41   14.78
  31 -12   1    4.65   13.65
 -19  31   1   59.23   21.18
 -19  31   4   17.59   17.38
  31 -12   4   12.99   12.66
 -11 -20  -6   33.96   19.96
  31 -11  -6   34.74   18.25
  31 -11  -6    6.28   17.51
 -20  31  -6    5.86   16.66
  31 -11  -3  155.88   24.64
 -11 -20  -3  105.64   20.66
  31 -11  -3  132.44   22.47
 -20  31  -3   97.94   21.79
  31 -11   0  122.54   21.69
 -11 -20   0  101.04   21.10
 -20  31   0   82.47   21.44
  31 -11   0   97.59   19.89
 -20  31   3   36.77   19.48
  31 -11   3   98.21   21.60
  31 -11   3   67.42   17.21
 -20  31   6   77.44   23.74
 -10 -21  -4   42.35   18.02
  31 -10  -4   17.49   15.83
  31 -10  -4   54.72   20.91
 -21  31  -4   39.18   17.54
 -10 -21  -1   28.00   15.68
  31 -10  -1   63.73   18.47
 -21  31  -1   74.14   19.39
  31 -10  -1   64.86   19.81
  31 -10   2   10.13   15.93
  31 -10   2   50.91   16.11
 -10 -21   2   63.36   20.59
 -21  31   2   32.26   17.60
 -21  31   5   97.00   25.90
  31 -10   5   66.48   17.26
  -9 -22  -5    6.48   14.51
  31  -9  -5   -1.87   15.59
  31  -9  -5    4.21   15.91
 -22  31  -5  -10.31   15.53
  31  -9  -2   19.62   15.14
  -9 -22  -2   -0.84   13.85
  31  -9  -2  -12.53   14.11
 -22  31  -2  -16.74   14.76
  -9 -22   1   28.82   16.43
  31  -9   1   56.94   17.45
 -22  31   1   25.46   17.41
  31  -9   1   32.37   18.13
 -22  31   4   16.98   18.04
  31  -9   4   14.88   13.45
  31  -8  -6   43.95   20.56
  31  -8  -6    5.06   18.17
 -23  31  -6   29.07   17.30
  -8 -23  -6   41.77   18.16
  31  -8  -3  117.84   22.19
  -8 -23  -3  128.26   22.71
  31  -8  -3   96.35   21.80
 -23  31  -3   82.91   20.86
  31  -8   0   12.86   14.51
  -8 -23   0  -19.31   16.39
 -23  31   0  -34.05   17.78
  31  -8   0   19.33   17.89
 -23  31   3   81.14   21.88
  31  -8   3   58.74   18.65
  31  -8   3   61.54   16.54
  -8 -23   3   65.65   19.81
 -23  31   6   54.91   24.00
  31  -8   6   36.14   14.10
  -7 -24  -4   57.45   19.06
  31  -7  -4   38.78   18.70
  31  -7  -4   43.78   19.10
 -24  31  -4   58.96   20.88
  31  -7  -1  131.52   22.14
  31  -7  -1  140.33   23.23
 -24  31  -1  102.89   21.88
  -7 -24  -1  114.43   21.95
  31  -7   2   43.59   17.64
  31  -7   2   52.82   16.40
  -7 -24   2   29.32   16.69
 -24  31   2    9.08   18.24
 -24  31   5   98.63   25.85
  31  -7   5  133.59   20.42
  -6 -25  -5    8.89   16.47
  31  -6  -5  -12.96   17.13
  31  -6  -5    3.89   15.59
 -25  31  -5   16.22   15.64
  31  -6  -2   13.88   15.55
  -6 -25  -2   26.25   16.40
  31  -6  -2   25.52   16.88
 -25  31  -2    2.13   15.16
  -6 -25   1   31.63   19.37
  31  -6   1   48.62   17.16
 -25  31   1   55.89   20.99
  31  -6   1   61.57   17.55
 -25  31   4   16.52   18.53
  31  -6   4   37.69   18.21
  31  -6   4   33.21   15.33
  -5 -26  -3   14.58   15.82
  31  -5  -3   13.62   15.59
  31  -5  -3   49.54   18.56
 -26  31  -3   12.97   16.61
  -5 -26   0   46.55   17.49
  31  -5   0   33.29   16.17
 -26  31   0    5.57   14.43
  31  -5   0   24.23   15.71
  31  -5   3   70.78   19.91
  31  -5   3   49.22   16.64
  -5 -26   3   44.95   20.98
 -26  31   3   45.03   21.41
  -4 -27  -4   38.75   18.51
  31  -4  -4   73.05   20.83
  31  -4  -4   36.11   18.38
 -27  31  -4   64.06   21.25
  31  -4  -1  100.55   20.97
  -4 -27  -1   47.76   18.59
  31  -4  -1  102.04   22.05
 -27  31  -1   81.21   22.94
  -4 -27   2   46.36   19.65
  31  -4   2    1.65   14.09
 -27  31   2   33.74   18.46
  31  -4   2   51.99   18.46
 -27  31   5   48.99   23.24
  31  -4   5   82.41   17.28
  31  -3  -5   -2.17   15.79
  31  -3  -5    9.61   17.29
 -28  31  -5   -9.66   16.88
  -3 -28  -5    2.45   16.41
  31  -3  -2   33.75   17.91
  -3 -28  -2   13.04   14.73
  31  -3  -2   -6.68   15.17
 -28  31  -2   13.20   18.07
  31  -3   1   10.88   13.81
  -3 -28   1   24.60   17.12
 -28  31   1   -2.72   16.44
  31  -3   1   34.50   16.88
 -28  31   4   28.76   20.99
  31  -3   4   27.55   18.09
  31  -3   4   23.42   15.39
  -3 -28   4   48.12   21.83
  -2 -29  -3   -7.29   15.32
  31  -2  -3   23.77   17.83
  31  -2  -3  -14.15   18.31
 -29  31  -3   18.06   16.42
  -2 -29   0   15.50   16.76
  31  -2   0   -4.34   15.11
  31  -2   0   13.65   16.94
 -29  31   0   33.27   17.58
  31  -2   3   52.76   19.77
  -2 -29   3   60.01   20.85
  31  -2   3   61.32   17.53
 -29  31   3   37.56   20.74
  -1 -30  -4   50.07   20.74
  31  -1  -4   34.42   19.03
  31  -1  -4   16.69   17.73
 -30  31  -4   51.13   19.66
  31  -1  -1  164.95   25.52
  31  -1  -1  104.49   22.99
 -30  31  -1   96.93   23.33
  -1 -30  -1  145.87   24.31
  -1 -30   2   28.94   18.47
  31  -1   2   41.33   16.52
 -30  31   2   57.15   21.79
  31  -1   2   48.51   18.32
  31   0  -2   -5.17   16.53
   0 -31  -2    9.59   16.43
  31   0  -2   35.36   19.50
 -31  31  -2   19.27   17.64
  31   0   1   11.92   14.87
   0 -31   1   26.28   16.43
  31   0   1   -1.12   15.12
 -31  31   1    4.38   18.24
   1 -32   0  -15.46   15.43
  31   1   0   11.46   15.77
  31   1   0   24.18   19.31
 -32  31   0   -1.90   15.49
  31   2  -1   80.36   21.85
   2 -33  -1   56.40   20.88
  31   2  -1   28.77   17.73
 -33  31  -1   85.14   24.27
   0  32   1    7.68   17.70
  -1  32   0   -9.33   17.57
  -1  32   0   21.92   14.69
 -31  -1   0    0.82   13.25
  -2  32  -1   -9.57   18.16
  -2  32  -1   11.41   15.57
 -30  -2  -1    0.43   14.43
  -2  32   2   51.71   19.33
  -3  32  -2  121.38   24.39
  -3  32  -2  147.87   25.20
  -3  32  -2  138.80   24.26
 -29  -3  -2  123.41   24.59
 -29  -3  -2  174.19   24.03
  -3  32   1   38.26   18.25
  -3  32   1   15.96   12.99
  -3  32   4  115.32   22.91
  -4  32  -3   44.87   20.60
  -4  32  -3   49.11   20.49
  -4  32  -3   44.33   19.03
 -28  -4  -3   46.62   19.93
 -28  -4  -3   43.89   21.15
  -4  32   0    2.04   16.13
  -4  32   0   43.38   16.34
 -28  -4   0   23.40   13.40
  -4  32   3   19.34   17.67
  -5  32  -4   22.17   17.93
  -5  32  -4   33.03   18.38
 -27  -5  -4   13.92   16.38
  -5  32  -4   46.31   20.19
 -27  -5  -4    4.99   16.68
  32 -27  -4    1.13   13.09
  -5  32  -1    6.87   16.77
  -5  32  -1   34.90   18.38
  -5  32  -1   27.03   15.72
 -27  -5  -1   39.44   18.51
 -27  -5  -1   20.80   15.48
  -5  32   2   -4.71   15.29
  -5  32   5   23.61   17.49
  -6  32  -5   10.96   15.97
  32 -26  -5    6.58   17.32
  -6  32  -5    6.73   17.25
  -6  32  -5   10.33   16.55
  32 -26  -5    7.89   14.71
 -26  -6  -5   -1.10   17.15
 -26  -6  -5   30.65   17.10
  -6  32  -2   46.91   19.91
  -6  32  -2   78.97   20.59
  -6  32  -2   75.75   19.39
 -26  -6  -2   48.77   16.82
 -26  -6  -2  118.31   24.71
  -6  32   1   40.60   20.68
  -6  32   1   47.74   18.75
  -6  32   1   25.69   13.48
  -6  32   4   83.82   20.74
  -7  32  -3   67.44   22.26
  -7  32  -3   44.07   18.50
  -7  32  -3   43.09   18.66
 -25  -7  -3   34.87   17.39
  32 -25  -3   13.02   12.39
 -25  -7  -3    6.88   15.14
  -7  32   0   41.02   20.17
  -7  32   0   47.74   18.62
 -25  -7   0   64.09   22.44
  -7  32   0   66.83   17.22
 -25  -7   0   62.17   15.64
  -7  32   3   13.96   16.28
  -8  32  -4   44.85   17.94
  32 -24  -4   28.42   16.34
  -8  32  -4   57.62   19.95
  -8  32  -4   48.04   19.46
  32 -24  -4   58.90   16.47
 -24  -8  -4   59.12   19.80
 -24  -8  -4   24.15   16.82
  -8  32  -1   22.84   17.37
  -8  32  -1   32.33   18.20
 -24  -8  -1   36.21   17.11
  -8  32  -1   56.81   17.50
 -24  -8  -1    8.47   13.05
  -8  32   2   35.13   20.63
  -8  32   2   29.25   17.99
  -8  32   2   20.90   12.95
  -8  32   5   10.06   15.26
  32 -23  -5   34.66   19.35
 -23  -9  -5   35.15   17.48
  -9  32  -5   37.05   19.48
  -9  32  -5   52.97   21.01
  32 -23  -5   62.88   18.93
 -23  -9  -5   37.18   19.70
  -9  32  -5   41.31   18.84
  -9  32  -2   89.52   21.29
  32 -23  -2  108.74   22.16
  -9  32  -2  101.91   22.24
  -9  32  -2   34.21   17.52
 -23  -9  -2   72.94   20.04
  32 -23  -2   75.86   14.16
 -23  -9  -2   94.09   19.12
  -9  32   1   93.95   23.42
  -9  32   1   71.68   20.55
  -9  32   1   59.72   15.91
 -23  -9   1   78.05   13.64
 -23  -9   1  110.21   24.44
  -9  32   4   55.97   19.56
 -10  32  -6  161.22   25.80
 -10  32  -6  133.13   25.65
  32 -22  -6  102.64   22.95
  32 -22  -6  154.56   27.29
 -22 -10  -6  139.34   27.52
  32 -22  -6  168.88   27.14
 -22 -10  -6  133.55   23.70
 -10  32  -6   58.67   19.81
 -10  32  -3   -4.20   16.91
  32 -22  -3   13.34   16.53
 -10  32  -3  -23.54   15.48
 -10  32  -3   -5.34   15.68
  32 -22  -3   18.02   12.99
  32 -22  -3    2.73   16.96
 -22 -10  -3   20.37   15.98
 -22 -10  -3   22.62   16.49
 -10  32   0  134.96   23.76
 -10  32   0  164.65   22.48
 -22 -10   0  136.69   24.51
 -22 -10   0  160.46   19.85
 -10  32   0  175.07   29.03
 -10  32   3   43.26   22.58
 -10  32   3   43.70   18.33
 -10  32   3   45.75   12.35
 -10  32   6  117.48   22.78
  32 -21  -4   29.60   18.81
 -11  32  -4   42.15   19.20
 -21 -11  -4   20.15   16.08
 -11  32  -4   45.43   17.37
  32 -21  -4   21.90   14.26
  32 -21  -4   18.27   16.98
 -21 -11  -4   41.61   18.83
 -11  32  -4   14.91   15.69
 -11  32  -1   17.35   19.58
  32 -21  -1   28.16   18.58
 -11  32  -1    3.48   16.07
 -11  32  -1   26.47   14.71
  32 -21  -1   21.15   10.61
 -21 -11  -1   55.45   18.49
  32 -21  -1   43.78   18.80
 -21 -11  -1   29.35   14.66
 -11  32   2   43.27   21.62
 -11  32   2   65.98   15.80
 -12  32  -5   27.39   17.63
 -12  32  -5   28.90   19.38
  32 -20  -5   24.19   16.29
  32 -20  -5   12.56   16.52
 -20 -12  -5   -2.05   16.28
 -12  32  -5   11.35   16.70
  32 -20  -5   26.26   18.74
 -12  32  -2   51.92   19.73
  32 -20  -2   51.19   18.71
 -12  32  -2   34.83   18.09
 -12  32  -2   68.25   19.11
  32 -20  -2   42.90   13.89
  32 -20  -2   84.30   21.70
 -20 -12  -2   59.85   17.93
 -20 -12  -2   63.25   18.49
 -12  32   1   15.53   17.50
 -12  32   1   20.06   13.42
 -20 -12   1    7.60   10.57
 -20 -12   1   -8.09   15.63
 -12  32   4   64.87   22.82
 -13  32  -6  147.98   27.30
  32 -19  -6  178.44   26.35
 -13  32  -6  159.37   24.97
  32 -19  -6  208.04   29.06
 -19 -13  -6  136.15   23.48
 -13  32  -6  142.02   25.64
  32 -19  -6  139.64   25.81
  32 -19  -3   46.95   17.90
 -13  32  -3   33.33   18.22
 -13  32  -3   24.07   18.18
  32 -19  -3   11.84   12.83
 -19 -13  -3   20.26   15.73
  32 -19  -3   27.91   17.59
 -13  32  -3   36.89   16.84
 -13  32   0  337.27   28.81
  32 -19   0  219.36   17.23
  32 -19   0  345.32   31.66
 -19 -13   0  357.33   27.25
 -19 -13   0  261.79   30.08
 -13  32   0  257.42   30.72
  32 -19   0  235.64   29.56
 -13  32   3    5.98   19.34
 -13  32   3    3.46   12.16
 -14  32  -4   -2.54   15.60
 -14  32  -4    1.82   16.47
  32 -18  -4   21.52   14.77
  32 -18  -4   16.47   16.59
 -18 -14  -4   41.96   19.18
 -14  32  -4   12.46   16.66
  32 -18  -4  -14.51   17.46
  32 -18  -1   -2.83   16.59
 -18 -14  -1   18.33   16.71
 -14  32  -1  -21.86   16.71
 -14  32   2   26.57   19.28
  32 -18   2   24.08   15.89
 -18 -14   2   45.80   19.63
 -14  32   5   17.36   20.69
 -15  32  -5   36.80   17.50
 -15  32  -5   21.40   18.33
  32 -17  -5   26.59   17.47
  32 -17  -5  -16.89   17.67
 -17 -15  -5   26.98   17.34
 -15  32  -5   46.48   18.64
  32 -17  -5    3.50   16.08
  32 -17  -2   11.98   14.29
 -17 -15  -2   40.97   18.66
  32 -17  -2   -6.44   15.19
 -15  32  -2   41.34   18.71
 -15  32   1   -5.52   15.57
  32 -17   1    2.91   17.10
 -17 -15   1   13.89   16.46
  32 -17   1   11.81   14.26
 -15  32   4  -17.41   21.12
  32 -16  -6  196.94   27.44
 -16  32  -6  201.61   31.03
 -16  32  -6  244.35   30.26
  32 -16  -6  202.54   28.17
 -16 -16  -6  211.03   27.99
  32 -16  -6  173.50   27.75
 -16  32  -6  171.39   25.94
  32 -16  -3   28.88   16.53
 -16 -16  -3   13.97   15.76
 -16  32  -3   13.48   17.22
  32 -16  -3   27.20   16.14
  32 -16   0  333.67   31.48
 -16 -16   0  244.92   28.11
  32 -16   0  270.37   28.97
 -16  32   0  314.62   32.99
 -16  32   3   19.65   18.46
  32 -16   3   37.52   15.65
 -16  32   6  139.82   28.72
  32 -15  -4   35.43   17.14
 -15 -17  -4   10.09   15.08
 -17  32  -4    8.90   16.16
  32 -15  -4    5.93   14.83
  32 -15  -1   14.79   17.28
  32 -15  -1   -0.70   14.93
 -15 -17  -1    8.10   16.28
 -17  32  -1  -19.60   17.06
 -17  32   2   23.41   17.56
  32 -15   2   25.05   18.90
  32 -15   2   52.80   16.79
 -15 -17   2   47.29   19.22
 -17  32   5   27.60   22.01
 -14 -18  -5   28.53   16.63
  32 -14  -5    7.98   16.66
 -18  32  -5    7.35   17.20
  32 -14  -5   19.84   16.46
 -14 -18  -2   44.37   17.51
  32 -14  -2   24.83   18.17
 -18  32  -2    9.24   16.49
  32 -14  -2    7.07   15.52
  32 -14   1   36.15   17.89
  32 -14   1   14.26   14.42
 -14 -18   1   37.37   16.71
 -18  32   1   29.51   18.18
 -18  32   4    8.51   17.87
  32 -14   4  -20.50   14.04
 -13 -19  -6  111.60   23.04
  32 -13  -6  121.23   24.28
  32 -13  -6  149.05   26.15
 -19  32  -6   98.25   21.81
  32 -13  -3  -25.20   16.52
 -13 -19  -3    5.02   14.88
 -19  32  -3  -25.79   17.14
  32 -13  -3   -4.00   16.82
  32 -13   0  252.34   28.63
 -13 -19   0  169.85   26.38
  32 -13   0  228.75   28.63
 -19  32   0  231.28   30.49
 -19  32   3   19.09   16.59
  32 -13   3   29.66   14.55
 -19  32   6   94.50   29.68
  32 -12  -4  135.78   24.00
 -12 -20  -4   42.18   18.03
 -20  32  -4   94.45   21.14
  32 -12  -4   82.93   21.48
 -12 -20  -1   32.61   16.49
  32 -12  -1   44.22   17.70
 -20  32  -1   31.89   19.39
  32 -12  -1    6.81   15.28
 -20  32   2   83.85   22.20
  32 -12   2   93.16   22.21
 -12 -20   2   57.46   18.83
  32 -12   2   79.39   18.90
 -20  32   5   14.88   19.05
  32 -12   5   24.26   14.64
 -11 -21  -5   -6.34   14.99
  32 -11  -5   -2.53   15.76
  32 -11  -5   16.26   18.96
 -21  32  -5   15.03   16.70
  32 -11  -2   50.80   18.68
 -11 -21  -2  -10.88   14.38
 -21  32  -2   23.81   16.68
  32 -11  -2    6.51   15.04
  32 -11   1    5.06   15.43
 -11 -21   1   -0.02   15.74
  32 -11   1   24.65   14.60
 -21  32   1    4.00   18.94
 -21  32   4   20.26   20.20
  32 -11   4   15.62   14.05
  32 -10  -6  111.77   24.40
 -10 -22  -6  142.19   24.49
  32 -10  -6  118.65   24.73
 -22  32  -6   74.16   22.04
  32 -10  -3   14.77   16.20
 -10 -22  -3   61.33   18.61
 -22  32  -3   36.59   17.85
  32 -10  -3   54.81   19.05
  32 -10   0  124.49   22.16
 -10 -22   0  117.30   21.80
 -22  32   0  125.24   24.62
  32 -10   0  108.02   21.18
 -22  32   3   56.21   21.59
  32 -10   3   62.59   20.92
 -10 -22   3   33.90   19.27
  32 -10   3   16.41   14.30
 -22  32   6  101.41   27.69
  -9 -23  -4   51.44   18.86
  32  -9  -4  120.47   24.92
  32  -9  -4  109.76   22.47
 -23  32  -4   57.25   19.85
  -9 -23  -1   26.65   16.57
  32  -9  -1   44.08   18.62
 -23  32  -1   14.91   16.38
  32  -9  -1    7.42   14.98
  32  -9   2   97.85   20.72
  32  -9   2  132.35   23.43
  -9 -23   2  145.66   25.37
 -23  32   2   78.70   22.79
 -23  32   5  -30.06   20.22
  32  -9   5   14.03   14.11
  -8 -24  -5  -19.66   18.39
  32  -8  -5   22.84   18.16
  32  -8  -5   -5.51   15.86
 -24  32  -5   15.40   16.82
  32  -8  -2   45.43   17.38
  -8 -24  -2   66.77   20.99
  32  -8  -2   58.29   19.67
 -24  32  -2   22.12   17.21
  -8 -24   1   27.40   17.09
  32  -8   1   28.60   15.32
 -24  32   1   14.16   16.81
  32  -8   1   43.96   18.09
 -24  32   4   -2.78   20.29
  32  -8   4   40.25   19.12
  32  -8   4   -7.75   13.59
  32  -7  -3    2.08   15.56
  -7 -25  -3    9.33   15.78
  32  -7  -3   24.70   17.15
 -25  32  -3   30.78   17.42
  32  -7   0   45.19   18.45
  -7 -25   0   39.47   18.34
 -25  32   0   67.45   22.78
  32  -7   0   66.36   20.49
  32  -7   3   -0.32   16.82
  32  -7   3   13.29   16.03
  -7 -25   3   24.19   17.55
 -25  32   3    4.99   19.43
  -6 -26  -4  109.95   22.38
  32  -6  -4  118.54   24.39
  32  -6  -4  154.05   25.43
 -26  32  -4  109.22   24.84
  -6 -26  -1   43.43   17.38
  32  -6  -1   13.83   16.45
 -26  32  -1   -7.38   15.42
  32  -6  -1   46.22   17.37
  32  -6   2   61.97   20.01
  32  -6   2   97.30   19.81
  -6 -26   2   65.44   20.83
 -26  32   2   57.25   21.13
 -26  32   5   53.84   24.41
  32  -6   5   29.55   14.85
  -5 -27  -5   22.27   19.10
  32  -5  -5    1.41   16.82
  32  -5  -5   22.45   17.78
 -27  32  -5   18.05   19.10
  32  -5  -2    5.69   15.35
  -5 -27  -2  -12.34   15.38
  32  -5  -2   11.97   17.00
 -27  32  -2   -7.92   16.19
  32  -5   1   -3.40   13.80
 -27  32   1   -0.37   17.97
  32  -5   1   28.99   18.03
 -27  32   4   47.79   22.37
  32  -5   4    5.37   17.88
  32  -5   4   38.64   16.45
  32  -4  -3   20.46   16.82
  -4 -28  -3   -9.27   16.94
  32  -4  -3   48.70   18.61
 -28  32  -3   29.49   19.75
  -4 -28   0   -6.84   16.73
  32  -4   0   41.33   17.29
 -28  32   0   30.33   17.91
  32  -4   0    1.12   15.76
  32  -4   3   -5.33   16.78
  32  -4   3   43.06   16.33
  -4 -28   3   27.33   19.46
 -28  32   3   -0.77   17.82
  -3 -29  -4  143.24   25.45
  32  -3  -4  130.48   27.27
 -29  32  -4  174.93   29.07
  32  -3  -1   23.57   16.85
  32  -3  -1   20.88   18.06
 -29  32  -1  -25.79   18.66
  -3 -29  -1   -3.93   15.38
  32  -3   2  111.71   22.07
  -3 -29   2  118.85   24.89
  32  -3   2  135.67   24.51
 -29  32   2  133.85   26.56
  32  -2  -2   12.95   17.67
  -2 -30  -2    4.30   15.24
  32  -2  -2   31.95   17.56
 -30  32  -2   54.32   19.82
  32  -2   1  -15.84   16.32
 -30  32   1  -35.70   21.30
  32  -2   1    4.16   16.53
  -2 -30   1   25.79   17.77
  -1 -31   0   -5.34   15.42
  32  -1   0    7.24   15.65
  32  -1   0   -5.07   17.25
 -31  32   0   33.19   19.96
  32   0  -1   -5.67   16.82
  32   0  -1   18.97   18.11
   0 -32  -1  -27.21   19.19
 -32  32  -1   33.12   20.15
  -2  33   1   63.57   21.87
  -3  33   0   21.08   17.41
  -3  33   0   45.07   17.36
  -4  33  -1    9.87   17.59
  -4  33  -1    4.81   14.80
 -29  -4  -1  -13.59   14.15
  -4  33   2   -0.07   17.23
  -5  33  -2   66.76   22.66
  -5  33  -2   31.88   20.08
  -5  33  -2   35.10   17.95
 -28  -5  -2   40.15   18.45
 -28  -5  -2   36.11   19.68
  -5  33   1   92.28   22.22
  -5  33   1   85.51   17.56
  -6  33  -3   81.11   23.71
  -6  33  -3   24.26   17.30
  -6  33  -3   27.13   16.82
 -27  -6  -3   71.03   19.57
 -27  -6  -3   66.56   22.40
  -6  33   0   44.59   21.59
  -6  33   0   42.53   18.65
  -6  33   0   11.55   15.26
 -27  -6   0   29.71   13.34
  -6  33   3   17.81   17.64
  -7  33  -4   34.83   19.23
 -26  -7  -4   62.26   21.11
  -7  33  -4   44.67   19.12
  -7  33  -4   23.70   18.49
  33 -26  -4   47.28   15.85
 -26  -7  -4   46.13   20.68
  -7  33  -1    5.49   18.25
  -7  33  -1   38.43   19.65
  -7  33  -1   12.61   15.96
 -26  -7  -1   14.33   14.07
 -26  -7  -1  -11.87   15.94
  -7  33   2    4.53   16.78
  -8  33  -5   42.03   19.48
  33 -25  -5    3.13   17.99
  -8  33  -5   -9.76   17.62
  -8  33  -5   64.09   21.77
  33 -25  -5   27.19   17.30
 -25  -8  -5   14.95   16.54
 -25  -8  -5   16.45   18.33
  -8  33  -2   31.90   19.65
  -8  33  -2   27.64   18.60
  -8  33  -2   -0.45   14.93
 -25  -8  -2    3.94   15.63
 -25  -8  -2   15.85   18.84
  -8  33   1   71.86   22.08
  -8  33   1   44.22   18.46
  -8  33   1   93.31   18.41
  -8  33   4   32.01   18.38
  -9  33  -3   50.91   21.83
  33 -24  -3  114.67   24.28
 -24  -9  -3   56.25   19.76
  -9  33  -3   62.07   21.18
  -9  33  -3   99.97   23.27
  33 -24  -3  100.48   17.56
 -24  -9  -3  154.81   24.12
  -9  33   0   12.56   17.56
 -24  -9   0   20.55   16.82
  -9  33   0   27.51   17.96
  -9  33   0   30.99   15.96
 -24  -9   0   31.04   13.68
  -9  33   3  161.57   25.87
 -10  33  -4   -0.25   15.73
  33 -23  -4    7.66   16.97
 -10  33  -4   -5.39   17.38
 -10  33  -4   -0.99   16.76
  33 -23  -4   21.55   14.88
  33 -23  -4    6.79   17.76
 -23 -10  -4   21.83   19.37
 -23 -10  -4    0.17   17.04
 -10  33  -1   18.77   18.11
 -10  33  -1   24.95   17.36
 -10  33  -1   17.12   14.79
 -23 -10  -1   19.03   14.03
 -23 -10  -1   -3.79   16.88
 -10  33   2   34.36   21.70
 -10  33   2   32.04   18.38
 -10  33   2   28.34   13.61
 -10  33   5   26.99   18.69
  33 -22  -5   39.40   21.18
 -22 -11  -5  -10.37   16.09
 -11  33  -5  -15.13   17.03
 -11  33  -5   -5.10   17.00
  33 -22  -5   15.20   15.58
  33 -22  -5   42.33   21.06
 -22 -11  -5    4.20   17.42
 -11  33  -5   23.98   18.66
 -11  33  -2   75.74   22.80
  33 -22  -2   73.64   22.15
 -11  33  -2   41.69   19.65
 -11  33  -2   56.16   19.22
 -22 -11  -2   18.91   16.62
  33 -22  -2   49.64   13.36
  33 -22  -2   26.56   17.76
 -22 -11  -2   38.28   16.22
 -11  33   1   60.18   22.39
 -11  33   1   12.20   16.04
 -11  33   1   47.15   16.29
 -22 -11   1   26.60   19.45
  33 -21  -3  112.95   25.13
 -12  33  -3  152.50   25.13
 -12  33  -3  190.71   26.07
  33 -21  -3  157.34   20.59
 -21 -12  -3  196.27   26.89
  33 -21  -3  134.67   24.98
 -21 -12  -3  192.96   26.71
 -12  33  -3  174.49   26.38
 -12  33   0   24.46   19.19
 -12  33   0   34.24   16.29
 -21 -12   0   46.10   17.61
 -21 -12   0   27.16   12.87
 -12  33   3   68.15   24.14
 -12  33   3   87.31   15.86
  33 -20  -4    8.34   18.69
 -20 -13  -4   15.42   17.29
 -13  33  -4   25.76   16.11
 -13  33  -4   15.78   17.41
  33 -20  -4   28.16   15.07
  33 -20  -4   17.38   18.28
 -13  33  -4   23.74   17.67
 -13  33  -1   22.88   19.03
  33 -20  -1   36.18   18.14
 -13  33  -1   16.30   15.48
  33 -20  -1    9.90   10.59
 -20 -13  -1   31.49   17.02
  33 -20  -1   34.95   17.49
 -20 -13  -1    7.53   13.55
 -13  33   2   22.45   18.07
 -13  33   2   13.52   13.62
 -14  33  -5    8.25   16.52
 -14  33  -5   27.47   18.11
  33 -19  -5   -2.64   14.49
  33 -19  -5    6.23   17.14
 -19 -14  -5   10.03   16.57
 -14  33  -5  -17.45   16.37
  33 -19  -5   12.29   17.15
  33 -19  -2   15.00   17.44
 -14  33  -2   -8.55   16.51
  33 -19  -2   12.53   12.28
  33 -19  -2   10.82   15.32
 -19 -14  -2    9.66   16.45
 -14  33  -2    3.34   16.87
 -14  33   1   13.81   17.40
  33 -19   1   64.93   18.66
 -19 -14   1   36.89   12.81
 -19 -14   1   51.67   20.11
 -14  33   4   43.78   21.73
 -15  33  -6   31.90   18.75
 -15  33  -6   39.35   20.19
  33 -18  -6   24.09   18.26
 -18 -15  -6    3.42   16.94
  33 -18  -6   43.30   20.18
 -15  33  -6   20.01   18.88
  33 -18  -6   61.39   21.25
 -15  33  -3  184.29   27.77
 -18 -15  -3  135.80   24.54
  33 -18  -3  180.48   27.43
  33 -18  -3  141.16   26.20
 -15  33  -3  136.45   24.74
 -15  33   0   74.86   21.55
  33 -18   0   17.97   19.20
  33 -18   0   43.37   18.15
 -18 -15   0   71.53   21.58
 -15  33   3   73.02   24.06
  33 -17  -4    4.05   16.78
 -17 -16  -4   47.65   19.17
 -16  33  -4    1.46   15.14
  33 -17  -4    6.14   18.55
  33 -17  -1  -13.74   15.83
  33 -17  -1   -6.45   15.58
 -17 -16  -1    4.86   15.24
 -16  33  -1  -15.23   15.58
 -16  33   2   23.19   20.45
 -17 -16   2   36.93   19.07
  33 -17   2   56.71   17.94
 -16  33   5   57.65   24.59
 -17  33  -5    6.86   17.65
 -17  33  -5  -11.64   17.92
  33 -16  -5    5.99   16.15
 -16 -17  -5   27.91   17.45
 -17  33  -5   11.98   15.94
  33 -16  -5   -8.93   16.86
 -16 -17  -2   16.21   15.30
  33 -16  -2   28.46   17.10
 -17  33  -2   13.74   18.49
  33 -16  -2   31.54   18.14
 -17  33   1   44.72   20.31
  33 -16   1   16.00   16.20
  33 -16   1    5.57   15.37
 -16 -17   1   30.56   17.31
 -17  33   4   25.22   19.92
 -18  33  -6   61.25   20.19
 -18  33  -6   35.89   20.56
 -15 -18  -6   54.65   19.10
  33 -15  -6   54.86   21.27
 -18  33  -6   51.95   20.13
  33 -15  -6   10.88   17.65
  33 -15  -3  137.40   24.69
 -15 -18  -3   74.35   20.62
 -18  33  -3   72.37   21.07
  33 -15  -3   76.34   21.30
  33 -15   0   97.25   22.27
 -15 -18   0   53.90   19.87
  33 -15   0   84.32   21.09
 -18  33   0   27.24   19.96
  33 -15   3  123.31   22.26
 -18  33   3  189.71   29.09
 -18  33   6   -8.74   21.81
  33 -14  -4   73.39   22.20
 -14 -19  -4   20.46   16.37
 -19  33  -4   12.52   16.36
  33 -14  -4   37.01   17.95
  33 -14  -1   75.12   19.30
 -14 -19  -1   82.46   20.41
 -19  33  -1   61.60   20.90
  33 -14  -1   64.19   21.20
 -19  33   2   12.00   16.98
  33 -14   2  -11.82   17.27
  33 -14   2   18.35   16.04
 -14 -19   2   -0.35   16.84
 -19  33   5  -11.12   21.48
 -13 -20  -5   18.15   16.78
  33 -13  -5   30.83   18.56
 -20  33  -5    6.21   16.81
  33 -13  -5   -9.99   16.37
 -13 -20  -2   26.64   18.36
  33 -13  -2   32.49   17.68
 -20  33  -2   23.65   17.66
  33 -13  -2   50.70   18.81
  33 -13   1   14.48   15.92
  33 -13   1   28.80   16.56
 -13 -20   1   16.12   15.70
 -20  33   1   35.32   19.95
 -20  33   4    3.06   19.13
  33 -13   4   17.02   14.36
  33 -12  -3   60.07   21.28
 -12 -21  -3   64.03   19.03
 -21  33  -3  110.44   23.69
  33 -12  -3   62.25   20.40
  33 -12   0   29.46   17.38
 -21  33   0   62.15   22.44
 -12 -21   0   43.19   19.34
  33 -12   0   35.13   17.86
  33 -12   3  137.44   24.85
  33 -12   3  187.17   25.15
 -12 -21   3  239.03   32.08
 -21  33   3  159.02   30.39
  33 -11  -4    7.71   16.08
 -11 -22  -4   27.95   18.28
  33 -11  -4   20.61   16.73
 -22  33  -4   15.90   17.57
 -11 -22  -1   93.71   21.20
  33 -11  -1   61.47   18.69
 -22  33  -1   75.03   21.92
  33 -11  -1   32.06   16.48
 -22  33   2    7.05   18.23
  33 -11   2   61.31   20.07
 -11 -22   2   45.45   20.08
  33 -11   2   39.89   17.71
 -22  33   5   19.31   20.70
  33 -11   5   44.56   16.44
 -10 -23  -5  -22.64   15.41
  33 -10  -5    6.95   16.22
  33 -10  -5   12.70   17.04
 -23  33  -5    9.21   16.44
  33 -10  -2   32.38   19.00
 -10 -23  -2   14.12   16.96
 -23  33  -2   15.20   17.94
  33 -10  -2   15.06   16.49
  33 -10   1   -0.80   17.70
 -10 -23   1    4.06   16.63
  33 -10   1   -1.76   15.17
 -23  33   1  -10.08   18.65
 -23  33   4  -13.21   19.02
  33 -10   4   28.68   15.39
  33  -9  -3   99.92   23.62
  -9 -24  -3   77.59   20.01
  33  -9  -3  122.71   23.29
 -24  33  -3  115.20   25.58
  33  -9   0   32.43   17.19
  -9 -24   0   11.95   17.08
 -24  33   0   61.61   20.48
  33  -9   0   39.74   19.16
 -24  33   3   60.71   22.72
  -9 -24   3   96.39   22.98
  33  -9   3   63.57   20.71
  33  -9   3  104.71   20.98
  -8 -25  -4   15.44   17.14
  33  -8  -4   15.58   18.76
  33  -8  -4   35.98   18.38
 -25  33  -4    5.99   16.76
  -8 -25  -1   75.29   22.56
  33  -8  -1   95.49   21.71
 -25  33  -1   64.39   21.29
  33  -8  -1   60.75   20.71
  33  -8   2    6.86   16.42
  33  -8   2   33.71   15.55
  -8 -25   2    3.10   17.00
 -25  33   2   -3.54   18.22
 -25  33   5   41.10   22.07
  33  -8   5   47.29   17.80
  33  -7  -2   31.36   17.08
  -7 -26  -2   25.70   17.00
  33  -7  -2   11.89   15.68
 -26  33  -2   20.69   19.44
  -7 -26   1   24.93   17.85
  33  -7   1   30.07   17.14
 -26  33   1   11.59   18.23
  33  -7   1  -12.34   15.99
 -26  33   4   22.39   20.30
  33  -7   4   41.13   20.27
  33  -7   4   18.13   15.57
  33  -6  -3   14.58   16.18
  -6 -27  -3    9.24   15.98
  33  -6  -3   29.96   20.21
 -27  33  -3   43.33   19.08
  33  -6   0    7.92   16.01
  -6 -27   0  -18.54   15.89
 -27  33   0    1.36   17.26
  33  -6   0  -17.25   16.61
  33  -6   3   56.66   21.02
  33  -6   3   36.50   17.47
  -6 -27   3   40.58   22.84
 -27  33   3   59.79   23.51
  -5 -28  -1   36.55   20.44
  33  -5  -1  107.72   21.99
  33  -5  -1   69.15   21.39
 -28  33  -1   63.82   20.73
  33  -5   2    8.19   15.51
  -5 -28   2   -9.46   18.86
 -28  33   2    8.52   17.09
  33  -5   2   12.10   17.91
  33  -4  -2    1.59   16.85
  -4 -29  -2  -12.91   16.10
  33  -4  -2   37.21   20.26
 -29  33  -2  -10.55   18.08
  -4 -29   1  -24.88   16.93
  33  -4   1    0.72   14.89
 -29  33   1   -7.64   18.24
  33  -4   1  -13.68   16.61
  33  -3   0    0.44   15.61
  -3 -30   0   27.31   18.04
 -30  33   0   16.36   17.71
  33  -3   0  -17.27   18.91
  33  -2  -1  147.68   25.89
  33  -2  -1  134.48   24.94
 -31  33  -1  125.90   26.21
  -2 -31  -1   57.31   20.92
  -5  34   0   10.44   18.81
  -5  34   0   28.95   15.37
  -6  34  -1   30.16   20.71
  -6  34  -1   22.61   20.55
  -6  34  -1   25.80   16.69
 -28  -6  -1    2.38   17.40
 -28  -6  -1   13.53   13.94
  -6  34   2   15.54   16.62
  -7  34  -2   12.32   18.10
  -7  34  -2   25.47   18.86
  -7  34  -2   28.46   17.76
 -27  -7  -2   34.00   19.86
 -27  -7  -2   39.28   18.56
  -7  34   1   14.26   21.42
  -7  34   1   24.46   19.05
  -7  34   1   50.02   16.67
  -8  34  -3   30.16   18.81
  -8  34  -3   54.79   21.03
  -8  34  -3   75.31   22.97
 -26  -8  -3   56.70   21.63
 -26  -8  -3   33.79   18.50
  -8  34   0   17.75   19.03
  -8  34   0   35.78   20.40
  -8  34   0   30.43   15.21
 -26  -8   0   -6.64   19.62
 -26  -8   0   21.21   13.73
  -8  34   3   32.49   17.88
  -9  34  -4   -2.14   19.09
  34 -25  -4   12.86   18.25
  -9  34  -4    6.04   18.03
  -9  34  -4   27.37   19.53
  34 -25  -4   -0.20   13.57
 -25  -9  -4  -10.22   18.33
 -25  -9  -4   -6.14   15.45
  -9  34  -1   23.97   18.71
  -9  34  -1   12.21   18.28
  -9  34  -1   17.00   14.86
 -25  -9  -1   34.53   20.70
 -25  -9  -1   28.26   15.51
  -9  34   2  -30.69   21.52
  -9  34   2   -1.76   16.36
 -10  34  -2   32.01   20.00
  34 -24  -2   32.65   17.59
 -10  34  -2   33.58   18.62
 -10  34  -2   53.99   19.42
 -24 -10  -2   59.61   19.67
 -24 -10  -2   22.84   16.55
 -10  34   1   55.80   22.93
 -10  34   1   43.11   19.54
 -10  34   1   53.85   16.66
 -10  34   4   41.34   19.22
 -11  34  -3  105.55   23.50
  34 -23  -3   62.15   21.31
 -11  34  -3   65.66   20.75
 -11  34  -3  104.01   23.18
  34 -23  -3   73.66   16.71
  34 -23  -3   66.70   21.43
 -23 -11  -3   89.24   21.33
 -23 -11  -3   63.85   20.68
 -11  34   0   10.08   18.29
 -11  34   0   41.04   19.53
 -11  34   0    5.07   13.70
 -23 -11   0   15.25   13.56
 -23 -11   0   38.59   19.28
 -11  34   3   36.22   21.30
 -11  34   3   22.79   17.62
  34 -22  -4  -37.89   18.27
 -12  34  -4   -4.27   17.09
 -12  34  -4   41.61   19.20
  34 -22  -4   -7.18   14.44
 -22 -12  -4    7.68   19.40
  34 -22  -4  -17.44   17.67
 -22 -12  -4   -5.11   16.56
 -12  34  -4    6.30   20.05
 -12  34  -1   51.84   20.81
  34 -22  -1   29.79   18.45
 -12  34  -1   33.40   18.12
 -12  34  -1   58.96   19.48
  34 -22  -1   68.19   20.95
 -22 -12  -1   22.01   14.69
 -22 -12  -1   26.30   19.04
 -12  34   2   62.17   22.86
 -12  34   2   -2.67   13.32
  34 -21  -5    9.92   17.96
 -13  34  -5   -4.92   16.43
 -13  34  -5   17.89   18.09
  34 -21  -5    0.76   15.74
  34 -21  -5    2.04   18.46
 -21 -13  -5   21.62   19.21
 -21 -13  -5   -5.29   17.32
 -13  34  -5   16.39   18.67
 -13  34  -2   45.84   21.31
  34 -21  -2   42.25   19.93
 -21 -13  -2   22.93   16.57
 -13  34  -2   47.87   19.16
 -13  34  -2   51.66   19.68
  34 -21  -2   53.28   13.86
  34 -21  -2   63.63   20.69
 -21 -13  -2   61.50   19.82
 -13  34   1    3.83   17.42
 -13  34   1   40.17   15.93
 -21 -13   1  -14.89   17.53
 -13  34   4   38.06   22.67
  34 -20  -3   77.61   23.83
 -14  34  -3  120.58   23.52
 -14  34  -3  106.51   23.41
  34 -20  -3   81.38   17.97
  34 -20  -3   73.47   22.61
 -20 -14  -3  102.34   21.61
 -14  34  -3   86.12   22.77
 -14  34   0   50.60   20.67
  34 -20   0   41.24   19.39
 -14  34   0   34.18   16.18
  34 -20   0   84.86   22.32
 -20 -14   0   42.34   15.25
 -20 -14   0   85.62   23.00
 -14  34   3  109.04   26.95
 -19 -15  -4   -5.61   16.27
 -15  34  -4   57.04   21.17
 -15  34  -4   45.98   20.06
  34 -19  -4   49.53   17.39
  34 -19  -4   43.64   18.55
 -15  34  -4   28.22   18.16
  34 -19  -4   38.81   19.37
 -15  34  -1    4.75   17.82
  34 -19  -1    8.40   16.75
  34 -19  -1   24.69   11.89
 -19 -15  -1  -10.95   17.10
  34 -19  -1   -1.97   15.12
 -15  34   2   37.23   20.09
 -19 -15   2   17.64   18.03
 -15  34   5    9.36   21.61
 -16  34  -5   18.12   17.64
 -16  34  -5    1.37   18.10
  34 -18  -5    5.07   16.60
  34 -18  -5   -6.25   18.45
 -18 -16  -5  -27.91   17.94
 -16  34  -5   11.78   17.64
  34 -18  -5    0.26   17.74
  34 -18  -2   18.65   19.07
  34 -18  -2    2.79   15.90
 -18 -16  -2   -5.47   15.91
 -16  34  -2   43.02   19.72
 -16  34   1  -19.62   18.97
  34 -18   1  -11.74   17.60
 -18 -16   1    0.05   15.93
  34 -18   1  -35.05   16.90
 -16  34   4   65.23   23.25
 -17 -17  -3  102.32   22.67
  34 -17  -3  116.84   23.77
  34 -17  -3  164.66   27.78
 -17  34  -3  137.40   26.99
 -17  34   0   85.08   24.07
  34 -17   0   87.08   21.66
 -17 -17   0   61.37   21.53
  34 -17   0   87.48   20.67
 -17  34   3  157.86   29.01
  34 -17   3  112.90   21.16
  34 -16  -4   64.59   20.30
 -16 -18  -4   40.53   18.41
 -18  34  -4   63.50   20.92
  34 -16  -4   84.11   24.01
  34 -16  -1   -2.33   16.93
  34 -16  -1   39.54   19.02
 -16 -18  -1   -9.58   18.08
 -18  34  -1    7.84   16.15
 -16 -18   2   12.16   17.48
 -18  34   2   25.87   17.55
  34 -16   2    7.76   17.32
  34 -16   2   48.38   18.66
 -18  34   5    1.58   20.62
  34 -15  -5   11.33   17.04
 -15 -19  -5  -21.07   16.87
 -19  34  -5   24.84   18.63
  34 -15  -5   29.98   18.49
 -15 -19  -2   38.61   17.71
  34 -15  -2   10.35   17.25
 -19  34  -2  -12.07   19.05
  34 -15  -2   28.70   18.42
 -19  34   1  -10.05   17.32
  34 -15   1   -2.01   17.07
  34 -15   1    2.59   15.81
 -15 -19   1    5.50   16.06
 -19  34   4   21.26   20.44
  34 -15   4   19.59   15.77
  34 -14  -3  139.16   26.40
 -20  34  -3  156.62   28.06
 -14 -20  -3   95.31   22.61
  34 -14  -3  136.14   26.03
  34 -14   0   43.13   19.77
 -14 -20   0   52.37   19.27
  34 -14   0   38.43   19.23
 -20  34   0   21.02   19.62
 -20  34   3   83.64   24.10
 -14 -20   3   38.63   20.15
  34 -14   3   48.24   17.12
  34 -13  -4   67.63   20.36
 -13 -21  -4   15.52   16.87
 -21  34  -4    4.77   18.56
  34 -13  -4    8.97   17.12
  34 -13  -1   39.32   16.94
 -13 -21  -1   15.41   16.15
 -21  34  -1   11.43   18.79
  34 -13  -1   20.14   17.70
 -21  34   2   65.87   22.49
  34 -13   2   31.54   18.49
 -13 -21   2   64.86   21.27
  34 -13   2   57.18   17.76
 -21  34   5   26.42   21.20
 -12 -22  -2  -10.00   17.71
  34 -12  -2    5.35   15.36
 -22  34  -2   -0.11   17.31
  34 -12  -2   11.86   18.84
  34 -12   1   51.09   19.31
 -12 -22   1   66.12   20.69
  34 -12   1   71.71   19.99
 -22  34   1   33.37   21.12
 -22  34   4  -15.98   20.64
  34 -12   4    0.54   14.61
  34 -11  -3   86.08   21.56
 -11 -23  -3   64.31   20.57
 -23  34  -3   58.82   22.12
  34 -11  -3   49.71   20.20
  34 -11   0   12.57   15.86
 -23  34   0   39.33   20.74
 -11 -23   0   36.82   19.84
  34 -11   0    4.65   17.73
 -23  34   3   37.58   24.02
  34 -11   3   53.09   20.31
  34 -11   3   60.10   18.51
 -11 -23   3   43.43   20.48
  34 -10  -4   65.35   20.50
 -10 -24  -4   41.56   20.50
  34 -10  -4   25.73   19.05
 -24  34  -4   20.57   17.69
 -10 -24  -1   40.51   18.29
  34 -10  -1   68.59   21.05
 -24  34  -1   67.11   23.12
  34 -10  -1   23.30   17.23
  34 -10   2   50.34   20.10
 -10 -24   2   72.98   23.67
  34 -10   2   53.52   17.99
 -24  34   2   60.55   22.85
  34  -9  -2   29.43   17.32
 -25  34  -2   30.84   18.78
  -9 -25  -2   13.73   16.15
  34  -9  -2   15.42   16.00
  34  -9   1   16.85   17.23
  -9 -25   1   72.88   23.99
  34  -9   1   55.18   18.22
 -25  34   1    6.27   17.33
 -25  34   4   45.03   24.00
  34  -9   4    2.96   14.62
  34  -8  -3    9.85   18.38
  -8 -26  -3   31.05   17.80
  34  -8  -3    2.56   17.40
 -26  34  -3   33.05   22.40
  34  -8   0   40.41   18.57
  -8 -26   0   10.78   17.43
 -26  34   0   12.73   18.89
  34  -8   0   -2.38   15.84
 -26  34   3   61.16   24.54
  -8 -26   3   38.85   21.11
  34  -8   3   44.94   21.76
  34  -8   3   17.02   15.93
  -7 -27  -1   69.96   21.40
  34  -7  -1   53.65   20.19
 -27  34  -1   19.19   19.82
  34  -7  -1   46.70   19.91
  34  -7   2   52.23   20.97
  34  -7   2   16.43   16.97
  -7 -27   2   46.86   21.69
 -27  34   2   34.48   20.28
  34  -6  -2   35.78   20.11
  -6 -28  -2    8.84   16.12
  34  -6  -2   16.28   18.62
 -28  34  -2   37.56   20.36
  -6 -28   1   -4.10   17.40
  34  -6   1   18.81   17.51
 -28  34   1   14.27   20.26
  34  -6   1   28.98   20.21
  34  -5   0   55.34   19.71
  -5 -29   0   26.07   18.30
 -29  34   0   22.96   19.02
  34  -5   0   17.96   17.37
  -7  35   0  -19.02   21.55
  -7  35   0    5.63   16.00
  -8  35  -1   37.27   23.17
  -8  35  -1   18.57   19.92
 -27  -8  -1   54.69   20.39
  -8  35  -1   -6.25   16.54
 -27  -8  -1   43.76   16.47
  -8  35   2   20.88   19.51
  -9  35  -2   59.93   24.00
  -9  35  -2   73.56   21.83
  -9  35  -2   81.06   22.19
 -26  -9  -2   81.34   20.83
 -26  -9  -2   81.88   22.98
  -9  35   1   26.68   22.35
  -9  35   1  -17.78   17.56
  -9  35   1   15.08   14.13
 -10  35  -3    3.81   18.71
  35 -25  -3  -27.81   20.06
 -10  35  -3  -22.48   19.35
 -10  35  -3   -3.89   16.90
 -25 -10  -3   10.34   17.14
 -25 -10  -3   -5.53   17.68
 -10  35   0   45.00   21.44
 -10  35   0   82.12   23.94
 -10  35   0   49.01   17.25
 -25 -10   0  102.73   24.17
 -10  35   3   35.41   19.75
 -11  35  -1   59.39   23.89
 -11  35  -1   47.15   20.36
 -24 -11  -1   18.54   18.34
 -11  35  -1   44.21   18.34
 -24 -11  -1   11.35   13.77
 -11  35   2   29.63   21.61
 -11  35   2  -11.34   17.95
 -12  35  -2   -1.89   16.79
  35 -23  -2   17.03   17.84
 -12  35  -2   21.37   20.77
 -12  35  -2    7.30   16.85
 -23 -12  -2   26.93   18.41
 -23 -12  -2   18.89   16.95
 -12  35   1   22.31   21.96
 -12  35   1   46.07   18.59
 -23 -12   1   64.36   22.34
 -12  35   1   32.34   16.12
 -13  35  -3   26.02   21.83
  35 -22  -3   31.67   19.64
 -13  35  -3    8.79   18.72
 -13  35  -3  -33.70   20.09
  35 -22  -3   18.16   14.65
  35 -22  -3    8.37   18.37
 -22 -13  -3    6.29   16.33
 -22 -13  -3   35.27   19.75
 -13  35   0   74.82   22.67
 -13  35   0  133.63   24.29
 -13  35   0   92.33   20.74
 -22 -13   0  167.97   28.48
 -22 -13   0  126.78   19.34
 -13  35   3  -23.71   23.14
  35 -21  -4   -6.00   18.19
 -14  35  -4  -18.58   17.00
 -14  35  -4    2.71   19.26
  35 -21  -4    4.94   14.87
 -21 -14  -4    6.87   16.22
  35 -21  -4    0.32   17.60
 -14  35  -4   30.84   20.06
 -14  35  -1    0.31   17.38
  35 -21  -1   10.55   16.08
 -14  35  -1   10.96   16.06
 -21 -14  -1  -14.41   17.37
  35 -21  -1   55.96   20.98
 -21 -14  -1   13.64   15.14
 -14  35   2   16.35   19.02
 -14  35   2    5.48   14.34
 -20 -15  -2   17.70   19.28
  35 -20  -2   20.37   18.30
 -15  35  -2   34.16   18.52
  35 -20  -2  -16.09   18.05
 -15  35  -2   23.95   20.52
 -15  35   1  -14.23   18.94
 -15  35   1   43.95   17.23
  35 -20   1   37.87   18.68
 -20 -15   1   49.56   20.04
 -15  35   4    2.48   23.33
  35 -19  -3   10.10   17.12
 -16  35  -3   28.72   18.78
  35 -19  -3  -19.43   14.71
 -19 -16  -3   20.54   19.82
  35 -19  -3    6.95   16.20
 -16  35  -3   18.02   19.42
  35 -19   0  123.48   25.02
  35 -19   0  143.14   26.24
 -19 -16   0  185.84   27.40
 -16  35   0  191.80   30.21
 -16  35   3  -10.10   22.57
 -17  35  -4   36.91   19.94
 -17  35  -4   25.37   20.58
  35 -18  -4   37.92   17.22
  35 -18  -4   29.59   19.53
 -17  35  -4   13.58   17.75
 -18 -17  -4   -5.67   17.82
  35 -18  -4   -4.59   19.80
  35 -18  -1   -5.34   17.50
 -18 -17  -1   19.73   17.27
  35 -18  -1   21.45   16.58
 -17  35  -1   51.26   20.54
 -17  35   2   20.03   20.07
  35 -18   2    1.37   15.86
 -18 -17   2   -1.54   17.05
  35 -17  -2    4.18   17.63
  35 -17  -2    2.65   17.71
 -17 -18  -2    5.35   15.58
 -18  35  -2    0.83   18.31
 -18  35   1   -8.36   17.68
  35 -17   1   23.65   18.78
 -17 -18   1   34.78   18.32
  35 -17   1   17.75   16.77
 -18  35   4    2.96   20.50
 -16 -19  -3   11.45   15.81
  35 -16  -3   21.09   18.90
 -19  35  -3   18.63   20.83
  35 -16  -3   22.90   21.12
  35 -16   0  119.11   26.31
  35 -16   0  183.57   26.46
 -16 -19   0  198.14   28.63
 -19  35   0  164.21   28.08
 -19  35   3   21.72   19.41
  35 -16   3    8.24   15.17
  35 -15  -4   13.46   17.45
 -15 -20  -4   13.89   17.14
 -20  35  -4    8.73   18.15
  35 -15  -4   26.78   17.83
  35 -15  -1   47.32   20.17
  35 -15  -1   30.67   19.12
 -15 -20  -1   20.08   16.04
 -20  35  -1   20.95   18.92
 -20  35   2   -6.40   18.74
  35 -15   2    6.51   18.99
  35 -15   2   12.06   15.84
 -15 -20   2   -6.42   16.83
 -14 -21  -2    3.10   16.43
  35 -14  -2   32.06   20.28
 -21  35  -2    5.56   19.17
  35 -14  -2   11.71   17.75
 -21  35   1   20.21   19.92
  35 -14   1    4.36   17.80
  35 -14   1   19.20   16.46
 -14 -21   1   27.89   20.45
 -21  35   4   -4.35   20.06
  35 -14   4   42.14   18.39
  35 -13  -3   23.09   18.68
 -13 -22  -3   50.31   20.08
 -22  35  -3   13.11   19.40
  35 -13  -3   11.74   19.31
  35 -13   0   90.07   22.44
 -13 -22   0  102.94   23.19
  35 -13   0   94.70   22.50
 -22  35   0   79.72   24.90
 -13 -22   3   -2.06   18.28
 -22  35   3   31.29   21.85
  35 -13   3   -1.97   16.57
  35 -12  -1   33.21   19.80
 -12 -23  -1   43.93   18.73
 -23  35  -1   48.24   21.38
  35 -12  -1    7.14   19.44
 -23  35   2   19.74   20.57
  35 -12   2   56.32   20.34
 -12 -23   2   64.09   22.02
  35 -12   2   23.71   16.21
 -11 -24  -2   10.51   17.86
  35 -11  -2    2.02   17.82
 -24  35  -2   -2.78   18.36
  35 -11  -2    2.69   16.18
  35 -11   1   15.07   18.27
 -11 -24   1    9.29   16.52
  35 -11   1   55.93   19.08
 -24  35   1   47.54   25.65
  35 -10  -3  -11.92   17.43
 -10 -25  -3    6.02   16.45
 -25  35  -3   23.00   19.72
  35 -10  -3   11.84   18.32
 -10 -25   0   29.93   21.11
  35 -10   0   50.35   19.75
 -25  35   0    8.37   18.44
  35 -10   0   62.11   21.96
 -25  35   3    9.95   19.56
  35 -10   3   11.94   17.69
 -10 -25   3   19.02   19.27
  35 -10   3   15.98   16.89
  -9 -26  -1   -1.69   18.22
  35  -9  -1   17.57   16.79
 -26  35  -1   -7.91   17.23
  35  -9  -1    9.03   19.24
  35  -9   2   69.03   22.05
  -9 -26   2   48.05   21.96
  35  -9   2   64.29   19.51
 -26  35   2   90.93   25.34
  35  -8  -2   22.87   18.38
 -27  35  -2   42.78   20.64
  35  -8  -2    2.54   16.89
  -8 -27  -2    3.34   17.45
  -8 -27   1  -17.63   17.46
  35  -8   1    7.51   16.96
  35  -8   1  -13.60   19.13
  35  -7   0   29.50   18.09
  -7 -28   0   26.88   18.62
 -28  35   0   36.75   22.79
  35  -7   0   40.15   19.47
 -11  36   1   90.53   30.20
 -11  36   1   89.72   24.08
 -11  36   1  128.23   21.85
 -24 -12   0   19.62   20.26
 -12  36   0    1.25   19.40
 -12  36   0   -6.92   18.15
 -12  36   0   31.31   18.16
 -13  36  -1   -7.77   20.62
 -13  36  -1   11.31   19.95
 -13  36  -1   12.95   16.71
 -23 -13  -1    9.77   14.93
 -23 -13  -1   -6.95   18.88
 -13  36   2   28.83   22.19
 -13  36   2   26.67   19.86
 -14  36  -2   21.96   19.19
  36 -22  -2    8.42   18.25
 -14  36  -2    8.39   16.94
 -14  36  -2   50.64   20.74
 -22 -14  -2   24.59   18.23
  36 -22  -2   13.05   19.00
 -22 -14  -2   60.29   20.09
 -14  36   1   77.18   25.25
 -14  36   1   56.43   18.08
 -22 -14   1   59.13   21.92
  36 -21  -3   73.79   23.88
 -15  36  -3  147.91   26.87
 -15  36  -3  102.29   24.72
  36 -21  -3   41.02   22.75
 -21 -15  -3   71.69   22.72
 -21 -15  -3   47.39   22.68
 -15  36  -3   84.36   24.67
 -15  36   0   53.89   24.95
  36 -21   0    4.17   17.53
 -15  36   0   64.06   19.39
 -21 -15   0   27.93   19.41
  36 -21   0   65.72   21.79
 -15  36   3   17.44   22.78
 -16  36  -1   26.24   21.11
  36 -20  -1  -11.11   17.27
 -16  36  -1    9.51   16.90
 -20 -16  -1    9.94   18.89
  36 -20  -1    9.67   17.97
 -20 -16  -1    2.68   13.98
 -16  36   2   70.35   25.80
 -16  36   2   14.86   15.51
  36 -19  -2   23.05   21.20
 -17  36  -2   34.51   19.83
  36 -19  -2   50.36   20.97
 -19 -17  -2   47.36   20.49
 -17  36  -2   13.66   17.46
 -17  36   1   44.17   25.35
  36 -19   1   37.82   19.25
 -19 -17   1   31.15   20.04
  36 -18  -3   62.57   22.64
 -18 -18  -3   64.14   22.86
  36 -18  -3   43.24   20.70
 -18  36  -3   -6.87   18.17
 -18  36   0   10.16   20.11
  36 -18   0    9.86   19.35
  36 -18   0   38.88   20.37
 -18 -18   0   11.51   19.51
 -18  36   3   70.17   24.54
  36 -17  -1  -22.09   18.24
 -17 -19  -1   20.35   20.11
  36 -17  -1   48.64   20.36
 -19  36  -1   17.08   20.91
 -19  36   2   21.56   22.51
 -17 -19   2    9.22   20.17
  36 -17   2   -2.86   17.15
  36 -16  -2    9.44   17.58
  36 -16  -2   16.37   18.79
 -16 -20  -2  -12.52   17.91
 -20  36  -2   50.11   20.84
 -20  36   1   12.23   23.08
  36 -16   1   34.04   21.15
 -16 -20   1  -32.38   19.63
  36 -16   1   -1.95   15.60
 -15 -21  -3   53.58   20.81
  36 -15  -3   83.16   22.20
 -21  36  -3   24.35   21.21
  36 -15  -3   33.27   20.68
  36 -15   0   28.59   18.83
 -15 -21   0    9.18   17.30
  36 -15   0   26.37   19.40
 -21  36   0   38.34   21.15
 -21  36   3  111.66   28.66
  36 -15   3   69.03   20.46
  36 -14  -1   15.85   18.53
  36 -14  -1   22.01   18.36
 -14 -22  -1   40.16   19.68
 -22  36  -1   49.88   23.33
 -22  36   2   34.46   21.74
  36 -14   2   45.27   22.13
  36 -14   2   22.67   17.21
 -14 -22   2   31.85   22.23
 -13 -23  -2   51.62   20.87
  36 -13  -2   43.27   21.28
 -23  36  -2   45.61   21.70
  36 -13  -2   16.78   19.89
  36 -13   1    5.84   18.92
  36 -13   1   19.62   17.96
 -13 -23   1   -7.04   18.80
 -23  36   1    4.46   18.61
  36 -12   0   26.50   20.44
 -12 -24   0    8.86   17.28
  36 -12   0    9.33   19.25
 -24  36   0    3.90   19.29
  36 -11  -1   95.25   24.76
 -11 -25  -1   50.50   21.68
 -25  36  -1   46.57   22.69
  36 -11  -1   86.09   23.58
 -16  37   1    5.40   22.24
 -16  37   1   18.32   17.82
 -21 -16   1  -15.35   19.68
 -17  37   0   10.70   18.20
 -20 -17   0   34.17   22.95
  37 -20   0   49.23   21.60
 -17  37   0   23.54   17.66
  37 -20   0   18.84   17.92
 -18  37  -1   23.32   21.19
  37 -19  -1   38.19   21.59
 -19 -18  -1    4.46   18.16
  37 -19  -1   19.75   18.79
 -19  37   1   43.69   23.29
  37 -18   1   24.89   20.04
  37 -18   1   25.79   18.81
 -18 -19   1   -7.09   19.91
 -20  37   0   14.35   19.97
  37 -17   0   57.36   21.83
  37 -17   0   19.40   17.08
 -17 -20   0   36.17   21.57
  37 -16  -1    6.39   19.23
 -16 -21  -1   -2.86   17.03
  37 -16  -1   37.17   20.14
 -21  37  -1   -7.24   20.60
   0   0   0    0.00    0.00


TITL YY_ZnAlaPyr_Dioxane_100K in R3
REM R3 (#146 in standard setting)
CELL 0.71073  28.684537  28.684537  10.143526  90.0000  90.0000 120.0000
ZERR   18.00   0.000712   0.000712   0.000229   0.0000   0.0000   0.0000
LATT -3
SYMM -y, x-y, z
SYMM -x+y,-x, z
SFAC C H N O Zn
UNIT 126.00 126.00 54.00 144.00 18.00
TREF
HKLF 4
END
_computing_structure_solution     'SHELXT 2014/5 (Sheldrick, 2014)'
;
_shelx_hkl_checksum              13992
_olex2_submission_special_instructions 'No special instructions were received'
_oxdiff_exptl_absorpt_empirical_details
;
Empirical correction (ABSPACK) includes:
- Absorption correction using spherical harmonics
- Frame scaling
- Detector area scaling
;
_oxdiff_exptl_absorpt_empirical_full_max 1.358
_oxdiff_exptl_absorpt_empirical_full_min 0.891
loop_
_space_group_symop_operation_xyz
'x, y, z'
'-y, x-y, z'
'-x+y, -x, z'
'x+2/3, y+1/3, z+1/3'
'-y+2/3, x-y+1/3, z+1/3'
'-x+y+2/3, -x+1/3, z+1/3'
'x+1/3, y+2/3, z+2/3'
'-y+1/3, x-y+2/3, z+2/3'
'-x+y+1/3, -x+2/3, z+2/3'
loop_
_atom_site_label
_atom_site_type_symbol
_atom_site_fract_x
_atom_site_fract_y
_atom_site_fract_z
_atom_site_U_iso_or_equiv
_atom_site_adp_type
_atom_site_occupancy
_atom_site_site_symmetry_order
_atom_site_calc_flag
_atom_site_refinement_flags_posn
_atom_site_refinement_flags_adp
_atom_site_refinement_flags_occupancy
_atom_site_disorder_assembly
_atom_site_disorder_group
Zn01 Zn 0.66918(5) 0.64617(4) 0.69844(8) 0.0224(3) Uani 1 1 d . . . . .
Zn02 Zn 0.33675(4) 0.35653(5) 0.54063(8) 0.0230(3) Uani 1 1 d . . . . .
O5 O 0.4024(3) 0.3351(3) 0.3485(6) 0.0288(16) Uani 1 1 d . . . . .
O2 O 0.7473(3) 0.6946(3) 0.6783(7) 0.0304(16) Uani 1 1 d . . . . .
O4 O 0.4148(3) 0.3870(3) 0.5218(7) 0.0312(16) Uani 1 1 d . . . . .
O1 O 0.7384(3) 0.7360(3) 0.5017(7) 0.0306(16) Uani 1 1 d . . . . .
N6 N 0.5254(3) 0.4326(3) 0.4820(8) 0.0267(18) Uani 1 1 d . . . . .
H6 H 0.5309 0.4430 0.5629 0.032 Uiso 1 1 calc R . . . .
N3 N 0.8580(3) 0.7598(4) 0.6517(8) 0.0271(18) Uani 1 1 d . . . . .
H3 H 0.8664 0.7593 0.7328 0.033 Uiso 1 1 calc R . . . .
N5 N 0.6430(4) 0.6135(4) 0.4187(8) 0.0286(19) Uani 1 1 d . . . . .
C2 C 0.9153(4) 0.7228(4) 0.6037(9) 0.0235(19) Uani 1 1 d . . . . .
O6 O 0.5475(4) 0.4547(4) 0.2677(8) 0.056(3) Uani 1 1 d . . . . .
N1 N 0.9721(4) 0.6905(4) 0.5966(8) 0.0270(18) Uani 1 1 d . . . . .
O3 O 0.8664(5) 0.7403(5) 0.4431(8) 0.059(3) Uani 1 1 d . . . . .
N2 N 0.9675(3) 0.7028(3) 0.7246(8) 0.0245(17) Uani 1 1 d . . . . .
N4 N 0.6349(4) 0.5986(3) 0.5470(8) 0.0274(18) Uani 1 1 d . . . . .
C5 C 0.8219(4) 0.7794(4) 0.6204(11) 0.029(2) Uani 1 1 d . . . . .
H5 H 0.8190 0.7960 0.7021 0.035 Uiso 1 1 calc R . . . .
C10 C 0.5868(4) 0.5254(4) 0.4279(9) 0.030(2) Uani 1 1 d . . . . .
C4 C 0.8789(5) 0.7424(5) 0.5599(10) 0.036(2) Uani 1 1 d . . . . .
C12 C 0.4882(4) 0.3769(4) 0.4531(10) 0.029(2) Uani 1 1 d . . . . .
H12 H 0.4992 0.3670 0.3710 0.035 Uiso 1 1 calc R . . . .
C13 C 0.4318(4) 0.3668(4) 0.4377(9) 0.025(2) Uani 1 1 d . . . . .
C11 C 0.5517(4) 0.4691(4) 0.3864(10) 0.033(2) Uani 1 1 d . . . . .
C6 C 0.7651(4) 0.7321(4) 0.5958(10) 0.025(2) Uani 1 1 d . . . . .
C3 C 0.9345(4) 0.7223(4) 0.7306(9) 0.0238(19) Uani 1 1 d . . . . .
H3A H 0.9253 0.7339 0.8069 0.029 Uiso 1 1 calc R . . . .
C14 C 0.4885(5) 0.3414(5) 0.5641(13) 0.044(3) Uani 1 1 d . . . . .
H14A H 0.5244 0.3478 0.5767 0.066 Uiso 1 1 calc GR . . . .
H14B H 0.4650 0.3042 0.5417 0.066 Uiso 1 1 calc GR . . . .
H14C H 0.4761 0.3496 0.6439 0.066 Uiso 1 1 calc GR . . . .
C8 C 0.6023(4) 0.5452(4) 0.5537(10) 0.028(2) Uani 1 1 d . . . . .
H8 H 0.5920 0.5248 0.6306 0.034 Uiso 1 1 calc R . . . .
C9 C 0.6143(5) 0.5697(4) 0.3465(10) 0.033(2) Uani 1 1 d . . . . .
H9 H 0.6130 0.5688 0.2549 0.040 Uiso 1 1 calc R . . . .
C1 C 0.9396(4) 0.7022(4) 0.5247(11) 0.032(2) Uani 1 1 d . . . . .
H1 H 0.9343 0.6970 0.4342 0.038 Uiso 1 1 calc R . . . .
C7 C 0.8448(8) 0.8233(8) 0.5243(18) 0.083(5) Uani 1 1 d . . . . .
H7A H 0.8808 0.8493 0.5502 0.125 Uiso 1 1 calc GR . . . .
H7B H 0.8232 0.8402 0.5208 0.125 Uiso 1 1 calc GR . . . .
H7C H 0.8455 0.8092 0.4390 0.125 Uiso 1 1 calc GR . . . .
O7 O 0.8454(12) 0.6380(12) 0.965(3) 0.044(7) Uiso 0.271(11) 1 d D U P A 1
C18 C 0.8040(16) 0.6259(16) 0.872(4) 0.036(9) Uiso 0.271(11) 1 d D U P A 1
H18A H 0.8102 0.6596 0.8336 0.043 Uiso 0.271(11) 1 calc R . P A 1
H18B H 0.7701 0.6104 0.9188 0.043 Uiso 0.271(11) 1 calc R . P A 1
O8 O 0.7911(17) 0.5452(16) 0.823(4) 0.069(10) Uiso 0.271(11) 1 d D U P A 1
C17 C 0.798(3) 0.590(2) 0.765(5) 0.072(13) Uiso 0.271(11) 1 d D U P A 1
H17A H 0.7671 0.5826 0.7115 0.086 Uiso 0.271(11) 1 calc R . P A 1
H17B H 0.8299 0.6060 0.7101 0.086 Uiso 0.271(11) 1 calc R . P A 1
C15 C 0.831(2) 0.5894(18) 1.020(5) 0.061(12) Uiso 0.271(11) 1 d D U P A 1
H15A H 0.7968 0.5759 1.0666 0.074 Uiso 0.271(11) 1 calc R . P A 1
H15B H 0.8578 0.5923 1.0812 0.074 Uiso 0.271(11) 1 calc R . P A 1
C16 C 0.825(3) 0.554(3) 0.912(5) 0.073(14) Uiso 0.271(11) 1 d D U P A 1
H16A H 0.8597 0.5682 0.8703 0.087 Uiso 0.271(11) 1 calc R . P A 1
H16B H 0.8160 0.5194 0.9500 0.087 Uiso 0.271(11) 1 calc R . P A 1
loop_
_atom_site_aniso_label
_atom_site_aniso_U_11
_atom_site_aniso_U_22
_atom_site_aniso_U_33
_atom_site_aniso_U_23
_atom_site_aniso_U_13
_atom_site_aniso_U_12
Zn01 0.0288(6) 0.0266(6) 0.0107(6) -0.0009(4) 0.0003(5) 0.0130(5)
Zn02 0.0271(6) 0.0323(6) 0.0094(6) 0.0009(5) -0.0003(4) 0.0147(5)
O5 0.040(4) 0.033(4) 0.012(3) 0.000(3) -0.006(3) 0.017(3)
O2 0.030(4) 0.027(3) 0.025(4) 0.005(3) -0.001(3) 0.007(3)
O4 0.028(4) 0.042(4) 0.020(4) -0.005(3) 0.000(3) 0.015(3)
O1 0.041(4) 0.038(4) 0.017(3) -0.006(3) -0.013(3) 0.023(3)
N6 0.034(4) 0.033(4) 0.011(4) -0.002(3) -0.003(3) 0.014(4)
N3 0.031(4) 0.041(5) 0.012(4) 0.001(3) 0.001(3) 0.020(4)
N5 0.041(5) 0.035(5) 0.008(4) -0.001(3) -0.001(3) 0.017(4)
C2 0.025(4) 0.034(5) 0.013(4) 0.000(4) 0.002(4) 0.015(4)
O6 0.071(6) 0.044(5) 0.012(4) -0.004(3) -0.008(4) -0.004(4)
N1 0.037(5) 0.036(5) 0.009(4) 0.002(3) 0.001(3) 0.019(4)
O3 0.092(7) 0.113(9) 0.015(4) -0.018(5) -0.019(4) 0.082(7)
N2 0.028(4) 0.034(4) 0.012(4) 0.004(3) 0.000(3) 0.016(4)
N4 0.037(5) 0.031(4) 0.012(4) 0.000(3) 0.005(3) 0.015(4)
C5 0.028(5) 0.028(5) 0.027(5) 0.000(4) -0.001(4) 0.011(4)
C10 0.032(5) 0.037(5) 0.014(5) 0.003(4) -0.003(4) 0.012(4)
C4 0.040(6) 0.053(7) 0.017(5) -0.003(5) -0.006(4) 0.025(5)
C12 0.034(5) 0.027(5) 0.024(5) -0.004(4) 0.000(4) 0.014(4)
C13 0.032(5) 0.023(4) 0.012(4) 0.004(4) 0.004(4) 0.009(4)
C11 0.040(6) 0.032(5) 0.017(5) 0.005(4) -0.001(4) 0.010(5)
C6 0.028(5) 0.030(5) 0.021(5) -0.011(4) -0.002(4) 0.016(4)
C3 0.019(4) 0.035(5) 0.015(4) -0.003(4) -0.001(3) 0.011(4)
C14 0.047(7) 0.042(6) 0.047(8) 0.013(6) -0.004(6) 0.025(6)
C8 0.032(5) 0.034(5) 0.017(5) 0.003(4) 0.003(4) 0.016(4)
C9 0.046(6) 0.029(5) 0.017(5) 0.000(4) -0.009(4) 0.013(5)
C1 0.044(6) 0.042(6) 0.021(5) -0.008(4) -0.016(5) 0.030(5)
C7 0.088(13) 0.095(14) 0.059(11) 0.020(10) 0.005(10) 0.040(12)
loop_
_atom_type_symbol
_atom_type_description
_atom_type_scat_dispersion_real
_atom_type_scat_dispersion_imag
_atom_type_scat_source
C C 0.0033 0.0016 'International Tables Vol C Tables 4.2.6.8 and 6.1.1.4'
H H 0.0000 0.0000 'International Tables Vol C Tables 4.2.6.8 and 6.1.1.4'
N N 0.0061 0.0033 'International Tables Vol C Tables 4.2.6.8 and 6.1.1.4'
O O 0.0106 0.0060 'International Tables Vol C Tables 4.2.6.8 and 6.1.1.4'
Zn Zn 0.2839 1.4301 'International Tables Vol C Tables 4.2.6.8 and 6.1.1.4'
loop_
_geom_angle_atom_site_label_1
_geom_angle_atom_site_label_2
_geom_angle_atom_site_label_3
_geom_angle
_geom_angle_site_symmetry_1
_geom_angle_site_symmetry_3
_geom_angle_publ_flag
O2 Zn01 O1 103.4(3) . 6_565 ?
O2 Zn01 N5 107.8(4) . 6_565 ?
O1 Zn01 N5 113.7(3) 6_565 6_565 ?
N4 Zn01 O2 114.1(3) . . ?
N4 Zn01 O1 101.9(3) . 6_565 ?
N4 Zn01 N5 115.4(4) . 6_565 ?
O5 Zn02 N1 112.1(3) 5 2_655 ?
O5 Zn02 N2 103.0(3) 5 7_444 ?
O4 Zn02 O5 102.7(3) . 5 ?
O4 Zn02 N1 104.8(4) . 2_655 ?
O4 Zn02 N2 115.4(3) . 7_444 ?
N1 Zn02 N2 117.9(4) 2_655 7_444 ?
C13 O5 Zn02 140.7(7) . 9_554 ?
C6 O2 Zn01 120.4(7) . . ?
C13 O4 Zn02 118.7(6) . . ?
C6 O1 Zn01 138.7(7) . 8_654 ?
C12 N6 H6 118.9 . . ?
C11 N6 H6 118.9 . . ?
C11 N6 C12 122.1(9) . . ?
C5 N3 H3 118.7 . . ?
C4 N3 H3 118.7 . . ?
C4 N3 C5 122.6(9) . . ?
N4 N5 Zn01 121.8(6) . 8_654 ?
C9 N5 Zn01 130.3(7) . 8_654 ?
C9 N5 N4 107.7(8) . . ?
C3 C2 C4 129.3(9) . . ?
C1 C2 C4 126.4(9) . . ?
C1 C2 C3 104.3(8) . . ?
N2 N1 Zn02 123.5(6) . 3_665 ?
C1 N1 Zn02 130.3(7) . 3_665 ?
C1 N1 N2 106.2(8) . . ?
N1 N2 Zn02 123.6(6) . 4 ?
C3 N2 Zn02 126.8(7) . 4 ?
C3 N2 N1 109.5(8) . . ?
N5 N4 Zn01 125.9(7) . . ?
C8 N4 Zn01 125.2(7) . . ?
C8 N4 N5 108.8(8) . . ?
N3 C5 H5 104.8 . . ?
N3 C5 C6 110.1(8) . . ?
N3 C5 C7 112.5(11) . . ?
C6 C5 H5 104.8 . . ?
C7 C5 H5 104.8 . . ?
C7 C5 C6 118.4(11) . . ?
C8 C10 C11 128.2(9) . . ?
C8 C10 C9 104.9(9) . . ?
C9 C10 C11 126.8(9) . . ?
N3 C4 C2 117.9(9) . . ?
O3 C4 N3 121.1(11) . . ?
O3 C4 C2 121.0(10) . . ?
N6 C12 H12 109.1 . . ?
N6 C12 C13 111.2(8) . . ?
N6 C12 C14 110.1(9) . . ?
C13 C12 H12 109.1 . . ?
C13 C12 C14 108.2(9) . . ?
C14 C12 H12 109.1 . . ?
O5 C13 C12 118.8(9) . . ?
O4 C13 O5 123.0(9) . . ?
O4 C13 C12 118.0(9) . . ?
N6 C11 C10 117.1(9) . . ?
O6 C11 N6 120.6(10) . . ?
O6 C11 C10 122.2(9) . . ?
O2 C6 O1 125.3(9) . . ?
O2 C6 C5 116.6(9) . . ?
O1 C6 C5 117.8(9) . . ?
C2 C3 H3A 125.4 . . ?
N2 C3 C2 109.2(8) . . ?
N2 C3 H3A 125.4 . . ?
C12 C14 H14A 109.5 . . ?
C12 C14 H14B 109.5 . . ?
C12 C14 H14C 109.5 . . ?
H14A C14 H14B 109.5 . . ?
H14A C14 H14C 109.5 . . ?
H14B C14 H14C 109.5 . . ?
N4 C8 C10 108.7(9) . . ?
N4 C8 H8 125.6 . . ?
C10 C8 H8 125.6 . . ?
N5 C9 C10 109.8(9) . . ?
N5 C9 H9 125.1 . . ?
C10 C9 H9 125.1 . . ?
C2 C1 H1 124.6 . . ?
N1 C1 C2 110.7(9) . . ?
N1 C1 H1 124.6 . . ?
C5 C7 H7A 109.5 . . ?
C5 C7 H7B 109.5 . . ?
C5 C7 H7C 109.5 . . ?
H7A C7 H7B 109.5 . . ?
H7A C7 H7C 109.5 . . ?
H7B C7 H7C 109.5 . . ?
C15 O7 C18 103(4) . . ?
O7 C18 H18A 107.9 . . ?
O7 C18 H18B 107.9 . . ?
O7 C18 C17 117(4) . . ?
H18A C18 H18B 107.2 . . ?
C17 C18 H18A 107.9 . . ?
C17 C18 H18B 107.9 . . ?
C16 O8 C17 113(5) . . ?
C18 C17 H17A 110.7 . . ?
C18 C17 H17B 110.7 . . ?
O8 C17 C18 105(4) . . ?
O8 C17 H17A 110.7 . . ?
O8 C17 H17B 110.7 . . ?
H17A C17 H17B 108.8 . . ?
O7 C15 H15A 110.4 . . ?
O7 C15 H15B 110.4 . . ?
O7 C15 C16 106(5) . . ?
H15A C15 H15B 108.6 . . ?
C16 C15 H15A 110.4 . . ?
C16 C15 H15B 110.4 . . ?
O8 C16 C15 119(5) . . ?
O8 C16 H16A 107.5 . . ?
O8 C16 H16B 107.5 . . ?
C15 C16 H16A 107.5 . . ?
C15 C16 H16B 107.5 . . ?
H16A C16 H16B 107.0 . . ?
loop_
_geom_bond_atom_site_label_1
_geom_bond_atom_site_label_2
_geom_bond_distance
_geom_bond_site_symmetry_2
_geom_bond_publ_flag
Zn01 O2 1.971(7) . ?
Zn01 O1 1.974(7) 6_565 ?
Zn01 N5 1.977(9) 6_565 ?
Zn01 N4 1.962(8) . ?
Zn02 O5 1.965(7) 5 ?
Zn02 O4 1.963(7) . ?
Zn02 N1 1.967(9) 2_655 ?
Zn02 N2 1.969(8) 7_444 ?
O5 Zn02 1.965(7) 9_554 ?
O5 C13 1.261(12) . ?
O2 C6 1.251(13) . ?
O4 C13 1.259(12) . ?
O1 Zn01 1.974(7) 8_654 ?
O1 C6 1.263(12) . ?
N6 H6 0.8600 . ?
N6 C12 1.441(13) . ?
N6 C11 1.348(13) . ?
N3 H3 0.8600 . ?
N3 C5 1.439(13) . ?
N3 C4 1.332(14) . ?
N5 Zn01 1.977(9) 8_654 ?
N5 N4 1.354(11) . ?
N5 C9 1.326(13) . ?
C2 C4 1.480(15) . ?
C2 C3 1.402(13) . ?
C2 C1 1.373(14) . ?
O6 C11 1.259(13) . ?
N1 Zn02 1.967(9) 3_665 ?
N1 N2 1.370(11) . ?
N1 C1 1.353(13) . ?
O3 C4 1.230(13) . ?
N2 Zn02 1.969(8) 4 ?
N2 C3 1.322(13) . ?
N4 C8 1.339(13) . ?
C5 H5 0.9800 . ?
C5 C6 1.533(14) . ?
C5 C7 1.462(19) . ?
C10 C11 1.473(15) . ?
C10 C8 1.376(14) . ?
C10 C9 1.384(15) . ?
C12 H12 0.9800 . ?
C12 C13 1.503(15) . ?
C12 C14 1.520(15) . ?
C3 H3A 0.9300 . ?
C14 H14A 0.9600 . ?
C14 H14B 0.9600 . ?
C14 H14C 0.9600 . ?
C8 H8 0.9300 . ?
C9 H9 0.9300 . ?
C1 H1 0.9300 . ?
C7 H7A 0.9600 . ?
C7 H7B 0.9600 . ?
C7 H7C 0.9600 . ?
O7 C18 1.42(4) . ?
O7 C15 1.35(4) . ?
C18 H18A 0.9700 . ?
C18 H18B 0.9700 . ?
C18 C17 1.44(4) . ?
O8 C17 1.34(4) . ?
O8 C16 1.25(4) . ?
C17 H17A 0.9700 . ?
C17 H17B 0.9700 . ?
C15 H15A 0.9700 . ?
C15 H15B 0.9700 . ?
C15 C16 1.45(5) . ?
C16 H16A 0.9700 . ?
C16 H16B 0.9700 . ?
