#------------------------------------------------------------------------------
#$Date: 2020-08-22 01:50:19 +0300 (Sat, 22 Aug 2020) $
#$Revision: 255524 $
#$URL: file:///home/coder/svn-repositories/cod/cif/4/13/51/4135171.cif $
#------------------------------------------------------------------------------
#
# This file is available in the Crystallography Open Database (COD),
# http://www.crystallography.net/
#
# All data on this site have been placed in the public domain by the
# contributors.
#
data_4135171
loop_
_publ_author_name
'Yan, Yong'
'Carrington, Elliot J.'
'P\'etuya, R\'emi'
'Whitehead, George F. S.'
'Verma, Ajay'
'Hylton, Rebecca K.'
'Tang, Chiu C.'
'Berry, Neil G.'
'Darling, George R.'
'Dyer, Matthew S.'
'Antypov, Dmytro'
'Katsoulidis, Alexandros P.'
'Rosseinsky, Matthew J.'
_publ_section_title
;
 Amino Acid Residues Determine the Response of Flexible Metal-Organic
 Frameworks to Guests.
;
_journal_name_full               'Journal of the American Chemical Society'
_journal_paper_doi               10.1021/jacs.0c03853
_journal_year                    2020
_chemical_formula_moiety         'C6 H5 N3 O3 Zn, 0.39(C5 H12 O2)'
_chemical_formula_sum            'C7.94 H9.67 N3 O3.78 Zn'
_chemical_formula_weight         272.99
_space_group_crystal_system      trigonal
_space_group_IT_number           161
_space_group_name_Hall           'R 3 -2"c'
_space_group_name_H-M_alt        'R 3 c :H'
_atom_sites_solution_hydrogens   geom
_atom_sites_solution_primary     direct
_audit_creation_date             2018-05-30
_audit_creation_method
;
Olex2 1.2
(compiled 2018.05.18 svn.r3508 for OlexSys, GUI svn.r5497)
;
_cell_angle_alpha                90
_cell_angle_beta                 90
_cell_angle_gamma                120
_cell_formula_units_Z            18
_cell_length_a                   28.0844(6)
_cell_length_b                   28.0844(6)
_cell_length_c                   10.1209(2)
_cell_measurement_reflns_used    15691
_cell_measurement_temperature    100
_cell_measurement_theta_max      27.4840
_cell_measurement_theta_min      2.8850
_cell_volume                     6913.2(2)
_computing_cell_refinement       'CrysAlisPro 1.171.38.46 (Rigaku OD, 2015)'
_computing_data_collection       'CrysAlisPro 1.171.38.46 (Rigaku OD, 2015)'
_computing_data_reduction        'CrysAlisPro 1.171.38.46 (Rigaku OD, 2015)'
_computing_molecular_graphics    'Olex2 (Dolomanov et al., 2009)'
_computing_publication_material  'Olex2 (Dolomanov et al., 2009)'
_computing_structure_refinement  'ShelXL (Sheldrick, 2015)'
_computing_structure_solution    'XS (Sheldrick, 2008)'
_diffrn_ambient_temperature      100
_diffrn_detector                 'CCD plate'
_diffrn_measured_fraction_theta_full 0.999
_diffrn_measured_fraction_theta_max 0.999
_diffrn_measurement_details
;
List of Runs (angles in degrees, time in seconds):

  # Type    Start    End  Width  t~exp~   \w     \q     \k     \f   Frames
--------------------------------------------------------------------------
  1  \w   -110.00  15.00   1.00    7.00    --  -20.00 -68.00   0.00  125
  2  \w   -110.00  15.00   1.00    7.00    --  -20.00 -68.00 120.00  125
  3  \w   -110.00  15.00   1.00    7.00    --  -20.00 -68.00 240.00  125
  4  \w   -110.00  15.00   1.00    7.00    --  -20.00 -30.00  90.00  125
;
_diffrn_measurement_device       'abstract diffractometer'
_diffrn_measurement_device_type
'dtrek-CrysAlisPro-abstract goniometer imported rigaku-d*trek images'
_diffrn_measurement_method       '\w scans'
_diffrn_orient_matrix_type
'CrysAlisPro convention (1999,Acta A55,543-557)'
_diffrn_orient_matrix_UB_11      0.0181755000
_diffrn_orient_matrix_UB_12      -0.0106073000
_diffrn_orient_matrix_UB_13      -0.0046536000
_diffrn_orient_matrix_UB_21      0.0083494000
_diffrn_orient_matrix_UB_22      0.0079551000
_diffrn_orient_matrix_UB_23      0.0663066000
_diffrn_orient_matrix_UB_31      -0.0212079000
_diffrn_orient_matrix_UB_32      -0.0259714000
_diffrn_orient_matrix_UB_33      0.0222031000
_diffrn_radiation_monochromator  graphite
_diffrn_radiation_probe          x-ray
_diffrn_radiation_type           MoK\a
_diffrn_radiation_wavelength     0.71073
_diffrn_reflns_av_R_equivalents  0.0493
_diffrn_reflns_av_unetI/netI     0.0294
_diffrn_reflns_Laue_measured_fraction_full 0.999
_diffrn_reflns_Laue_measured_fraction_max 0.999
_diffrn_reflns_limit_h_max       36
_diffrn_reflns_limit_h_min       -36
_diffrn_reflns_limit_k_max       36
_diffrn_reflns_limit_k_min       -34
_diffrn_reflns_limit_l_max       12
_diffrn_reflns_limit_l_min       -13
_diffrn_reflns_number            27830
_diffrn_reflns_point_group_measured_fraction_full 0.998
_diffrn_reflns_point_group_measured_fraction_max 0.997
_diffrn_reflns_theta_full        25.242
_diffrn_reflns_theta_max         27.483
_diffrn_reflns_theta_min         2.901
_diffrn_source                   'fine-focus sealed X-ray tube'
_diffrn_source_type              'Enhance (Mo) X-ray Source'
_exptl_absorpt_coefficient_mu    1.598
_exptl_absorpt_correction_T_max  1.00000
_exptl_absorpt_correction_T_min  0.49110
_exptl_absorpt_correction_type   multi-scan
_exptl_absorpt_process_details
;
CrysAlisPro 1.171.38.46 (Rigaku Oxford Diffraction, 2015)
Empirical absorption correction using spherical harmonics,
 implemented in SCALE3 ABSPACK scaling algorithm.
;
_exptl_crystal_colour            white
_exptl_crystal_colour_primary    white
_exptl_crystal_density_diffrn    1.180
_exptl_crystal_description       needle
_exptl_crystal_F_000             2494
_exptl_crystal_preparation       'Solvent Exchnaged in 1,5-Pentanediol'
_exptl_crystal_size_max          0.47
_exptl_crystal_size_mid          0.04
_exptl_crystal_size_min          0.04
_refine_diff_density_max         0.725
_refine_diff_density_min         -0.431
_refine_diff_density_rms         0.129
_refine_ls_abs_structure_details
;
 Flack x determined using 1549 quotients [(I+)-(I-)]/[(I+)+(I-)]
 (Parsons, Flack and Wagner, Acta Cryst. B69 (2013) 249-259).
;
_refine_ls_abs_structure_Flack   -0.012(10)
_refine_ls_extinction_method     none
_refine_ls_goodness_of_fit_ref   1.182
_refine_ls_hydrogen_treatment    constr
_refine_ls_matrix_type           full
_refine_ls_number_parameters     147
_refine_ls_number_reflns         3519
_refine_ls_number_restraints     18
_refine_ls_restrained_S_all      1.187
_refine_ls_R_factor_all          0.0444
_refine_ls_R_factor_gt           0.0420
_refine_ls_shift/su_max          0.001
_refine_ls_shift/su_mean         0.000
_refine_ls_structure_factor_coef Fsqd
_refine_ls_weighting_details
'w=1/[\s^2^(Fo^2^)+(0.0892P)^2^+3.0094P] where P=(Fo^2^+2Fc^2^)/3'
_refine_ls_weighting_scheme      calc
_refine_ls_wR_factor_gt          0.1300
_refine_ls_wR_factor_ref         0.1324
_reflns_Friedel_coverage         0.987
_reflns_Friedel_fraction_full    0.997
_reflns_Friedel_fraction_max     0.996
_reflns_number_gt                3364
_reflns_number_total             3519
_reflns_threshold_expression     'I > 2\s(I)'
_cod_data_source_file            ZnGlyPyr_15PD_100K.cif
_cod_data_source_block           ZnGlyPyr_15PD_100K
_cod_original_cell_volume        6913.2(3)
_cod_original_sg_symbol_H-M      'R 3 c'
_cod_database_code               4135171
_shelx_shelxl_version_number     2014/7
_chemical_oxdiff_formula         'Zn C6 H5 N3 O5'
_shelx_space_group_comment
;
The symmetry employed for this shelxl refinement is uniquely defined
by the following loop, which should always be used as a source of
symmetry information in preference to the above space-group names.
They are only intended as comments.
;
_shelx_estimated_absorpt_t_max   0.939
_shelx_estimated_absorpt_t_min   0.520
_reflns_odcompleteness_completeness 99.89
_reflns_odcompleteness_iscentric 1
_reflns_odcompleteness_theta     27.42
_olex2_refinement_description
;
1. Fixed Uiso
 At 1.2 times of:
  All C(H) groups, All C(H,H) groups, All N(H) groups
 At 1.5 times of:
  All O(H) groups
2. Restrained distances
 O4-C7
 1.43 with sigma of 0.01
 C11-O5
 1.43 with sigma of 0.01
 C7-C8
 1.51 with sigma of 0.01
 C8-C9
 1.51 with sigma of 0.01
 C9-C10
 1.51 with sigma of 0.01
 C10-C11
 1.51 with sigma of 0.01
 O4-C8
 2.4 with sigma of 0.01
 O5-C10
 2.4 with sigma of 0.01
 C11-C9
 2.5 with sigma of 0.01
 C10-C8
 2.5 with sigma of 0.01
 C9-C7
 2.5 with sigma of 0.01
3. Uiso/Uaniso restraints and constraints
O4 \\sim C7 \\sim C8 \\sim C10 \\sim C9 \\sim C11 \\sim O5: within 2A with
sigma of 0.01 and sigma for terminal atoms of 0.02
4. Others
 Sof(O4)=Sof(H4)=Sof(O5)=Sof(H5)=Sof(C7)=Sof(H7A)=Sof(H7B)=Sof(C8)=Sof(H8A)=
 Sof(H8B)=Sof(C9)=Sof(H9A)=Sof(H9B)=Sof(C10)=Sof(H10A)=Sof(H10B)=Sof(C11)=
 Sof(H11A)=Sof(H11B)=FVAR(1)
5.a Secondary CH2 refined with riding coordinates:
 C5(H5A,H5B), C7(H7A,H7B), C8(H8A,H8B), C9(H9A,H9B), C10(H10A,H10B), C11(H11A,
 H11B)
5.b Aromatic/amide H refined with riding coordinates:
 N3(H3), C1(H1), C3(H3A)
5.c Tetrahedral OH refined with riding coordinates:
 O4(H4), O5(H5)
;
_shelx_res_file
;
    yy_znglypyr_15pd_100k.res created by SHELXL-2014/7

TITL YY_ZnGlyPyr_15PD_100K in R3c #161
REM reset to R3c #161
CELL 0.71073 28.084446 28.084446 10.120863 90 90 120
ZERR 18 0.000602 0.000602 0.000216 0 0 0
LATT -3
SYMM -Y,+X-Y,+Z
SYMM +Y-X,-X,+Z
SYMM +Y-X,+Y,0.5+Z
SYMM +X,+X-Y,0.5+Z
SYMM -Y,-X,0.5+Z
SFAC C H N O Zn
UNIT 142.99 173.99 54 68 18
DFIX 1.43 0.01 O4 C7
DFIX 1.43 0.01 C11 O5
DFIX 1.51 0.01 C7 C8
DFIX 1.51 0.01 C8 C9
DFIX 1.51 0.01 C9 C10
DFIX 1.51 0.01 C10 C11
DFIX 2.4 0.01 O4 C8
DFIX 2.4 0.01 O5 C10
DFIX 2.5 0.01 C11 C9
DFIX 2.5 0.01 C10 C8
DFIX 2.5 0.01 C9 C7
SIMU 0.01 0.02 2 O4 C7 C8 C10 C9 C11 O5

L.S. 16
PLAN  20
SIZE 0.47 0.04 0.04
TEMP -173.15
BOND
fmap 2
acta
REM <olex2.extras>
REM <HklSrc "%.\\YY_ZnGlyPyr_15PD_100K.hkl">
REM </olex2.extras>

WGHT    0.089200    3.009400
FVAR       1.45051   0.38826
ZN1   5   -0.353050   -0.328192   -0.298350    11.00000    0.02006    0.02133 =
         0.00883   -0.00050    0.00038    0.00983
N3    3   -0.530529   -0.427426   -0.577320    11.00000    0.02581    0.02388 =
         0.01083   -0.00193   -0.00160    0.01058
AFIX  43
H3    2   -0.539351   -0.436661   -0.660576    11.00000   -1.20000
AFIX   0
O2    4   -0.402716   -0.330569   -0.437646    11.00000    0.02609    0.02262 =
         0.01477   -0.00205   -0.00493    0.01124
C5    1   -0.490406   -0.370775   -0.543482    11.00000    0.01877    0.01802 =
         0.01879    0.00162    0.00097    0.00633
AFIX  23
H5A   2   -0.501217   -0.361029   -0.459069    11.00000   -1.20000
H5B   2   -0.490597   -0.345992   -0.612781    11.00000   -1.20000
AFIX   0
O3    4   -0.545344   -0.453455   -0.364174    11.00000    0.04948    0.02742 =
         0.01120   -0.00250   -0.00581   -0.00024
O1    4   -0.300479   -0.249232   -0.280472    11.00000    0.02666    0.02075 =
         0.01591   -0.00002   -0.00595    0.00925
C6    1   -0.432688   -0.361874   -0.530177    11.00000    0.02395    0.02004 =
         0.01170    0.00316    0.00092    0.00992
N2    3   -0.402287   -0.358516   -0.147122    11.00000    0.02142    0.02638 =
         0.00682    0.00204    0.00247    0.00978
C1    1   -0.457234   -0.390865   -0.152879    11.00000    0.02082    0.02611 =
         0.01065   -0.00069   -0.00200    0.00578
AFIX  43
H1    2   -0.478728   -0.400440   -0.231188    11.00000   -1.20000
AFIX   0
C4    1   -0.553717   -0.464966   -0.483898    11.00000    0.02310    0.02484 =
         0.01333   -0.00442   -0.00505    0.00596
C3    1   -0.281781   -0.380356   -0.278356    11.00000    0.02834    0.03302 =
         0.01109   -0.00030   -0.00149    0.01608
AFIX  43
H3A   2   -0.277468   -0.376730   -0.185154    11.00000   -1.20000
AFIX   0
N1    3   -0.311339   -0.364316   -0.350358    11.00000    0.02671    0.02687 =
         0.01470    0.00017    0.00139    0.01671
C2    1   -0.477676   -0.408143   -0.025457    11.00000    0.02008    0.02399 =
         0.01457    0.00404    0.00287    0.00835

PART -1
O4    4   -0.506817   -0.583167   -0.639292    21.00000    0.17490
AFIX  83
H4    2   -0.494249   -0.570739   -0.563889    21.00000   -1.50000
AFIX   0
O5    4   -0.452634   -0.514069   -1.328053    21.00000    0.27158
AFIX  83
H5    2   -0.462813   -0.547348   -1.341144    21.00000   -1.50000
AFIX   0
C7    1   -0.482679   -0.539576   -0.734230    21.00000    0.17819
AFIX  23
H7A   2   -0.442295   -0.523731   -0.736268    21.00000   -1.20000
H7B   2   -0.490652   -0.510067   -0.710520    21.00000   -1.20000
AFIX   0
C8    1   -0.507334   -0.563611   -0.869137    21.00000    0.17535
AFIX  23
H8A   2   -0.519858   -0.603413   -0.869618    21.00000   -1.20000
H8B   2   -0.539782   -0.559307   -0.884720    21.00000   -1.20000
AFIX   0
C9    1   -0.466807   -0.536086   -0.977727    21.00000    0.17281
AFIX  23
H9A   2   -0.452483   -0.496004   -0.971499    21.00000   -1.20000
H9B   2   -0.435472   -0.542287   -0.963046    21.00000   -1.20000
AFIX   0
C10   1   -0.487595   -0.554039   -1.113377    21.00000    0.18314
AFIX  23
H10A  2   -0.527879   -0.578990   -1.109102    21.00000   -1.20000
H10B  2   -0.471147   -0.575447   -1.148660    21.00000   -1.20000
AFIX   0
C11   1   -0.475949   -0.508716   -1.207783    21.00000    0.21550
AFIX  23
H11A  2   -0.510558   -0.508876   -1.227480    21.00000   -1.20000
H11B  2   -0.450238   -0.473018   -1.166154    21.00000   -1.20000
AFIX   0
HKLF 4

REM  YY_ZnGlyPyr_15PD_100K in R3c #161
REM R1 =  0.0420 for    3364 Fo > 4sig(Fo)  and  0.0444 for all    3519 data
REM    147 parameters refined using     18 restraints

END

WGHT      0.0892      3.0042

REM Highest difference peak  0.725,  deepest hole -0.431,  1-sigma level  0.129
Q1    1  -0.4426 -0.6660 -0.8470  11.00000  0.05    0.58
Q2    1  -0.6419 -0.4088 -0.4327  11.00000  0.05    0.52
Q3    1  -0.4763 -0.6124 -0.6321  11.00000  0.05    0.51
Q4    1  -0.4695 -0.5391 -1.0893  11.00000  0.05    0.50
Q5    1  -0.4558 -0.5420 -1.0763  11.00000  0.05    0.47
Q6    1  -0.6394 -0.4087 -0.3405  11.00000  0.05    0.43
Q7    1  -0.4059 -0.5423 -1.0821  11.00000  0.05    0.43
Q8    1  -0.6487 -0.4243 -0.7133  11.00000  0.05    0.43
Q9    1  -0.3291 -0.3207 -0.2209  11.00000  0.05    0.40
Q10   1  -0.4278 -0.5677 -0.8888  11.00000  0.05    0.40
Q11   1  -0.6067 -0.3721 -0.7838  11.00000  0.05    0.39
Q12   1  -0.4240 -0.5453 -1.1199  11.00000  0.05    0.38
Q13   1  -0.3370 -0.3029 -0.3711  11.00000  0.05    0.37
Q14   1  -0.4709 -0.4072 -0.0716  11.00000  0.05    0.36
Q15   1  -0.4710 -0.5347 -1.1624  11.00000  0.05    0.33
Q16   1  -0.3191 -0.2952 -0.2581  11.00000  0.05    0.33
Q17   1  -0.4285 -0.5718 -0.9778  11.00000  0.05    0.32
Q18   1  -0.4827 -0.4558 -0.0502  11.00000  0.05    0.32
Q19   1  -0.4560 -0.4028  0.0172  11.00000  0.05    0.31
Q20   1  -0.4784 -0.4461 -1.1700  11.00000  0.05    0.31
;
_shelx_res_checksum              23565
_shelx_hkl_file
;
   0   0 -12 79159.1 4306.46   2
   0   0 -12 71684.4 4135.06   4
   0   0  -9 99.7341 819.837   2
   0   0  -9-478.965 840.861   4
   0   0  -9 198.757 625.406   3
   0   0  -6 341124. 6014.90   4
   0   0  -6 356519. 4596.62   3
   0   0  -6 340555. 6033.72   2
   0   0  -3-467.859 378.307   4
   0   0  -3 424.422 448.202   2
   0   0  -3 125.805 259.267   3
   0   0   3 33.2343 369.138   4
   0   0   3-155.113 271.925   3
   0   0   3-10.0257 394.818   2
   0   0   6 334624. 4503.59   3
   0   0   9-241.713 546.952   3
   0   1 -13-272.156 1111.02   4
  -1   0 -13-1029.48 1156.33   4
   0   1 -13-1087.67 1289.20   2
   1  -1 -13-2066.45 1604.72   2
  -1   0 -13 935.225 1328.42   2
   1  -1 -13 1144.67 1386.00   4
  -1   0 -10 668.751 836.340   2
  -1   0 -10 1631.55 1110.11   4
   1  -1 -10 1749.71 999.227   4
   1  -1 -10 1059.05 997.667   2
   0   1 -10 986.727 853.374   4
   0   1 -10-193.015 1037.77   2
   0   1  -7-326.485 605.158   4
  -1   0  -7-136.131 488.716   3
  -1   0  -7 404.470 711.761   2
  -1   0  -7-213.639 532.633   4
   1  -1  -7-219.029 727.934   2
   0   1  -7 150.239 440.261   3
   1  -1  -7 8.26361 619.220   4
   1  -1  -7-464.488 471.006   3
   0   1  -7 210.376 680.520   2
   0   1  -4 23427.1 1004.32   3
  -1   0  -4 23615.2 1076.92   3
   1  -1  -4 23815.5 952.366   3
  -1   0  -4 22119.4 1313.11   2
  -1   0  -4 21653.9 1261.34   4
   1  -1  -4 25550.9 1452.86   2
   0   1  -4 23137.5 1322.18   4
   0   1  -4 22133.5 1326.03   2
   1  -1  -4 21110.1 1308.34   4
  -1   0  -1 112.181 140.719   4
   1  -1  -1-9.63156 125.085   1
  -1   0  -1 419.968 177.430   2
   1  -1  -1 161.570 186.536   2
  -1   0  -1 41.8208 145.415   3
   0   1  -1-267.829 143.938   2
   0   1  -1 22.9625 128.138   4
   1  -1  -1 95.9373 141.085   4
   0   1   2 35591.1 1202.44   2
   1  -1   2 37358.5 971.748   3
   0   1   2 35056.6 1168.11   4
  -1   0   2 35031.1 1121.98   4
  -1   0   2 33489.8 1131.88   2
   1  -1   2 35884.9 1151.48   2
  -1   0   2 35739.5 735.409   3
   1  -1   2 35454.9 1134.91   4
   0   1   2 35995.3 923.622   3
  -1   0   5-219.759 482.241   2
   1  -1   5-25.6710 412.104   3
  -1   0   5 470.208 366.506   3
  -1   0   5 430.038 546.110   4
   0   1   5 206.945 381.154   3
   0   1   5-416.440 468.721   4
   0   1   5 102.717 532.782   2
   1  -1   5 130.023 434.802   4
   1  -1   5-786.103 524.167   2
   0   1   8 4759.32 790.356   3
  -1   0   8 5699.24 776.809   3
   1  -1   8 3607.33 705.761   3
   0   1  11 80.8239 696.258   3
  -1   0  11 654.572 643.273   3
   1  -1  11 1095.15 789.726   3
   1   0 -11 971.089 1164.10   2
  -1   1 -11-239.363 969.718   2
   1   0 -11 56.7184 877.087   4
  -1   1 -11-1529.74 1041.18   4
   0  -1 -11-552.885 1090.50   4
   0  -1 -11-781.769 1000.08   2
   0  -1  -8 4643.38 1073.88   2
   1   0  -8 3491.60 697.108   3
   0  -1  -8 4133.29 1000.91   4
   0  -1  -8 3324.44 737.057   3
  -1   1  -8 3970.38 830.349   3
   1   0  -8 3505.28 988.085   4
   1   0  -8 3462.65 972.936   2
  -1   1  -8 4875.41 1059.44   2
  -1   1  -8 3851.33 954.407   4
  -1   1  -5-415.996 466.772   4
   0  -1  -5-210.638 555.089   2
  -1   1  -5 54.4818 354.800   3
  -1   1  -5-379.518 599.255   2
   0  -1  -5-419.327 569.369   4
   0  -1  -5 28.2725 358.111   3
   1   0  -5-188.490 532.754   2
   1   0  -5-40.4261 537.955   4
   1   0  -5 2.08702 297.721   3
  -1   1  -2 34193.5 1096.09   2
   1   0  -2 35159.9 1175.53   2
  -1   1  -2 34439.1 942.667   3
   1   0  -2 34847.2 702.974   3
   1   0  -2 35509.4 1138.02   4
   0  -1  -2 31253.2 881.015   3
  -1   1  -2 33445.7 1075.43   4
   0  -1  -2 35785.0 1172.03   2
   0  -1  -2 35439.9 1154.07   4
  -1   1   1 17.8612 148.566   4
   0  -1   1 159.683 144.315   2
   1   0   1 36.4081 153.299   2
   0  -1   1-48.6724 129.873   4
  -1   1   1-52.5294 131.808   1
   1   0   1 120.735 149.897   3
   1   0   1-319.466 157.249   4
  -1   1   1-54.2205 165.825   2
   1   0   4 20671.5 1312.11   4
   1   0   4 21658.3 1326.88   2
  -1   1   4 23184.7 1367.68   2
   0  -1   4 22543.9 1338.22   2
  -1   1   4 25588.8 984.027   3
  -1   1   4 22664.8 1317.70   4
   1   0   4 23758.1 1095.63   3
   0  -1   4 24610.9 1012.14   3
   0  -1   4 24082.2 1377.83   4
   1   0   7 658.332 521.890   3
   0  -1   7 557.367 475.117   3
  -1   1   7-24.9985 406.089   3
   1   0  10 1217.59 735.735   3
   0  -1  10 822.468 632.237   3
  -1   1  10 847.052 654.923   3
  -2   0 -11-700.779 999.065   2
   2  -2 -11-376.252 967.502   4
   2  -2 -11-1507.36 1364.82   2
   0   2 -11-342.312 824.284   4
   0   2 -11 209.246 973.723   2
  -2   0 -11-110.777 1001.34   4
   2  -2  -8 18664.7 1824.59   4
   0   2  -8 16718.8 1724.99   2
  -2   0  -8 18561.7 1792.17   2
   2  -2  -8 14628.5 1700.87   2
   2  -2  -8 19055.2 1231.11   3
  -2   0  -8 15998.3 1637.62   4
   0   2  -8 19346.5 1345.20   3
   0   2  -8 18318.1 1718.62   4
   2  -2  -5-156.411 291.797   3
   2  -2  -5-112.030 676.365   2
  -2   0  -5 407.467 527.084   2
  -2   0  -5 149.512 486.919   4
   0   2  -5-111.646 476.596   4
   0   2  -5-639.011 381.943   3
  -2   0  -5-160.234 387.274   3
   2  -2  -5 448.362 557.014   4
   2  -2  -5-261.885 365.494   1
   0   2  -5-517.021 484.799   2
   2  -2  -2 126564. 1991.33   1
   2  -2  -2 125616. 2247.67   2
   0   2  -2 129743. 1588.75   3
   0   2  -2 123697. 2043.79   2
  -2   0  -2 122620. 2003.51   3
  -2   0  -2 124098. 2031.61   2
  -2   0  -2 123111. 2074.89   4
   0   2  -2 121938. 1968.44   4
   2  -2  -2 124117. 2155.01   4
   2  -2  -2 126585. 1358.90   3
   0   2   1-57.8281 181.186   4
   2  -2   1 15.4971 143.371   4
   2  -2   1 3.58120 142.118   1
   2  -2   1-60.4505 139.582   2
   0   2   1 41.2843 111.144   1
   2  -2   1-111.109 198.849   3
  -2   0   1-26.4774 135.751   4
  -2   0   1 205.321 187.205   2
   0   2   1 68.4387 200.976   2
   0   2   1-84.7551 145.046   3
   0   2   4 34592.8 1679.65   2
  -2   0   4 40329.7 1084.78   3
   2  -2   4 38662.6 1699.16   2
   2  -2   4 36687.0 1643.48   4
  -2   0   4 41024.6 1744.97   2
  -2   0   4 37685.8 1632.56   4
   2  -2   4 38263.8 1425.22   3
   0   2   4 36090.2 1354.39   3
   0   2   7-165.831 476.703   3
   2  -2   7-778.440 578.173   3
  -2   0   7-476.079 425.750   3
   0   2  10 4551.19 981.663   3
  -2   0  10 5321.19 861.465   3
   2  -2  10 6925.19 1069.05   3
  -1  -1 -12 17113.0 2271.44   4
  -1  -1 -12 16798.4 2161.09   2
  -1   2 -12 17393.8 2271.84   2
   2  -1 -12 17187.0 2325.19   4
   1   1 -12 16641.7 2119.96   4
   1  -2 -12 16373.8 2175.76   4
  -2   1 -12 10874.3 1922.19   2
  -2   1 -12 17640.3 2240.66   4
   2  -1 -12 16865.9 2244.30   2
   1   1 -12 15730.9 2193.11   2
  -1   2 -12 11330.9 1787.35   4
   1  -2 -12 11218.6 1862.75   2
  -1   2  -9 78497.8 3607.51   2
  -2   1  -9 82268.6 3620.52   4
  -2   1  -9 76404.5 3532.79   2
  -1  -1  -9 79017.3 3677.49   2
   2  -1  -9 74120.1 3635.30   4
   1   1  -9 78809.8 3676.56   4
   2  -1  -9 73989.3 3654.49   2
  -1  -1  -9 76291.3 3616.80   4
   1  -2  -9 74440.2 3599.67   2
   1   1  -9 75441.8 3636.07   2
   2  -1  -9 72334.0 2403.11   3
   1   1  -9 69060.7 2412.12   3
   1  -2  -9 75246.1 3594.44   4
   1  -2  -9 76002.7 2679.84   3
  -1   2  -9 71707.2 3426.79   4
  -1   2  -9 71490.9 2782.28   3
   2  -1  -6 99746.5 3361.61   2
   2  -1  -6 105203. 2217.22   3
   1  -2  -6 87752.4 2785.42   1
  -1   2  -6 98945.5 3242.02   4
  -2   1  -6 101071. 3231.59   2
  -1  -1  -6 94991.5 3216.93   4
   1   1  -6 99487.3 3318.87   2
  -1   2  -6 100055. 3247.17   2
  -1  -1  -6 107464. 2727.24   3
   1   1  -6 105236. 2344.73   3
  -1  -1  -6 99945.2 3253.01   2
  -1   2  -6 104101. 2588.15   3
  -2   1  -6 105428. 3289.47   4
   1  -2  -6 105658. 2456.27   3
   2  -1  -6 90932.6 3154.83   4
   1   1  -6 103621. 3290.66   4
   1  -2  -6 99316.1 3358.85   2
  -2   1  -6 106826. 2817.81   3
   1  -2  -6 93552.2 3243.95   4
  -1   2  -3 290521. 3171.14   3
   1  -2  -3 306147. 3543.04   1
   1   1  -3 292126. 3859.91   4
  -1  -1  -3 301030. 3355.43   3
  -1   2  -3 296006. 3790.21   4
  -2   1  -3 293570. 3803.58   2
   2  -1  -3 291744. 2383.30   3
  -2   1  -3 281966. 3799.50   4
   2  -1  -3 295309. 4153.78   2
   1  -2  -3 286699. 4041.18   2
   1   1  -3 297670. 2581.37   3
   1  -2  -3 293265. 4049.14   4
   1   1  -3 287561. 3943.37   2
  -1  -1  -3 303679. 4014.78   4
  -1  -1  -3 291820. 3916.07   2
   2  -1  -3 291699. 3972.86   4
  -1   2  -3 288274. 3783.78   2
  -2   1  -3 295077. 3436.99   3
   1  -2  -3 297319. 2886.64   3
  -1  -1   3 311001. 2680.24   3
   2  -1   3 304753. 3541.96   3
  -1  -1   3 306470. 3881.82   4
   1  -2   3 322795. 4019.16   4
  -1   2   3 302869. 4051.46   4
   1   1   3 311573. 4161.51   2
  -1  -1   3 311682. 3993.03   2
  -2   1   3 306451. 2475.73   3
   1   1   3 304232. 3450.66   3
   2  -1   3 316094. 4050.97   4
  -1   2   3 285132. 4018.30   2
  -1   2   3 305770. 3046.05   3
   1  -2   3 305507. 3931.98   2
   2  -1   3 313868. 4048.56   2
  -2   1   3 310405. 3978.93   4
  -2   1   3 311553. 4150.81   2
   1  -2   3 321898. 3308.02   3
   1   1   6 98512.7 2613.27   3
   2  -1   6 100884. 2698.17   3
  -1   2   6 94805.8 2362.01   3
  -2   1   6 98437.4 2227.88   3
  -1  -1   6 99559.7 2296.01   3
   1  -2   6 99609.4 2573.89   3
  -2   1   9 85644.7 2611.17   3
   1   1   9 80565.5 2869.79   3
   1  -2   9 81388.8 2834.02   3
   2  -1   9 86836.3 2978.44   3
  -1   2   9 85746.6 2778.75   3
  -1  -1   9 90370.3 2715.15   3
   2   0 -13 40.9461 1248.66   2
   0  -2 -13 361.042 1199.89   2
   0  -2 -13-302.592 1033.09   4
  -2   2 -13 3614.86 1506.82   2
  -2   2 -13-968.624 1187.69   4
   2   0 -13-41.2203 1156.30   4
   2   0 -10 7275.58 1497.81   4
  -2   2 -10 6651.67 1341.73   4
   2   0 -10 7350.60 1524.40   2
  -2   2 -10 7112.64 1556.22   2
   0  -2 -10 9680.53 1566.63   4
   0  -2 -10 6855.18 1333.55   2
   2   0  -7 744.754 788.308   2
   0  -2  -7 298.516 812.167   2
  -2   2  -7 594.795 682.987   2
  -2   2  -7 728.328 548.353   3
  -2   2  -7 374.395 634.719   4
   0  -2  -7 169.172 459.834   3
   0  -2  -7 208.009 586.587   4
   2   0  -7 1480.40 744.800   4
   2   0  -7 29.2436 367.127   3
   2   0  -4 39396.7 1026.69   3
   2   0  -4 38005.1 1753.22   2
   2   0  -4 38645.5 1689.09   4
   0  -2  -4 36553.1 1407.27   1
  -2   2  -4 40030.0 1701.66   2
   0  -2  -4 36877.3 1684.96   4
   0  -2  -4 38096.7 1727.78   2
  -2   2  -4 37215.4 1603.37   4
   0  -2  -4 37287.4 1313.49   3
  -2   2  -4 37658.5 1415.36   3
  -2   2  -1-116.052 131.412   1
   0  -2  -1 87.8358 177.400   4
  -2   2  -1-53.2100 141.430   4
   0  -2  -1 187.694 173.735   2
   0  -2  -1-111.576 94.8037   1
   2   0  -1 157.287 170.840   2
  -2   2  -1 26.3014 130.666   2
  -2   2  -1 42.7555 211.677   3
   2   0  -1-16.3236 145.694   4
   0  -2  -1-154.316 176.729   3
   2   0   2 138663. 2232.65   2
   2   0   2 132378. 2045.54   3
  -2   2   2 129645. 1440.13   3
   0  -2   2 133969. 2071.08   4
   0  -2   2 130280. 2053.88   2
   0  -2   2 140863. 1628.76   3
  -2   2   2 134130. 2207.13   4
  -2   2   2 132836. 2116.64   1
  -2   2   2 133437. 2277.93   2
  -2   2   5-235.291 557.031   2
   0  -2   5-142.968 460.085   4
  -2   2   5 360.091 485.852   4
   0  -2   5 641.427 530.977   2
   2   0   5 209.947 614.312   2
  -2   2   5 321.253 366.087   3
   2   0   5 851.788 624.552   4
   0  -2   5 287.240 364.795   3
   2   0   5-95.0307 442.966   3
   0  -2   8 22063.8 1363.88   3
   2   0   8 20916.1 1498.79   3
  -2   2   8 18032.0 1287.84   3
   2   0  11 735.910 807.977   3
   0  -2  11-759.069 701.701   3
  -2   2  11 608.278 644.920   3
   3  -3 -12 41782.2 3309.00   2
  -3   0 -12 48578.5 3394.66   2
   3  -3 -12 43449.6 3392.50   4
   0   3 -12 48086.6 3365.48   4
   0   3 -12 43814.1 3346.12   2
  -3   0 -12 49679.7 3409.39   4
   3  -3  -9 839.630 1016.74   4
   0   3  -9-419.698 698.576   4
  -3   0  -9 597.301 794.727   4
   0   3  -9-387.217 655.968   3
   0   3  -9-6.63952 806.963   2
   3  -3  -9 820.525 1092.59   2
   3  -3  -9 763.098 556.481   3
  -3   0  -9 1365.65 946.894   2
   0   3  -6 505597. 5422.50   3
  -3   0  -6 469148. 6872.07   2
  -3   0  -6 493376. 6261.74   3
   3  -3  -6 473873. 7378.18   4
   3  -3  -6 466668. 7413.30   2
   3  -3  -6 523892. 4918.53   3
  -3   0  -6 469460. 6954.88   4
   0   3  -6 476744. 7073.65   2
   0   3  -6 471888. 6879.04   4
   0   3  -3 263.836 353.282   2
   0   3  -3 169.182 328.292   4
   3  -3  -3-59.3652 258.867   1
  -3   0  -3-133.222 363.282   4
   3  -3  -3 144.689 381.078   4
   0   3  -3 199.363 264.364   3
   3  -3  -3-291.482 406.015   2
  -3   0  -3-28.6373 373.230   3
  -3   0  -3 20.0098 422.238   2
   0   3   3 209.302 357.638   4
   3  -3   3 928.088 379.859   3
   3  -3   3 75.3881 372.627   4
   3  -3   3 58.3304 349.540   2
   0   3   3 187.382 382.409   2
  -3   0   3 558.283 368.989   4
   0   3   3 231.204 314.000   3
  -3   0   3 381.399 359.864   2
   0   3   6 302326. 4636.97   3
   3  -3   6 305952. 4874.78   3
   0   3   9-524.486 606.835   3
   3  -3   9 1018.87 705.721   3
  -3   0   9-310.215 437.877   3
  -3   1 -13 14929.8 2140.15   4
   1   2 -13 11338.1 2060.32   2
  -1   3 -13 10603.4 1972.73   2
   3  -2 -13 11125.2 2145.80   4
  -2  -1 -13 8757.21 1807.42   2
  -3   1 -13 12485.3 2075.55   2
   3  -2 -13 11930.2 2279.55   2
   1   2 -13 7702.63 1779.90   4
  -1   3 -13 10936.3 1901.53   4
   2  -3 -13 14899.4 2257.89   4
   2  -3 -13 11882.6 2051.39   2
  -2  -1 -13 15331.4 2272.25   4
  -1   3 -10-838.765 981.672   2
   2  -3 -10-153.815 864.874   4
   2  -3 -10 1172.65 1065.68   2
   1   2 -10-630.924 1074.87   4
  -2  -1 -10 629.332 978.435   4
  -1   3 -10 718.079 819.936   4
  -3   1 -10 161.336 874.918   2
   3  -2 -10 2387.42 1205.55   2
   1   2 -10-285.419 877.670   2
  -3   1 -10-363.082 771.739   4
   3  -2 -10 1075.05 1018.51   4
  -2  -1 -10 33.0839 958.109   2
   1   2  -7 48219.8 2483.01   4
  -3   1  -7 49750.1 2164.48   3
  -1   3  -7 45450.1 2424.99   2
  -1   3  -7 52325.8 2558.09   4
  -3   1  -7 53899.2 2570.79   4
   2  -3  -7 48910.9 2705.96   2
  -2  -1  -7 51234.7 2535.87   2
   2  -3  -7 53307.3 1890.17   3
  -2  -1  -7 55039.3 2256.97   3
   1   2  -7 52409.3 1843.92   3
   3  -2  -7 55198.3 1740.55   3
   2  -3  -7 47960.3 2565.21   4
   3  -2  -7 46185.3 2641.91   2
  -3   1  -7 49742.6 2504.11   2
  -2  -1  -7 51523.2 2553.72   4
  -1   3  -7 51676.3 2022.85   3
   3  -2  -7 49390.3 2576.88   4
   1   2  -7 49836.4 2650.56   2
   1   2  -4 3439.31 603.539   4
  -2  -1  -4 4552.19 716.797   2
  -1   3  -4 3962.51 669.700   2
  -2  -1  -4 4211.44 603.088   3
   1   2  -4 4158.71 463.463   3
   3  -2  -4 3856.43 385.305   3
   3  -2  -4 4703.42 622.649   1
  -2  -1  -4 3952.14 670.714   4
  -1   3  -4 3580.96 488.834   3
   2  -3  -4 2793.15 645.220   2
  -3   1  -4 4378.32 645.224   4
   1   2  -4 3051.88 640.173   2
  -3   1  -4 3660.70 605.560   3
  -1   3  -4 3424.58 640.148   4
   3  -2  -4 3946.61 701.577   4
   2  -3  -4 4405.97 606.427   1
   3  -2  -4 3392.12 741.908   2
   2  -3  -4 4250.42 744.189   4
  -3   1  -4 4197.34 690.649   2
   2  -3  -4 4868.69 494.754   3
  -3   1  -1 29707.6 545.701   1
  -1   3  -1 29981.2 809.233   3
  -3   1  -1 30109.1 913.944   3
   3  -2  -1 28016.3 775.716   1
   2  -3  -1 30435.8 841.047   4
  -1   3  -1 30769.2 629.184   4
  -1   3  -1 29985.6 645.748   2
   2  -3  -1 29760.4 831.025   2
   3  -2  -1 31705.5 880.161   2
   1   2  -1 30927.7 674.045   4
   3  -2  -1 29291.7 795.280   4
  -3   1  -1 28987.5 686.312   2
  -2  -1  -1 31768.9 892.766   3
   2  -3  -1 30387.6 712.118   1
  -2  -1  -1 30342.9 760.586   4
  -1   3  -1 31089.6 835.586   1
   1   2  -1 31626.7 747.233   2
   1   2   2 79549.0 1597.58   3
   2  -3   2 79483.2 1633.38   4
  -1   3   2 80731.4 1827.84   2
   3  -2   2 80621.9 1757.93   3
   2  -3   2 78723.1 1587.11   3
   3  -2   2 84947.3 1717.69   4
  -3   1   2 80117.6 1644.69   4
   3  -2   2 83622.3 1673.29   2
   2  -3   2 82037.3 1607.86   2
  -1   3   2 80027.3 1460.16   3
  -1   3   2 86854.1 1837.83   4
  -2  -1   2 79625.9 1673.28   2
  -2  -1   2 80828.2 1604.02   4
   1   2   2 83836.3 1795.82   4
   1   2   2 81544.4 1794.47   2
  -1   3   2 81767.5 1559.66   1
  -3   1   5 1841.11 644.390   2
   3  -2   5 1605.16 622.520   2
   2  -3   5 1390.63 502.790   3
   2  -3   5 1897.18 630.084   4
  -3   1   5 1819.01 369.132   3
   2  -3   5 2415.41 634.917   2
  -1   3   5 1697.23 629.976   4
  -1   3   5 2095.46 512.752   3
  -3   1   5 2521.03 632.235   4
   1   2   5 1699.41 482.038   3
  -2  -1   5 1595.28 610.796   2
  -2  -1   5 1986.97 550.175   4
   3  -2   5 2223.31 587.043   3
  -1   3   5 1837.91 700.125   2
   3  -2   5 1475.52 542.546   4
   1   2   5 1951.79 657.087   4
  -2  -1   5 1497.16 348.771   3
   1   2   5 1015.39 552.994   2
  -3   1   8 867.299 457.223   3
   3  -2   8 1785.44 729.732   3
   1   2   8 1309.69 594.413   3
   2  -3   8 484.100 550.959   3
  -1   3   8 366.945 521.035   3
  -2  -1   8 997.967 519.292   3
  -1   3  11 300.466 708.499   3
   2  -3  11-16.6215 729.175   3
   1   2  11-329.586 793.657   3
   3  -2  11 1028.47 805.946   3
   1  -3 -11-1381.69 1126.29   2
  -1  -2 -11 406.920 1009.49   2
  -3   2 -11 862.223 965.497   4
  -1  -2 -11-1504.79 1121.31   4
  -3   2 -11-1282.08 1033.81   2
  -2   3 -11 506.802 1003.68   2
   3  -1 -11-168.122 1108.01   2
   2   1 -11-628.442 1116.22   2
   1  -3 -11-655.775 1032.77   4
   2   1 -11 566.884 946.357   4
  -2   3 -11 153.045 834.624   4
   3  -1 -11-850.913 1031.30   4
  -2   3  -8 1074.12 823.509   2
  -1  -2  -8 947.461 639.784   3
   3  -1  -8 17.8021 729.303   2
   3  -1  -8 936.499 449.531   3
   1  -3  -8 916.413 803.155   4
  -2   3  -8 955.103 712.454   3
   2   1  -8 1148.92 941.826   2
  -2   3  -8 162.673 664.707   4
   1  -3  -8 774.686 771.212   2
  -1  -2  -8 562.310 839.183   2
   1  -3  -8 1556.04 644.164   3
   3  -1  -8 1052.86 766.388   4
  -3   2  -8 1631.62 937.680   2
   2   1  -8 1275.90 678.715   4
  -3   2  -8 1642.89 733.621   4
   2   1  -8 692.270 457.055   3
  -1  -2  -8 996.465 771.614   4
  -1  -2  -5 1084.35 715.532   2
   2   1  -5 1634.10 367.180   3
  -1  -2  -5 1399.16 460.701   1
  -2   3  -5 1492.34 559.346   4
  -1  -2  -5 1506.05 642.367   4
   1  -3  -5 1720.62 610.256   4
   3  -1  -5 1406.46 316.767   3
   2   1  -5 1320.89 639.468   2
  -3   2  -5 2282.07 640.232   4
  -2   3  -5 1479.35 527.258   3
   1  -3  -5 856.761 569.818   2
   1  -3  -5 1855.63 422.846   3
  -3   2  -5 1198.60 479.309   3
  -1  -2  -5 1869.75 501.354   3
   2   1  -5 851.442 541.360   4
   3  -1  -5 1583.12 671.299   4
   1  -3  -5 1728.09 474.342   1
  -2   3  -5 1440.71 634.555   2
   3  -1  -5 1724.73 736.922   2
   3  -1  -5 1216.51 504.067   1
  -3   2  -5 1367.27 595.801   2
   1  -3  -2 83052.2 1500.44   3
  -3   2  -2 80641.7 1695.88   3
  -1  -2  -2 85647.0 1794.01   4
  -2   3  -2 81323.8 1579.09   2
  -1  -2  -2 85436.8 1774.56   2
   2   1  -2 82193.8 1670.95   4
   1  -3  -2 82003.3 1792.66   4
   3  -1  -2 78279.3 1738.47   4
  -3   2  -2 79645.7 1603.72   4
   3  -1  -2 81947.0 1708.46   1
   2   1  -2 86343.7 1813.29   2
   1  -3  -2 83492.5 1472.57   1
  -2   3  -2 78471.3 1603.00   3
  -3   2  -2 84103.1 1593.54   2
  -1  -2  -2 83482.5 1341.94   1
  -2   3  -2 79014.7 1553.74   4
   3  -1  -2 80332.0 1851.44   2
   1  -3  -2 88038.8 1858.65   2
  -1  -2  -2 79955.2 1597.46   3
  -2   3   1 31762.4 751.417   1
   3  -1   1 24361.4 736.826   2
   3  -1   1 34112.1 946.472   3
  -3   2   1 30846.2 787.390   4
  -3   2   1 30515.9 844.818   2
   2   1   1 30709.1 805.063   4
   1  -3   1 31912.4 781.708   3
  -1  -2   1 32898.8 660.550   4
  -1  -2   1 32282.0 709.586   2
   2   1   1 31744.8 897.486   3
   3  -1   1 29237.6 596.700   1
  -2   3   1 30225.0 833.578   2
   1  -3   1 32411.8 657.683   2
   2   1   1 28332.1 797.754   2
  -2   3   1 31029.5 822.416   4
   1  -3   1 31264.9 654.261   4
  -3   2   4 3273.22 651.404   2
   3  -1   4 3866.74 620.702   4
  -3   2   4 3515.85 626.794   4
   3  -1   4 4317.51 622.279   3
  -1  -2   4 3713.65 627.613   2
  -2   3   4 3222.11 622.896   4
   1  -3   4 3704.56 491.733   3
   2   1   4 2517.37 548.310   4
   1  -3   4 3632.04 618.451   2
   2   1   4 4310.44 715.475   2
  -2   3   4 2739.56 642.015   2
  -1  -2   4 3945.58 613.042   4
   2   1   4 3429.63 600.720   3
  -2   3   4 3445.19 421.003   3
  -3   2   4 3734.41 397.143   3
   1  -3   4 3789.97 629.046   4
  -1  -2   4 4028.78 449.953   3
   3  -1   4 3922.69 634.368   2
  -3   2   7 53847.7 1741.04   3
  -1  -2   7 56688.4 1857.07   3
   3  -1   7 54230.8 2237.89   3
   1  -3   7 57253.8 2057.38   3
  -2   3   7 54598.5 1912.28   3
  -3   2  10 223.683 553.346   3
  -2   3  10 380.089 658.265   3
   3  -1  10-952.682 724.917   3
   1  -3  10 113.399 598.961   3
   2   1  10-319.658 732.921   3
  -1  -2  10-16.3940 567.128   3
   3   0 -12 59654.7 3844.34   4
  -3   3 -12 48834.8 3339.93   2
   0  -3 -12 55347.0 3736.08   4
   3   0 -12 59474.2 3958.75   2
   0  -3 -12 56743.7 3693.24   2
  -3   3 -12 56476.4 3580.38   4
  -3   3  -9 317.294 721.611   4
   0  -3  -9-823.820 904.299   4
   0  -3  -9-725.708 909.024   2
   3   0  -9 45.4871 480.958   3
   3   0  -9-830.548 879.518   4
   3   0  -9 240.953 1028.89   2
  -3   3  -9 252.251 766.658   2
   0  -3  -6 294969. 5649.29   2
   3   0  -6 292403. 5696.77   4
  -3   3  -6 286276. 5312.50   4
   0  -3  -6 291168. 4844.76   1
  -3   3  -6 302036. 5414.38   2
   3   0  -6 300496. 5921.18   2
   0  -3  -6 308454. 4513.50   3
   3   0  -6 303891. 3342.23   3
  -3   3  -6 307716. 4821.59   3
   0  -3  -6 291883. 5679.81   4
  -3   3  -3-59.5721 306.894   4
   3   0  -3-255.709 403.876   2
   0  -3  -3-544.693 364.272   4
   3   0  -3-152.008 356.728   4
  -3   3  -3 2.61040 380.024   2
   0  -3  -3 155.300 241.825   1
  -3   3  -3 84.3648 357.654   3
   0  -3  -3 222.557 316.620   3
   0  -3  -3-413.449 392.091   2
   3   0   3-476.740 408.618   3
   3   0   3 525.452 390.556   2
   0  -3   3-88.2566 274.589   3
   3   0   3 140.415 365.830   4
  -3   3   3 83.7582 219.974   3
   0  -3   3 182.141 360.790   2
  -3   3   3-222.504 328.495   4
   0  -3   3 72.6828 335.071   4
  -3   3   3 470.186 447.911   2
  -3   3   6 481030. 4825.46   3
   0  -3   6 493636. 5223.23   3
  -3   3   9 78.1286 520.678   3
   0  -3   9-426.180 593.074   3
   3   0   9 793.933 683.742   3
   3   0  12 49590.5 2825.45   3
  -4   0 -13 2067.78 1331.06   2
   4  -4 -13 1370.99 1551.03   2
   0   4 -13 215.238 1416.95   2
  -4   0 -13 1173.11 1218.11   4
   0   4 -13 492.668 1075.97   4
   4  -4 -13 572.505 1190.15   4
  -4   0 -10 28347.7 2346.11   4
   0   4 -10 24782.2 2291.43   2
   4  -4 -10 28479.6 2522.81   2
  -4   0 -10 25475.6 2254.46   2
   0   4 -10 23044.5 2156.06   4
   4  -4 -10 29010.5 2574.07   4
  -4   0  -7 82.0686 523.080   4
   0   4  -7-302.749 655.488   2
   4  -4  -7 699.862 639.806   4
   0   4  -7 291.523 434.275   3
  -4   0  -7 443.921 579.825   2
   4  -4  -7 757.554 771.986   2
   0   4  -7-248.573 557.901   4
   0   4  -4 12897.1 950.525   4
   0   4  -4 11665.5 982.791   2
   4  -4  -4 12182.9 1067.78   4
  -4   0  -4 12940.0 1019.67   4
  -4   0  -4 12039.0 1010.11   2
   0   4  -4 11168.8 778.589   3
  -4   0  -4 11735.7 952.396   3
   4  -4  -4 14117.2 1184.70   2
   4  -4  -4 12797.2 956.353   1
   4  -4  -1 136.484 189.780   1
   0   4  -1-101.573 219.114   1
   4  -4  -1-161.952 264.467   2
  -4   0  -1-303.617 335.616   3
   0   4  -1-94.9790 175.110   2
   4  -4  -1-38.3346 216.088   4
   4  -4   2 32051.7 1010.61   2
   4  -4   2 31704.9 1080.44   1
  -4   0   2 35401.9 1073.21   4
   4  -4   2 31742.8 1062.69   4
   0   4   2 33684.9 1131.79   3
   0   4   2 35797.9 1234.06   4
  -4   0   2 35533.1 1160.98   2
   0   4   2 36352.6 1278.96   2
   0   4   2 34977.8 944.119   1
   4  -4   2 32183.0 1221.65   3
   4  -4   5 258.113 567.589   3
   4  -4   5 121.236 494.580   4
  -4   0   5 134.359 176.709   3
  -4   0   5 67.1328 471.553   2
   0   4   5 32.7742 448.609   3
  -4   0   5-372.826 488.541   4
   0   4   5 362.816 584.568   2
   4  -4   5-27.0021 502.272   2
   0   4   5 490.193 575.575   4
   4  -4   8 73335.2 2756.04   3
  -4   0   8 69581.6 1762.73   3
   0   4   8 74521.2 2703.72   3
   4  -4  11 993.217 850.525   3
   0   4  11-691.273 792.729   3
  -4   1 -11-51.2838 875.377   4
   4  -3 -11 14.2947 969.885   4
  -4   1 -11 2028.10 1072.84   2
   3  -4 -11-774.111 981.767   4
  -3  -1 -11 696.814 963.623   2
   3  -4 -11 1895.52 1300.07   2
  -1   4 -11 843.820 934.729   4
  -1   4 -11 2313.11 1268.94   2
   4  -3 -11 1389.77 1166.71   2
  -3  -1 -11 159.974 915.762   4
   1   3 -11 37.0601 1042.82   4
   1   3 -11 2006.17 1160.42   2
  -3  -1  -8 16919.8 1611.87   4
   4  -3  -8 19300.9 1805.46   4
   1   3  -8 19929.8 1834.68   2
  -1   4  -8 19644.1 1763.37   2
   4  -3  -8 18222.9 1874.69   2
   3  -4  -8 19443.5 1878.80   4
  -3  -1  -8 19318.6 1704.63   2
   3  -4  -8 20985.3 1928.08   2
   1   3  -8 20981.8 1795.56   4
  -1   4  -8 19488.1 1757.08   4
   3  -4  -8 19027.6 1265.35   3
  -1   4  -8 19689.9 1428.60   3
  -4   1  -8 17141.3 1686.00   4
  -4   1  -8 18834.1 1730.51   2
   1   3  -8 20243.2 1296.66   3
   4  -3  -5 24569.2 1594.76   4
   3  -4  -5 25893.0 1667.19   2
   1   3  -5 28587.4 1122.57   3
   1   3  -5 26464.0 1621.37   2
  -4   1  -5 27645.7 1575.89   4
  -1   4  -5 25106.2 1484.76   4
   3  -4  -5 26181.7 1092.58   3
   4  -3  -5 25131.7 1673.59   2
   3  -4  -5 23664.9 1602.65   4
  -4   1  -5 23767.1 1474.03   2
   3  -4  -5 25068.8 1384.54   1
   1   3  -5 23435.1 1450.74   4
  -1   4  -5 27996.7 1275.28   3
  -3  -1  -5 24799.3 1550.37   4
  -3  -1  -5 27570.8 1429.75   3
   4  -3  -5 28262.5 1517.35   1
  -3  -1  -5 23970.0 1514.10   2
  -4   1  -5 26550.2 1435.23   3
  -1   4  -5 24592.5 1523.73   2
  -4   1  -2 8972.43 592.432   4
   4  -3  -2 7995.40 667.175   4
  -3  -1  -2 9335.39 682.421   3
   4  -3  -2 8659.89 631.453   1
   3  -4  -2 8662.35 566.700   1
   1   3  -2 8783.48 480.040   3
  -3  -1  -2 7701.71 588.636   2
  -1   4  -2 8423.15 556.761   2
  -4   1  -2 8448.61 677.813   3
   1   3  -2 9298.74 569.966   4
   3  -4  -2 9761.23 717.090   4
   1   3  -2 9174.14 623.466   2
  -3  -1  -2 9021.14 627.011   4
   4  -3  -2 8834.65 701.537   2
  -4   1  -2 8138.00 453.962   1
  -1   4  -2 8863.84 540.721   4
  -1   4  -2 8320.67 567.489   3
  -4   1  -2 8508.23 579.169   2
   3  -4  -2 8852.11 701.991   2
   1   3   1 11799.4 550.527   2
  -1   4   1 11233.5 417.450   1
  -3  -1   1 11665.1 429.419   4
  -4   1   1 10236.2 525.449   2
   1   3   1 10842.2 541.112   4
  -4   1   1 10303.3 564.452   1
   3  -4   1 10796.6 512.712   1
  -3  -1   1 11060.6 398.944   3
   4  -3   1 11306.0 443.719   2
   3  -4   1 12704.6 657.868   3
   1   3   1 12299.8 334.438   1
  -1   4   1 10789.2 519.668   4
   4  -3   1 11564.7 485.486   1
  -4   1   1 10809.7 479.244   4
   4  -3   1 11998.8 682.255   3
  -1   4   1 11027.2 554.967   2
  -3  -1   1 10544.5 482.614   2
   1   3   1 10500.8 584.430   3
   4  -3   4 3897.96 657.635   4
  -4   1   4 2744.19 263.063   3
  -1   4   4 4474.28 735.783   4
   3  -4   4 3368.48 627.089   2
  -3  -1   4 3674.63 667.789   2
  -3  -1   4 3882.72 302.604   3
  -4   1   4 2950.91 636.605   4
   3  -4   4 3866.96 647.921   4
   1   3   4 3795.61 709.765   2
  -1   4   4 3455.33 552.177   3
   4  -3   4 3803.97 641.277   2
   1   3   4 3674.86 671.727   4
   4  -3   4 3812.99 665.082   3
  -4   1   4 2848.83 604.155   2
  -3  -1   4 3860.58 600.979   4
  -1   4   4 2965.39 657.337   2
   3  -4   4 3632.49 599.517   3
   1   3   4 3331.98 557.027   3
  -4   1   7 13118.0 788.883   3
  -1   4   7 13648.4 1162.89   3
   1   3   7 11988.6 1118.95   3
   4  -3   7 12038.8 1155.60   3
  -3  -1   7 12267.1 776.476   3
   3  -4   7 12489.8 1173.58   3
   1   3  10 8176.68 1200.88   3
  -1   4  10 11069.3 1226.51   3
   4  -3  10 11405.9 1392.60   3
  -3  -1  10 7587.61 782.697   3
  -4   1  10 9778.81 871.289   3
   3  -4  10 11122.2 1250.29   3
  -2   4 -12 15547.6 2045.94   2
  -4   2 -12 11104.5 1828.56   2
   4  -2 -12 16194.5 2235.70   4
   2  -4 -12 13864.8 2074.14   2
  -2  -2 -12 15489.7 2073.80   2
   2   2 -12 14653.9 2009.77   4
  -2   4 -12 14484.5 1986.63   4
   2   2 -12 13314.1 2072.79   2
   2  -4 -12 16133.1 2182.22   4
   4  -2 -12 17472.0 2263.83   2
  -4   2 -12 12873.4 1844.37   4
  -2  -2 -12 15792.2 2143.63   4
   2  -4  -9 78557.1 3714.70   4
  -4   2  -9 75806.2 3462.47   4
  -2  -2  -9 69877.1 3424.56   4
  -4   2  -9 76015.2 3455.69   2
   4  -2  -9 76018.4 3674.42   4
   4  -2  -9 72159.8 3651.22   2
  -2   4  -9 76611.7 3505.20   2
   2  -4  -9 70787.4 3526.83   2
   2  -4  -9 73086.7 2599.61   3
  -2  -2  -9 75805.6 3565.29   2
   2   2  -9 79919.8 3789.89   2
  -2   4  -9 74921.1 3424.18   4
   2   2  -9 61105.6 2094.89   3
   2   2  -9 80163.7 3664.73   4
   4  -2  -6 71113.4 1580.41   3
  -2  -2  -6 64915.8 2257.09   1
   2   2  -6 69789.0 2805.11   2
   2  -4  -6 66238.3 2827.34   2
   4  -2  -6 72175.3 2933.25   4
  -4   2  -6 73148.4 2686.64   2
   2   2  -6 73168.3 1809.33   3
   2   2  -6 70992.5 2716.80   4
   2  -4  -6 70016.1 2878.69   4
  -2   4  -6 75826.2 2333.49   3
  -2  -2  -6 75778.1 2835.56   2
  -2  -2  -6 74300.0 2405.38   3
  -2   4  -6 67816.0 2599.56   4
   2  -4  -6 73671.8 2115.75   3
   4  -2  -6 66548.9 2869.37   2
  -2  -2  -6 69565.0 2785.18   4
  -2   4  -6 69982.7 2686.32   2
  -4   2  -6 68402.9 2438.37   3
  -4   2  -6 73470.4 2724.09   4
   2  -4  -3 317590. 4330.96   4
   2  -4  -3 330797. 4419.20   2
   2   2  -3 326134. 4012.50   4
   2   2  -3 331591. 2566.44   3
  -4   2  -3 323543. 4057.01   3
  -2  -2  -3 330136. 4217.55   4
  -2   4  -3 328195. 3687.72   3
   2   2  -3 322684. 4279.48   2
   2  -4  -3 335950. 3280.14   3
  -4   2  -3 325044. 3931.64   4
   4  -2  -3 333820. 4105.23   1
   2  -4  -3 333439. 3656.94   1
  -4   2  -3 326807. 3870.22   2
  -2  -2  -3 323598. 4120.96   2
  -2  -2  -3 327764. 3929.31   3
  -2  -2  -3 327880. 3245.57   1
   4  -2  -3 324748. 4309.34   4
  -2   4  -3 319394. 3866.67   2
   4  -2  -3 306628. 4349.85   2
  -2   4  -3 323165. 3793.59   4
  -4   2   0 103931. 1115.01   1
  -2   4   0 107058. 1207.01   1
   2   2   0 106167. 1440.59   3
   2  -4   0 103660. 1209.13   1
  -2  -2   0 109083. 1482.19   3
   4  -2   0 102821. 1489.07   3
  -4   2   0 101566. 1501.52   3
   4  -2   0 98689.0 1047.63   1
   4  -2   3 305329. 4034.81   3
  -2  -2   3 311101. 2297.65   3
  -2   4   3 312145. 4183.13   4
   2   2   3 305335. 3863.50   3
  -2   4   3 309724. 3290.07   3
  -2   4   3 311244. 3821.30   1
  -2  -2   3 310479. 3947.98   2
  -2   4   3 313079. 4381.25   2
   2  -4   3 322951. 3887.21   4
   2  -4   3 316942. 3559.89   3
  -2  -2   3 309177. 3758.73   4
  -4   2   3 308203. 4210.11   2
   2   2   3 315902. 4243.34   4
  -4   2   3 307479. 4005.66   4
   2  -4   3 317089. 3805.30   2
   4  -2   3 317301. 4040.69   2
   4  -2   3 314471. 4140.99   4
  -2  -2   6 76663.6 1776.92   3
   2   2   6 72869.5 2427.39   3
   2  -4   6 78172.0 2334.84   3
  -4   2   6 76871.6 1713.64   3
  -2   4   6 73025.0 2165.41   3
   4  -2   6 73354.5 2487.25   3
  -2  -2   9 76063.9 2234.36   3
  -4   2   9 81064.7 2267.59   3
  -2   4   9 82821.4 2752.48   3
   2   2   9 80439.3 3112.15   3
   2  -4   9 82495.6 2892.07   3
   4  -2   9 81948.7 3062.19   3
   4  -2  12 11901.9 1562.13   3
   2   2  12 13471.7 1659.73   3
  -3   4 -13 4774.92 1444.98   4
   3   1 -13 6225.55 1765.37   4
   3   1 -13 8452.81 1938.47   2
  -4   3 -13 7843.59 1604.14   1
   1  -4 -13 9127.20 2023.45   4
  -4   3 -13 7227.62 1632.45   4
   4  -1 -13 6194.34 1729.99   2
   4  -1 -13 5843.83 1641.23   4
   1  -4 -13 7327.90 1783.57   2
  -3   4 -13 4149.59 1321.58   1
  -1  -3 -13 8341.27 1774.56   2
  -4   3 -13 5601.91 1494.72   2
  -3   4 -13 5192.73 1544.55   2
  -1  -3 -13 6548.37 1769.07   4
  -1  -3 -10 8794.45 1612.70   4
  -4   3 -10 7507.25 1452.55   2
  -3   4 -10 14590.0 1773.09   2
   4  -1 -10 11405.6 1810.21   2
   4  -1 -10 11048.7 1665.11   4
  -3   4 -10 12603.1 1671.17   4
   3   1 -10 14000.0 1926.94   2
   1  -4 -10 14443.9 1885.40   2
  -1  -3 -10 9282.05 1612.56   2
   3   1 -10 8678.29 1614.30   4
  -4   3 -10 10953.4 1562.03   4
   1  -4 -10 10838.5 1676.94   4
  -4   3  -7 8786.16 1082.38   3
   4  -1  -7 10180.3 1373.78   2
  -3   4  -7 9973.21 1179.51   4
  -1  -3  -7 12897.0 1141.17   3
  -3   4  -7 11648.1 1151.52   3
  -1  -3  -7 10194.1 1326.68   4
   1  -4  -7 12487.3 1131.09   3
   3   1  -7 11277.3 1311.51   4
   1  -4  -7 10444.3 1336.00   2
  -1  -3  -7 9757.97 1327.66   2
  -4   3  -7 11760.0 1259.96   4
   1  -4  -7 10385.6 1387.37   4
   3   1  -7 12409.8 1526.27   2
   4  -1  -7 12236.6 1437.34   4
   3   1  -7 11182.5 770.252   3
   4  -1  -7 9642.33 688.105   3
  -3   4  -7 9667.40 1300.93   2
  -4   3  -7 11111.4 1258.09   2
  -1  -3  -4 5276.21 555.026   1
  -1  -3  -4 4869.83 616.723   3
  -3   4  -4 4499.05 654.383   3
   1  -4  -4 5332.03 606.832   3
  -3   4  -4 5252.22 707.275   2
   1  -4  -4 5149.05 574.614   1
   1  -4  -4 5878.48 800.798   2
  -1  -3  -4 5230.74 783.116   2
   1  -4  -4 4369.72 728.405   4
  -4   3  -4 4579.70 684.766   3
   3   1  -4 4934.07 370.479   3
   4  -1  -4 5971.69 759.998   1
  -1  -3  -4 5557.84 780.805   4
   4  -1  -4 5329.18 806.561   2
   4  -1  -4 5547.86 788.838   4
  -3   4  -4 4667.74 653.790   4
   4  -1  -4 3304.52 254.420   3
   3   1  -4 4928.33 785.119   2
  -4   3  -4 3517.64 650.007   4
   3   1  -4 5224.81 713.862   4
  -4   3  -4 5167.96 712.524   2
  -3   4  -1 10399.1 346.152   2
   3   1  -1 10721.4 462.444   4
   3   1  -1 10291.0 520.378   2
   4  -1  -1 11735.1 552.392   2
  -1  -3  -1 11589.0 308.229   1
  -1  -3  -1 11568.0 528.163   4
  -1  -3  -1 11120.3 599.533   3
  -3   4  -1 11066.2 630.887   3
  -1  -3  -1 12066.7 522.627   2
   4  -1  -1 10740.7 569.373   1
   3   1  -1 10794.5 393.877   3
  -3   4  -1 10958.8 502.238   1
   1  -4  -1 11473.7 543.998   4
  -4   3  -1 11493.0 665.354   3
   1  -4  -1 10973.0 525.122   2
   4  -1  -1 11000.2 499.626   4
   1  -4  -1 11094.9 399.927   1
  -4   3  -1 10787.8 453.661   1
  -3   4   2 6780.09 620.795   2
   1  -4   2 6800.03 519.902   4
  -4   3   2 7731.25 607.609   4
  -4   3   2 8267.95 678.024   2
   4  -1   2 7832.46 582.636   4
  -3   4   2 8499.20 604.840   1
   3   1   2 7700.33 619.628   4
   4  -1   2 7245.04 679.477   3
   4  -1   2 9034.33 661.664   2
   3   1   2 7936.84 639.752   3
  -4   3   2 6898.58 583.844   1
   1  -4   2 9488.58 574.423   3
  -3   4   2 8910.38 647.362   4
  -1  -3   2 8835.81 593.959   2
   1  -4   2 8264.15 553.146   2
  -1  -3   2 8535.07 548.693   4
   3   1   2 8189.12 622.292   2
  -3   4   5 25225.9 1673.02   2
  -1  -3   5 28604.4 1613.99   2
  -1  -3   5 30549.7 1129.25   3
  -1  -3   5 30606.4 1622.58   4
   3   1   5 32032.9 1583.19   3
   4  -1   5 29066.9 1514.68   3
   1  -4   5 27491.9 1569.43   2
  -4   3   5 28536.8 1013.25   3
   3   1   5 30497.4 1771.14   4
  -4   3   5 29635.9 1662.68   4
  -4   3   5 31268.9 1785.38   2
   4  -1   5 31595.2 1756.79   4
   1  -4   5 29392.7 1282.21   3
  -3   4   5 27925.8 1673.19   4
   1  -4   5 30647.6 1643.72   4
   4  -1   5 28099.6 1711.84   2
  -3   4   5 29364.7 1233.43   3
   3   1   5 29534.7 1802.60   2
   3   1   8 18754.9 1534.78   3
   1  -4   8 18706.2 1314.90   3
   4  -1   8 18676.9 1585.87   3
  -3   4   8 18203.7 1285.94   3
  -1  -3   8 20769.3 1228.31   3
  -4   3   8 21313.3 1188.50   3
  -3   4  11 1441.75 750.110   3
   4  -1  11 905.219 913.395   3
   3   1  11 565.971 832.807   3
   1  -4  11 1308.35 709.228   3
  -4   4 -11 910.868 805.644   4
   4   0 -11 403.517 1007.41   4
  -4   4 -11-237.009 996.460   2
   4   0 -11-996.004 1135.11   2
   0  -4 -11 496.324 991.811   2
   0  -4 -11-435.353 1056.16   4
  -4   4  -8 74643.7 3166.84   4
  -4   4  -8 65681.7 3045.32   2
   0  -4  -8 71345.1 3299.29   2
   4   0  -8 70199.0 3413.11   2
   0  -4  -8 67625.9 3253.27   4
   4   0  -8 62085.9 1689.46   3
   4   0  -8 69299.0 3237.33   4
  -4   4  -5-17.2717 465.723   4
   0  -4  -5-56.9618 540.586   2
   4   0  -5 225.273 182.593   3
   0  -4  -5-133.916 363.169   3
   4   0  -5-40.6618 500.846   4
   0  -4  -5 409.897 487.615   4
   0  -4  -5 529.839 394.255   1
   4   0  -5-101.552 610.561   2
  -4   4  -5-523.555 526.137   2
  -4   4  -5 614.215 446.284   3
  -4   4  -2 27980.8 933.682   4
  -4   4  -2 29161.6 926.047   2
   0  -4  -2 30366.7 1117.07   2
   4   0  -2 29893.4 1077.94   4
   0  -4  -2 30819.8 798.418   1
   0  -4  -2 32787.6 1114.62   3
   4   0  -2 29712.5 1163.36   2
  -4   4  -2 29110.4 986.244   1
  -4   4  -2 30102.1 1171.65   3
   0  -4  -2 29956.1 1120.04   4
  -4   4   1 208.153 198.777   1
  -4   4   1-91.1017 264.476   2
   4   0   1-230.772 207.802   4
   0  -4   1-24.4414 131.539   2
  -4   4   1-14.5280 169.331   4
   4   0   1-83.3696 331.228   3
   4   0   4 16476.3 1186.14   4
   0  -4   4 16100.1 1057.38   4
   0  -4   4 16523.8 848.429   3
   4   0   4 17605.7 1152.82   3
  -4   4   4 18234.2 795.435   3
   0  -4   4 17376.2 1107.16   2
  -4   4   4 17506.7 1191.08   4
  -4   4   4 15522.3 1199.94   2
   4   0   4 16908.0 1215.76   2
   4   0   7-153.012 636.136   3
   0  -4   7-17.7411 400.507   3
  -4   4   7 274.288 362.207   3
   0  -4  10 17803.8 1326.80   3
  -4   4  10 22597.5 1434.97   3
   4   0  10 22203.6 1858.88   3
   5  -5 -11 661.060 1024.38   4
   0   5 -11 233.106 836.537   4
  -5   0 -11-861.703 832.891   4
  -5   0 -11 68.7302 864.453   2
   5  -5 -11 2472.21 1269.89   2
   0   5 -11-637.463 1111.30   2
   0   5  -8 9089.30 1322.71   2
   5  -5  -8 9008.75 1423.56   2
   0   5  -8 8631.50 1253.01   4
  -5   0  -8 8301.94 1243.55   4
   0   5  -8 9553.92 986.300   3
   5  -5  -8 9035.74 1381.29   4
  -5   0  -8 8289.56 1284.11   2
  -5   0  -5-58.6392 497.590   3
   0   5  -5 53.5283 552.231   2
   0   5  -5 28.2225 375.519   3
   0   5  -5 467.619 481.590   4
  -5   0  -5 166.473 486.875   4
  -5   0  -5 164.315 511.591   2
   5  -5  -5-246.878 543.883   4
   5  -5  -5 221.293 629.895   2
   5  -5  -5-224.632 396.951   1
   5  -5  -2 172865. 2812.37   4
  -5   0  -2 177375. 2461.89   4
  -5   0  -2 166756. 2397.72   2
  -5   0  -2 177854. 2942.13   3
   0   5  -2 173411. 2130.36   4
  -5   0  -2 176869. 1556.27   1
   5  -5  -2 173907. 2864.90   2
   5  -5  -2 178186. 2501.59   1
   0   5  -2 178886. 2410.32   2
   0   5  -2 169933. 2367.80   3
   0   5   1 35.6325 149.105   1
  -5   0   1 104.457 223.927   3
  -5   0   1 176.300 166.866   4
   0   5   1 58.4180 256.681   2
   5  -5   1 109.143 198.471   1
   5  -5   1 444.710 388.001   3
   5  -5   1 61.6567 147.622   2
   0   5   1-47.5042 235.494   4
   0   5   1 149.791 316.094   3
   0   5   4 55990.6 2161.07   4
   5  -5   4 57780.2 2081.75   4
  -5   0   4 58267.4 1944.57   4
  -5   0   4 57201.6 2042.88   2
   0   5   4 55297.2 2211.32   2
   5  -5   4 56625.1 1990.87   2
   5  -5   4 59117.4 2072.81   3
   0   5   4 58948.2 1946.64   3
   0   5   7 399.856 535.709   3
  -5   0   7 45.1880 189.566   3
   5  -5   7-319.143 593.982   3
   5  -5  10 50086.7 2626.10   3
   0   5  10 55151.0 2684.49   3
  -5   1 -12 8947.21 1592.90   2
  -1   5 -12 6834.01 1555.66   2
   5  -4 -12 5602.09 1639.00   2
  -5   1 -12 6556.50 1487.11   4
  -1   5 -12 9681.67 1704.44   4
   1   4 -12 9511.95 1718.18   4
   4  -5 -12 6444.81 1738.96   2
   5  -4 -12 7997.75 1862.74   4
   1   4 -12 5521.73 1424.17   2
  -4  -1 -12 3179.62 1325.57   2
   4  -5 -12 8133.81 1791.48   4
  -4  -1 -12 7730.64 1613.46   4
   1   4  -9 56589.5 3146.44   2
   1   4  -9 45633.6 1996.30   3
  -1   5  -9 56387.7 2981.80   4
  -4  -1  -9 55617.8 3074.39   4
   1   4  -9 52784.3 2945.40   4
  -1   5  -9 53425.3 3017.49   2
  -5   1  -9 55157.4 2937.40   4
   5  -4  -9 53391.3 3250.24   2
  -4  -1  -9 56712.2 3003.72   2
   5  -4  -9 56125.8 3234.88   4
   4  -5  -9 52456.3 3173.77   2
  -5   1  -9 53610.6 2912.94   2
   4  -5  -9 54957.2 3190.17   4
  -5   1  -6 74535.6 2758.24   4
  -4  -1  -6 78703.7 2886.47   4
   1   4  -6 72334.3 2859.88   2
  -1   5  -6 76629.2 2732.71   4
   1   4  -6 79790.8 2059.72   3
   1   4  -6 78198.8 2805.24   4
   5  -4  -6 71659.8 3000.97   2
  -1   5  -6 77158.4 2847.55   2
   4  -5  -6 72888.6 3004.75   4
   5  -4  -6 73308.0 3021.09   4
   4  -5  -6 76511.9 3109.56   2
  -5   1  -6 80149.6 2742.54   3
  -1   5  -6 79523.2 2311.40   3
  -4  -1  -6 77453.5 2678.49   3
  -5   1  -6 78111.0 2802.01   2
  -4  -1  -6 78145.2 2829.69   2
  -1   5  -3 114439. 2245.26   4
  -5   1  -3 109807. 2276.17   2
   1   4  -3 108655. 2414.05   2
   4  -5  -3 113345. 2723.80   2
   1   4  -3 116779. 2334.64   4
   4  -5  -3 115367. 2267.41   1
  -4  -1  -3 107503. 2303.08   2
   5  -4  -3 112450. 2715.46   2
  -4  -1  -3 115533. 2535.19   3
   5  -4  -3 113787. 2398.95   1
  -4  -1  -3 115576. 2486.89   4
  -1   5  -3 114676. 2159.82   3
  -5   1  -3 113224. 2570.38   3
   4  -5  -3 113267. 2663.97   4
   1   4  -3 116518. 1880.51   3
  -5   1  -3 113617. 2380.87   4
  -1   5  -3 113606. 2351.12   2
   1   4   0 113489. 1327.57   1
  -1   5   0 114647. 1425.08   1
   4  -5   0 115534. 1314.35   4
   4  -5   0 109277. 1462.79   1
  -4  -1   0 118405. 1760.72   3
  -5   1   0 109891. 1330.20   1
   5  -4   0 107048. 1354.77   1
  -1   5   0 117691. 1045.04   2
   5  -4   0 113408. 1827.17   3
  -5   1   0 111807. 1789.03   3
   1   4   3 335984. 4584.59   2
  -1   5   3 328837. 3890.71   3
   5  -4   3 346072. 4108.19   2
   4  -5   3 338453. 4091.18   4
  -1   5   3 337652. 4474.33   4
  -5   1   3 328757. 4313.23   2
   5  -4   3 342448. 4215.27   4
   4  -5   3 345422. 4279.64   3
  -1   5   3 342566. 3833.70   1
  -1   5   3 333236. 4586.81   2
  -4  -1   3 355622. 4266.47   2
  -4  -1   3 341336. 3938.37   4
   1   4   3 346724. 4572.18   4
  -5   1   3 339385. 4042.88   4
   5  -4   3 338279. 4430.49   3
   1   4   3 333261. 4177.61   3
   4  -5   3 335228. 3960.17   2
  -5   1   6 36607.1 934.045   3
   1   4   6 34352.5 1757.18   3
   4  -5   6 39376.0 1855.84   3
  -4  -1   6 35395.2 972.094   3
  -1   5   6 35981.7 1724.73   3
   5  -4   6 32656.8 1775.80   3
   1   4   9 85582.5 3168.42   3
   5  -4   9 90911.7 3326.31   3
   4  -5   9 85255.6 3147.50   3
  -1   5   9 89359.3 3054.33   3
   1   4  12 10542.1 1565.55   3
   4  -5  12 8710.69 1395.59   3
   5  -4  12 7891.55 1411.24   3
  -2   5 -13 6542.42 1657.89   4
   3  -5 -13 5037.64 1784.76   4
   5  -3 -13 7074.47 1886.19   2
  -5   2 -13 5251.65 1499.12   2
   5  -3 -13 6523.13 1896.64   4
   3  -5 -13 8294.66 2048.80   2
  -2   5 -13 6228.33 1729.03   2
   2   3 -13 5465.97 1484.12   4
  -3  -2 -13 7098.43 1676.39   4
  -3  -2 -13 7531.69 1699.63   2
  -5   2 -13 6202.28 1565.23   4
   2   3 -13 9575.51 2051.98   2
   3  -5 -10 30048.9 2697.42   4
  -3  -2 -10 33381.8 2565.84   4
   3  -5 -10 32102.8 2614.29   2
   2   3 -10 37420.2 2697.86   4
  -5   2 -10 34772.8 2533.99   4
  -2   5 -10 28816.8 2487.84   2
  -3  -2 -10 29892.3 2470.91   2
  -5   2 -10 31901.2 2424.06   2
   2   3 -10 29204.2 2508.96   2
   5  -3 -10 32559.7 2666.37   4
  -2   5 -10 29368.5 2346.39   4
   5  -3 -10 28887.8 2609.80   2
  -2   5  -7 55557.0 2551.87   4
  -5   2  -7 57600.3 2606.28   2
   3  -5  -7 49237.6 2636.37   2
  -3  -2  -7 55854.5 2620.51   2
  -2   5  -7 55903.5 2661.39   2
   2   3  -7 60993.2 1833.75   3
   2   3  -7 57047.1 2702.36   4
   2   3  -7 56759.3 2816.25   2
  -5   2  -7 56563.1 2589.09   4
  -2   5  -7 59076.8 2264.26   3
   3  -5  -7 58736.3 2844.76   4
   5  -3  -7 58803.0 2932.15   4
   5  -3  -7 54067.1 2863.00   2
   3  -5  -7 59917.0 1984.43   3
  -3  -2  -7 56427.9 2688.49   4
  -3  -2  -4 3222.03 659.798   4
   5  -3  -4 4682.24 858.514   2
   5  -3  -4 4028.79 613.385   1
  -3  -2  -4 3666.40 633.444   2
  -5   2  -4 3793.92 643.201   2
   5  -3  -4 2644.05 603.102   4
   2   3  -4 4057.64 428.098   3
  -3  -2  -4 3761.92 634.894   3
  -2   5  -4 3592.58 614.642   2
   2   3  -4 3571.28 680.695   2
  -2   5  -4 3944.06 632.083   4
   2   3  -4 4695.67 704.083   4
  -3  -2  -4 3388.78 449.996   1
  -2   5  -4 3977.32 561.504   3
  -5   2  -4 2887.35 556.990   4
  -5   2  -4 3839.06 652.391   3
   3  -5  -4 3511.29 555.390   1
   3  -5  -4 3453.30 696.708   4
   3  -5  -4 4444.61 754.072   2
   3  -5  -1 73534.5 1195.78   1
  -2   5  -1 71781.5 1506.99   3
   2   3  -1 73733.2 1029.53   4
   5  -3  -1 67944.5 1325.17   1
   5  -3  -1 67187.6 1361.55   2
   5  -3  -1 73859.3 1182.06   3
   3  -5  -1 73194.8 1384.99   4
  -5   2  -1 68734.5 893.910   1
  -3  -2  -1 61414.1 1446.58   3
  -3  -2  -1 72575.0 1204.22   4
  -5   2  -1 68946.5 1619.98   3
  -2   5  -1 69102.4 1357.87   1
   3  -5  -1 72925.5 1351.99   2
   2   3  -1 68542.6 1175.32   2
   2   3   2 120269. 2281.98   3
   5  -3   2 118213. 2039.01   2
   5  -3   2 123763. 2086.77   4
   5  -3   2 120122. 1893.88   1
   5  -3   2 120209. 2415.88   3
  -5   2   2 122498. 2214.11   2
   3  -5   2 119620. 1825.21   2
  -2   5   2 122064. 1942.95   1
   3  -5   2 120855. 1914.69   4
   3  -5   2 122867. 2197.36   3
  -5   2   2 122897. 2062.41   4
   2   3   2 123083. 2276.48   2
  -3  -2   2 119273. 1874.44   4
  -5   2   2 121142. 2332.34   1
  -2   5   2 121557. 2216.02   4
  -3  -2   2 118546. 1978.01   2
  -2   5   2 122642. 2325.48   2
   2   3   2 120484. 1492.62   1
   2   3   2 120464. 2233.02   4
  -2   5   2 120383. 2013.82   3
   5  -3   5 18557.0 1392.80   4
   3  -5   5 20866.0 1253.83   3
   2   3   5 19496.4 1466.94   4
   2   3   5 21037.6 1553.98   2
   5  -3   5 18153.2 1390.98   2
  -5   2   5 21518.1 713.664   3
  -5   2   5 21495.8 1387.62   4
   3  -5   5 19652.0 1369.20   4
  -2   5   5 18155.8 1426.45   4
  -3  -2   5 20234.4 1416.36   2
  -3  -2   5 18354.6 1276.30   4
   2   3   5 20736.7 1313.63   3
   3  -5   5 20084.5 1367.63   2
  -2   5   5 20649.7 1163.93   3
  -3  -2   5 20441.3 740.019   3
   5  -3   5 21474.0 1387.38   3
  -5   2   5 21580.7 1511.48   2
  -2   5   5 18506.4 1487.55   2
  -3  -2   8 51574.3 1549.97   3
   2   3   8 53086.3 2411.92   3
  -5   2   8 57422.1 1623.61   3
   5  -3   8 58892.6 2577.51   3
  -2   5   8 53641.9 2182.59   3
   3  -5   8 53862.1 2345.38   3
   3  -5  11 761.002 748.178   3
  -2   5  11 2444.12 959.598   3
   5  -3  11 639.303 817.972   3
   2   3  11 2072.22 984.985   3
   3   2 -11 1816.26 1111.00   4
  -5   3 -11 1487.25 932.297   4
  -3   5 -11 2576.12 1180.77   2
   2  -5 -11 301.132 977.209   2
   3   2 -11 1816.28 1391.28   2
   5  -2 -11 1314.62 1131.41   2
  -2  -3 -11 912.176 937.894   4
   2  -5 -11 2458.95 1188.72   4
  -3   5 -11 1815.23 1033.38   4
  -5   3 -11 2914.06 1258.79   2
  -2  -3 -11 2966.06 1242.13   2
   5  -2 -11 3006.27 1193.92   4
   3   2  -8 54227.8 2872.39   4
  -2  -3  -8 54396.1 2897.50   4
  -3   5  -8 53863.4 2669.70   4
   3   2  -8 50071.0 1636.16   3
  -5   3  -8 55117.9 2690.90   2
   3   2  -8 55873.9 3040.56   2
   5  -2  -8 56474.0 3069.45   4
   5  -2  -8 58895.1 3164.45   2
   2  -5  -8 55324.2 2978.05   2
  -5   3  -8 54054.6 2743.67   4
  -2  -3  -8 52672.9 2776.76   2
   2  -5  -8 52028.0 2139.77   3
   2  -5  -8 55339.7 3050.14   4
  -3   5  -8 56114.8 2773.23   2
  -3   5  -8 51633.1 2395.33   3
  -3   5  -5 23323.8 1443.37   2
   2  -5  -5 22028.0 1554.19   2
  -2  -3  -5 23201.7 1517.21   4
  -2  -3  -5 21477.8 1463.34   2
  -3   5  -5 22975.2 1379.53   4
   5  -2  -5 26949.6 1776.32   2
   3   2  -5 22747.2 1524.29   2
   2  -5  -5 25370.4 1202.91   3
  -3   5  -5 22663.1 1265.61   3
  -2  -3  -5 24854.6 1236.07   1
  -5   3  -5 23892.0 1441.05   4
   2  -5  -5 25280.6 1640.28   4
   2  -5  -5 21887.0 1218.35   1
   5  -2  -5 21623.6 1371.35   1
   3   2  -5 21525.2 825.374   3
  -5   3  -5 23392.4 1393.13   3
   3   2  -5 22415.9 1473.65   4
  -5   3  -5 19904.8 1335.36   2
   5  -2  -5 22117.1 1518.79   4
  -2  -3  -5 24197.6 1326.12   3
  -2  -3  -2 107409. 2023.52   4
  -5   3  -2 109238. 1650.53   1
  -2  -3  -2 107145. 1976.39   2
   2  -5  -2 111369. 1702.51   1
  -3   5  -2 110064. 2030.28   1
  -2  -3  -2 109380. 2088.28   3
   5  -2  -2 111235. 2261.98   2
  -5   3  -2 108494. 1734.46   2
   2  -5  -2 108887. 2138.84   4
   3   2  -2 109542. 1917.91   4
  -3   5  -2 107587. 2114.55   3
  -2  -3  -2 112747. 1295.84   1
  -5   3  -2 108533. 2269.52   3
   5  -2  -2 103007. 2069.16   4
   2  -5  -2 107275. 2124.57   2
  -3   5  -2 105823. 1669.63   4
   3   2  -2 110855. 2084.05   2
  -3   5  -2 109759. 1708.74   2
   5  -2  -2 113512. 2149.88   1
  -3   5   1 68052.9 1259.38   4
   2  -5   1 67277.4 912.849   4
   3   2   1 68306.7 1269.61   4
   5  -2   1 65683.3 959.318   1
  -5   3   1 67601.1 1220.03   4
  -3   5   1 68687.0 1201.47   1
  -5   3   1 67642.3 1161.61   3
   3   2   1 67960.4 1291.81   2
   2  -5   1 68202.7 1403.30   1
  -5   3   1 67745.9 1398.67   1
  -5   3   1 64375.1 1257.41   2
   3   2   1 67155.1 1538.96   3
  -3   5   1 66767.5 1311.21   2
  -2  -3   1 70885.7 880.622   4
   5  -2   1 68671.9 1603.39   3
   5  -2   4 4634.08 698.295   4
  -3   5   4 5471.53 565.745   3
  -3   5   4 4458.86 677.063   4
  -5   3   4 4847.58 682.957   4
   3   2   4 5675.49 787.985   3
   3   2   4 5699.11 762.508   4
  -2  -3   4 4600.65 619.074   4
  -2  -3   4 5732.07 750.797   2
   2  -5   4 5674.57 634.115   3
   5  -2   4 5831.23 821.532   2
  -5   3   4 4798.25 376.257   3
   2  -5   4 6290.07 737.484   4
   5  -2   4 4313.47 679.859   3
  -3   5   4 5018.99 759.165   2
  -5   3   4 5035.63 754.894   2
   2  -5   4 4938.05 715.870   2
   3   2   4 5292.34 795.455   2
   3   2   7 57444.5 2398.68   3
   2  -5   7 59394.5 2154.87   3
  -3   5   7 54588.4 2006.94   3
   5  -2   7 60894.4 2508.65   3
  -2  -3   7 56836.4 1630.93   3
  -5   3   7 56981.6 1610.82   3
   5  -2  10 28415.8 2101.56   3
  -5   3  10 27860.5 1380.62   3
   3   2  10 32055.3 2220.85   3
   2  -5  10 28409.8 1828.10   3
  -2  -3  10 23526.6 1313.37   3
  -3   5  10 26677.3 1719.69   3
   5  -1 -12 15228.1 2115.54   4
   5  -1 -12 9167.78 1946.01   2
  -1  -4 -12 13846.9 2051.47   2
   4   1 -12 12740.2 2067.18   2
   4   1 -12 12266.2 1968.06   4
  -4   5 -12 17439.2 2074.78   4
  -5   4 -12 13451.3 1966.90   2
  -4   5 -12 9960.23 1716.95   1
  -4   5 -12 14895.3 2061.00   2
   1  -5 -12 13012.9 2023.39   4
   1  -5 -12 12511.1 1975.79   2
  -5   4 -12 13735.9 1827.63   1
  -1  -4 -12 12259.9 2020.09   4
  -5   4 -12 9792.38 1739.83   4
  -5   4  -9 83195.9 3573.66   4
   5  -1  -9 88459.6 4134.33   2
   4   1  -9 84859.0 3873.13   4
  -4   5  -9 83961.2 3608.72   4
   4   1  -9 87656.3 4084.32   2
  -1  -4  -9 83060.0 3794.77   4
  -1  -4  -9 81318.9 3710.68   2
   1  -5  -9 81764.5 3766.23   2
   1  -5  -9 86909.2 3981.60   4
   5  -1  -9 87751.3 3935.81   4
  -4   5  -9 89447.9 3674.40   2
  -5   4  -9 83097.4 3535.41   2
  -5   4  -6 36606.8 1897.74   4
  -5   4  -6 32893.3 1784.08   2
   4   1  -6 34450.9 2129.50   2
   5  -1  -6 34545.1 2141.82   2
   5  -1  -6 32260.1 1987.47   4
  -4   5  -6 36180.4 1914.79   2
  -1  -4  -6 35158.7 2032.53   4
  -1  -4  -6 33382.9 1994.19   2
  -1  -4  -6 37709.2 1757.92   3
  -4   5  -6 37963.8 1804.42   3
   1  -5  -6 35123.7 1703.35   1
   1  -5  -6 35574.8 1637.75   3
  -1  -4  -6 35598.3 1661.03   1
  -4   5  -6 35416.5 1864.51   4
   1  -5  -6 34840.7 2058.98   2
   1  -5  -6 28693.3 1882.85   4
   4   1  -6 35505.9 2070.23   4
   4   1  -6 31109.5 946.323   3
  -5   4  -6 37636.7 1864.17   3
   5  -1  -3 347815. 4466.39   4
   1  -5  -3 339446. 4411.81   2
  -4   5  -3 356264. 4158.24   1
  -4   5  -3 346157. 3845.95   2
   4   1  -3 337614. 4275.86   4
  -5   4  -3 354509. 3856.36   2
   5  -1  -3 340238. 4358.31   1
   1  -5  -3 351069. 3492.32   1
   1  -5  -3 354020. 4586.70   4
   1  -5  -3 356046. 3877.08   3
   5  -1  -3 349250. 4758.15   2
  -4   5  -3 341765. 3778.00   4
  -5   4  -3 351772. 3839.70   1
  -1  -4  -3 359712. 3280.37   1
  -5   4  -3 335093. 3878.44   4
  -1  -4  -3 344369. 4342.83   2
  -1  -4  -3 354036. 4096.05   3
  -5   4  -3 346945. 4424.22   3
  -1  -4  -3 355017. 4506.89   4
   4   1  -3 337738. 4560.98   2
  -4   5  -3 341091. 4245.26   3
  -4   5   0 124096. 1977.71   3
   4   1   0 124676. 1829.94   3
   5  -1   0 122616. 1829.49   3
   5  -1   0 127197. 1322.11   1
  -5   4   0 120518. 1914.73   3
   4   1   0 125562. 1298.59   1
  -5   4   0 127321. 1496.07   1
  -1  -4   0 128204. 1478.94   1
   1  -5   0 127731. 1543.04   1
   1  -5   3 113114. 2258.01   2
   1  -5   3 116783. 2121.69   3
   4   1   3 120775. 2660.13   2
   5  -1   3 120447. 2624.43   4
  -4   5   3 122632. 2664.33   4
  -1  -4   3 119775. 2304.97   4
   1  -5   3 120650. 2363.51   4
   5  -1   3 116028. 2548.72   2
  -5   4   3 122846. 2581.31   4
  -4   5   3 117889. 2533.30   1
   4   1   3 118922. 2658.06   4
   4   1   3 116236. 2604.94   3
  -5   4   3 116502. 1630.28   3
  -5   4   3 117675. 2706.06   2
  -1  -4   3 121577. 2372.67   2
  -4   5   3 122489. 1975.54   3
   5  -1   3 120255. 2642.98   3
  -4   5   3 120763. 2754.37   2
  -5   4   3 119360. 2645.40   1
   4   1   6 76991.6 2676.08   3
   1  -5   6 78501.9 2249.08   3
   5  -1   6 78248.0 2707.88   3
  -5   4   6 81839.5 1826.49   3
  -1  -4   6 79664.4 1913.71   3
  -4   5   6 77083.5 2078.51   3
  -5   4   9 53815.5 1923.01   3
   4   1   9 49989.6 2601.59   3
  -4   5   9 55469.2 2128.27   3
   5  -1   9 46257.3 2590.60   3
   1  -5   9 49774.9 2126.53   3
  -1  -4   9 46212.4 1825.95   3
   4   1  12 5994.79 1375.04   3
   5  -1  12 6171.07 1367.15   3
   0  -5 -10 48070.1 3073.17   2
   5   0 -10 47117.1 3169.25   4
  -5   5 -10 51576.5 3029.14   4
  -5   5 -10 46592.0 2885.17   2
   0  -5 -10 52159.7 3211.01   4
   5   0 -10 58994.9 3638.76   2
   0  -5  -7 796.386 622.624   2
  -5   5  -7 387.204 546.485   2
   5   0  -7 73.8913 196.776   3
   5   0  -7 964.004 807.659   2
  -5   5  -7-284.316 529.047   4
   0  -5  -7 682.953 550.752   3
   0  -5  -7 906.744 727.191   4
   5   0  -7 315.810 777.936   4
   0  -5  -4 62778.0 1696.35   1
   5   0  -4 61825.0 2301.49   2
  -5   5  -4 62981.0 1955.51   2
   0  -5  -4 66126.9 1967.01   3
   0  -5  -4 61830.4 2214.03   4
  -5   5  -4 63079.9 1958.91   4
   5   0  -4 63809.7 2211.97   4
   0  -5  -4 59424.2 2205.30   2
  -5   5  -4 63048.8 1955.34   1
  -5   5  -4 60913.9 2116.36   3
  -5   5  -1-78.4680 180.388   1
   5   0  -1 444.916 280.453   1
   5   0  -1 145.512 211.775   4
   0  -5  -1-385.757 233.287   2
   0  -5  -1-210.246 143.675   1
   5   0  -1 6.81239 241.482   2
   5   0  -1 339.236 229.061   3
   0  -5  -1 40.1920 231.329   4
  -5   5  -1 106.514 344.171   3
   5   0   2 182175. 2700.09   4
  -5   5   2 175975. 2758.31   2
  -5   5   2 181080. 2640.05   4
   5   0   2 176798. 2574.40   2
   5   0   2 175170. 2953.52   3
  -5   5   2 176383. 2696.59   1
   0  -5   2 187711. 2196.12   2
   0  -5   2 181798. 2165.91   4
   0  -5   5-216.628 334.321   3
   5   0   5-229.322 528.389   3
  -5   5   5-198.502 308.378   3
   0  -5   5 537.946 408.080   4
   0  -5   5 62.1796 484.497   2
   5   0   5 838.878 665.914   2
   5   0   8 8059.46 1217.10   3
  -5   5   8 8269.51 809.802   3
   0  -5   8 8369.42 902.230   3
   0  -5  11-301.966 601.129   3
   5   0  11 654.639 815.659   3
   6  -6 -12 18073.1 2460.83   2
   0   6 -12 27090.7 2577.37   4
   6  -6 -12 21268.3 2575.35   4
   0   6 -12 19402.6 2422.02   2
  -6   0 -12 24167.1 2364.97   2
  -6   0 -12 18499.8 2105.82   4
  -6   0  -9-341.120 657.725   2
   6  -6  -9 187.721 826.022   4
  -6   0  -9 203.615 725.541   4
   0   6  -9 233.558 683.176   3
   0   6  -9-67.0098 706.660   4
   0   6  -9 684.750 827.731   2
   6  -6  -9 195.251 932.242   2
   0   6  -6 128238. 3680.04   2
  -6   0  -6 138013. 3761.60   4
  -6   0  -6 132950. 3542.89   2
   0   6  -6 137217. 3623.99   4
   6  -6  -6 134946. 4161.87   2
   0   6  -6 133488. 2935.93   3
   6  -6  -3-89.9094 491.540   2
   6  -6  -3 236.833 315.551   1
  -6   0  -3 206.182 189.262   1
   0   6  -3 64.2986 373.583   2
   0   6  -3 211.094 316.357   4
   0   6  -3-235.714 290.116   3
  -6   0  -3 380.788 383.064   2
  -6   0  -3-300.853 435.538   3
  -6   0  -3-138.344 307.209   4
   6  -6  -3 124.515 420.506   4
   6  -6   0 205695. 2236.38   1
  -6   0   0 207819. 2716.64   3
   6  -6   0 208799. 2856.71   3
   6  -6   0 204517. 1742.11   2
  -6   0   0 205033. 2026.28   1
   0   6   3 546.130 458.728   2
   6  -6   3-280.031 485.781   3
   0   6   3-158.777 382.108   3
  -6   0   3-227.259 370.338   2
  -6   0   3 250.960 326.432   4
   0   6   3 347.455 321.209   1
   6  -6   3-239.738 414.436   2
   6  -6   3 105.156 322.634   4
   0   6   3 306.692 396.690   4
   6  -6   6 120579. 3401.31   3
   0   6   6 100550. 2970.39   3
   6  -6   9 313.738 776.058   3
   0   6   9-829.311 698.424   3
   6  -6  12 50165.3 2890.62   3
   0   6  12 59984.5 3128.71   3
  -1   6 -10 453.320 890.473   2
   1   5 -10 1600.54 985.299   4
   6  -5 -10 2989.27 1236.27   4
  -5  -1 -10 1308.35 843.874   4
  -1   6 -10 779.914 865.485   4
  -6   1 -10 2013.13 868.386   4
   1   5 -10 1001.31 1029.55   2
   6  -5 -10 3511.96 1272.79   2
   5  -6 -10 1332.41 1032.93   4
   5  -6 -10-845.532 1059.88   2
  -5  -1 -10 328.608 810.564   2
  -6   1 -10 2830.42 1119.43   2
   6  -5  -7 52481.0 2829.17   4
   1   5  -7 56759.4 2616.97   4
   5  -6  -7 52594.1 2788.19   4
   1   5  -7 50148.5 2631.31   2
   1   5  -7 59108.9 1987.62   3
  -1   6  -7 60312.9 2636.08   4
  -6   1  -7 56798.9 2616.06   4
  -1   6  -7 54672.5 2651.91   2
  -5  -1  -7 56029.2 2624.26   2
   6  -5  -7 54969.2 2889.03   2
   5  -6  -7 59245.2 2984.44   2
  -6   1  -7 56397.1 2571.90   2
  -5  -1  -7 52819.9 2554.41   4
  -1   6  -7 56422.0 2149.77   3
  -5  -1  -4 5701.02 773.854   3
  -5  -1  -4 4800.33 732.042   4
   6  -5  -4 4956.64 803.204   4
   5  -6  -4 6374.78 682.220   1
   6  -5  -4 5389.78 686.111   1
   5  -6  -4 4516.14 784.805   4
   1   5  -4 5078.04 532.051   3
   6  -5  -4 4307.92 799.422   2
  -6   1  -4 5162.93 694.362   4
   1   5  -4 6090.19 829.972   2
  -1   6  -4 4176.05 571.775   3
  -6   1  -4 5006.86 778.608   3
  -6   1  -4 4972.04 656.970   2
  -1   6  -4 5956.49 693.553   4
   1   5  -4 5453.76 680.384   4
   5  -6  -4 4704.64 792.120   2
  -1   6  -4 5281.89 685.826   2
  -5  -1  -4 6044.74 759.907   2
   1   5  -1 296388. 3117.17   1
   1   5  -1 296868. 2349.51   2
  -6   1  -1 295771. 3604.33   3
   5  -6  -1 299460. 2902.05   4
  -1   6  -1 287064. 3008.07   1
   5  -6  -1 305749. 2737.28   1
  -5  -1  -1 300081. 3497.93   3
   6  -5  -1 286251. 2999.94   2
   6  -5  -1 298796. 2835.17   1
   5  -6  -1 293971. 2918.05   2
  -1   6  -1 293734. 1957.99   2
   6  -5  -1 289616. 2908.45   4
  -6   1   2 8983.10 566.560   4
  -1   6   2 9793.49 549.884   1
  -1   6   2 10464.3 730.050   4
   1   5   2 9264.74 476.125   1
   5  -6   2 10200.4 798.836   3
  -6   1   2 7250.06 597.607   2
   1   5   2 8560.04 660.718   4
  -1   6   2 9652.58 722.780   3
   5  -6   2 9209.44 558.165   2
   6  -5   2 8236.83 572.962   2
  -5  -1   2 9538.84 569.068   4
   6  -5   2 8380.40 611.158   4
   5  -6   2 9402.70 598.562   4
  -1   6   2 8481.11 700.801   2
   1   5   2 9055.28 688.693   2
   5  -6   2 8806.90 657.225   1
   1   5   2 9840.17 753.971   3
  -5  -1   2 8993.94 607.672   2
   6  -5   2 10096.5 822.259   3
   6  -5   2 8610.47 597.552   1
  -1   6   5 41448.0 1744.87   3
   1   5   5 39047.4 1775.93   3
   5  -6   5 39174.4 1868.05   2
  -5  -1   5 38224.9 1745.37   4
  -6   1   5 35691.9 1748.18   4
   6  -5   5 40190.8 1902.83   3
   5  -6   5 36695.8 1837.38   4
  -5  -1   5 40208.3 1891.24   2
   5  -6   5 43244.4 1877.30   3
   6  -5   5 37171.0 1898.14   4
   6  -5   5 40116.6 1908.06   2
   5  -6   8 6396.06 983.853   3
   1   5   8 6390.95 1027.48   3
  -6   1   8 4068.01 342.994   3
  -1   6   8 7196.12 992.253   3
   6  -5   8 6228.78 1059.15   3
   5  -6  11 4646.12 1069.06   3
  -1   6  11 5511.52 1147.59   3
   6  -5  11 3863.86 1063.26   3
   1   5  11 6249.57 1208.61   3
   2   4 -11 5600.54 1335.28   4
  -6   2 -11 4205.20 1232.88   2
  -4  -2 -11 6850.22 1442.77   2
   4  -6 -11 5389.76 1377.04   4
  -6   2 -11 4405.20 1251.71   4
   4  -6 -11 8477.88 1675.91   2
   6  -4 -11 6325.54 1699.97   2
  -2   6 -11 6782.79 1494.88   2
   2   4 -11 8032.47 1710.32   2
  -2   6 -11 3631.79 1162.85   4
  -4  -2 -11 7932.81 1487.20   4
   6  -4 -11 5211.71 1499.22   4
  -2   6  -8-115.254 700.788   2
   4  -6  -8 1242.51 801.942   4
   2   4  -8 696.193 790.037   2
   4  -6  -8 1138.36 1056.26   2
  -4  -2  -8 344.944 757.821   2
  -2   6  -8 1172.30 696.347   4
   2   4  -8 336.296 701.742   4
   2   4  -8 742.153 532.898   3
  -2   6  -8 1444.72 727.925   3
  -4  -2  -8-91.5776 646.773   4
  -6   2  -8 165.619 615.189   4
   6  -4  -8 1035.82 871.927   2
  -6   2  -8 434.076 709.992   2
   6  -4  -8 618.005 765.858   4
   2   4  -5 44204.1 2061.21   2
  -4  -2  -5 49747.7 1679.52   1
  -4  -2  -5 45622.9 2069.23   4
   6  -4  -5 45351.4 1966.53   1
   4  -6  -5 51544.4 2346.76   4
   2   4  -5 48893.8 1461.39   3
   6  -4  -5 51166.3 2334.81   4
  -4  -2  -5 49668.5 2115.20   2
  -2   6  -5 50972.7 1856.70   3
   4  -6  -5 50421.8 1901.56   1
  -6   2  -5 50381.1 2020.68   2
   6  -4  -5 51914.1 2448.11   2
   2   4  -5 52033.0 2109.55   4
  -6   2  -5 49185.3 2063.75   3
  -6   2  -5 49189.1 2023.16   4
  -2   6  -5 42865.3 1924.45   2
  -4  -2  -5 53059.4 2076.02   3
   4  -6  -5 48747.8 2281.48   2
  -2   6  -5 47985.7 1968.88   4
  -4  -2  -2 126151. 1169.44   1
   2   4  -2 121306. 1898.68   4
   4  -6  -2 118056. 2313.73   2
  -2   6  -2 121363. 2297.88   1
  -2   6  -2 124704. 1713.13   4
  -4  -2  -2 124704. 2477.34   3
   6  -4  -2 120258. 2219.58   1
   2   4  -2 119189. 2114.02   2
  -6   2  -2 124585. 2548.27   3
   4  -6  -2 124739. 1974.53   1
  -4  -2  -2 113133. 2019.89   2
  -6   2  -2 119235. 1486.16   1
   6  -4  -2 125605. 2480.14   2
   4  -6  -2 117847. 2330.83   4
  -4  -2  -2 123204. 2127.90   4
  -2   6  -2 120660. 1817.37   2
  -2   6  -2 126865. 2258.42   3
  -6   2   1 20462.7 708.946   4
   2   4   1 19859.9 760.204   2
   2   4   1 18780.6 897.405   3
   4  -6   1 19235.1 788.283   1
  -6   2   1 19910.0 710.807   3
   6  -4   1 18414.4 665.702   1
   4  -6   1 20421.4 939.640   3
  -2   6   1 20163.3 648.520   1
  -4  -2   1 20247.8 707.162   3
   2   4   1 20184.8 739.191   4
  -6   2   1 18592.9 719.693   2
   2   4   1 20894.3 437.037   1
   6  -4   1 20255.9 989.746   3
  -6   2   1 19880.1 833.632   1
  -2   6   1 19625.0 730.789   4
  -2   6   1 20577.1 785.210   2
  -4  -2   4 32365.1 1455.67   4
   2   4   4 33698.5 1744.66   2
  -2   6   4 31505.1 1704.73   2
  -2   6   4 31465.6 1627.82   4
   2   4   4 35995.9 1614.63   3
  -2   6   4 34570.7 1504.51   1
   6  -4   4 35794.1 1630.26   2
  -6   2   4 34178.0 1550.64   4
   6  -4   4 33863.0 1658.50   3
   2   4   4 32843.1 1715.60   4
  -4  -2   4 30770.9 1478.14   2
   4  -6   4 32936.4 1515.92   4
  -6   2   4 32976.4 1632.35   2
   4  -6   4 31670.9 1449.39   2
   6  -4   4 31834.0 1570.58   4
   4  -6   4 32198.6 1463.10   3
  -2   6   4 32541.9 1386.17   3
   6  -4   7 79098.9 2898.06   3
  -6   2   7 71579.3 1347.36   3
   2   4   7 72692.2 2720.80   3
  -2   6   7 73653.3 2557.22   3
   4  -6   7 77768.3 2698.24   3
   4  -6  10 4253.19 1024.79   3
  -2   6  10 6174.42 1076.90   3
   6  -4  10 6282.55 1166.20   3
   2   4  10 6457.42 1179.58   3
  -3  -3 -12 38685.4 3068.28   2
   6  -3 -12 39818.7 3286.41   4
  -3   6 -12 36912.4 2980.34   2
  -6   3 -12 32062.4 2811.38   2
  -3   6 -12 44192.3 3135.39   4
  -3  -3 -12 32055.1 2838.91   4
  -3   6 -12 39639.4 3055.46   1
   6  -3 -12 39050.4 3397.70   2
   3  -6 -12 39708.9 3281.97   4
  -6   3 -12 42157.0 2853.79   1
  -6   3 -12 38028.7 2943.57   4
   3   3 -12 42179.8 3388.78   2
   3  -6 -12 43323.0 3404.45   2
   3   3 -12 36007.7 3038.32   4
  -3   6  -9 2417.12 1031.46   2
   6  -3  -9 3372.59 1180.06   4
   3   3  -9 3433.05 1155.67   2
   3  -6  -9 3508.29 1039.69   4
  -3   6  -9 3031.22 911.207   4
  -6   3  -9 3633.44 1009.07   2
   6  -3  -9 2981.21 1172.16   2
   3   3  -9 3552.23 1036.49   4
  -6   3  -9 2503.60 962.763   4
   3  -6  -9 3813.15 1151.38   2
  -3  -3  -9 3501.93 1024.88   2
  -3  -3  -9 2838.95 1015.14   4
   3   3  -9 2238.51 578.953   3
  -3  -3  -6 107510. 3419.40   4
   3  -6  -6 114549. 3724.71   2
  -3  -3  -6 122574. 3254.05   3
  -6   3  -6 104707. 3195.38   4
   6  -3  -6 116322. 3772.87   4
  -3   6  -6 113512. 2986.96   3
   3   3  -6 120410. 2159.00   3
   3  -6  -6 109712. 3627.21   4
  -6   3  -6 110800. 3284.78   2
   3   3  -6 114097. 3738.36   2
  -3   6  -6 111364. 3265.29   4
  -3  -3  -6 116567. 2869.46   1
  -6   3  -6 115123. 3310.99   3
  -3   6  -6 116501. 3355.08   2
   6  -3  -6 114175. 3855.16   2
   3   3  -6 112373. 3424.75   4
  -3  -3  -6 114655. 3463.81   2
   3   3  -3 22394.8 1092.30   4
   6  -3  -3 22336.1 1326.86   2
   6  -3  -3 23645.2 1283.83   4
  -3  -3  -3 23462.8 1186.09   3
   3  -6  -3 22436.3 1261.54   4
  -6   3  -3 21519.9 1060.48   4
  -6   3  -3 23487.3 942.757   1
  -3  -3  -3 23462.8 1165.16   2
  -3   6  -3 23269.6 1140.74   3
   3  -6  -3 22553.3 1234.27   2
  -6   3  -3 23585.7 1268.46   3
   3  -6  -3 23165.9 982.381   1
  -6   3  -3 22054.0 1045.28   2
   6  -3  -3 18098.9 1061.64   1
   3   3  -3 22525.0 1212.96   2
  -3   6  -3 26066.4 1240.78   1
  -3  -3  -3 25327.8 832.467   1
  -3   6  -3 22342.6 1017.58   2
   3   3  -3 23732.0 728.384   3
  -3   6  -3 20636.8 960.265   4
  -3  -3  -3 24829.8 1215.04   4
  -6   3   0 982201. 5768.64   3
   6  -3   0 999999. 5646.34   3
   6  -3   3 25631.1 1225.91   4
  -3   6   3 20940.3 1221.94   2
  -3   6   3 21839.6 1159.23   4
   3  -6   3 23332.6 1134.51   3
  -6   3   3 23552.2 1214.29   2
  -6   3   3 22820.6 1127.46   4
  -3   6   3 26578.9 1114.92   3
  -3  -3   3 22218.6 1008.99   4
   3   3   3 24008.6 1262.45   4
   3  -6   3 24136.6 1103.27   4
  -3   6   3 23589.3 1117.33   1
   6  -3   3 22926.2 1181.98   2
   3  -6   3 23051.3 1032.19   2
   6  -3   3 23549.8 1306.54   3
   3   3   3 22745.0 1211.37   3
  -6   3   3 20318.6 530.382   3
  -3  -3   3 23583.1 1085.29   2
   3   3   3 22935.9 1286.31   2
  -3   6   6 105366. 2718.22   3
   6  -3   6 110393. 3290.64   3
   3  -6   6 114427. 2928.94   3
   3   3   6 113195. 3224.65   3
  -6   3   6 105698. 1735.95   3
  -3   6   9 3920.60 797.439   3
   3  -6   9 1817.31 756.754   3
   6  -3   9 2403.96 884.868   3
  -6   3   9 3099.28 473.884   3
   3   3   9 3864.44 997.137   3
   3   3  12 34540.3 2526.17   3
   6  -3  12 28687.1 2345.26   3
   6  -2 -10 5134.42 1402.83   2
  -4   6 -10 4933.92 1188.19   2
   2  -6 -10 4470.27 1239.61   4
  -2  -4 -10 4322.59 1172.43   4
  -6   4 -10 3791.00 1112.41   2
  -6   4 -10 3820.11 1052.30   4
  -2  -4 -10 4381.01 1306.85   2
   2  -6 -10 3091.10 1303.29   2
   4   2 -10 6715.13 1486.45   2
   4   2 -10 5130.96 1247.02   4
  -4   6 -10 6629.44 1259.40   4
   6  -2 -10 3677.04 1243.70   4
   4   2  -7 57409.9 1439.20   3
   6  -2  -7 69072.5 3136.88   4
  -6   4  -7 70276.8 2869.80   4
  -2  -4  -7 68545.4 3021.86   4
   2  -6  -7 72288.7 3190.26   4
  -2  -4  -7 68873.2 2943.15   2
   2  -6  -7 79789.6 2520.78   3
   4   2  -7 68299.7 3178.37   2
  -4   6  -7 78522.5 2991.70   2
  -6   4  -7 74760.4 2883.43   2
  -4   6  -7 74710.6 2718.74   3
   2  -6  -7 70221.0 3112.76   2
   6  -2  -7 72683.0 3343.11   2
   4   2  -7 71854.3 3082.44   4
  -4   6  -7 70611.5 2835.04   4
   4   2  -4 27010.6 728.934   3
   6  -2  -4 29858.4 1507.65   1
  -4   6  -4 31450.7 1415.58   2
  -4   6  -4 28769.0 1457.58   3
  -6   4  -4 30078.3 1301.03   1
  -6   4  -4 30456.1 1549.36   3
  -2  -4  -4 30149.8 1437.07   3
  -4   6  -4 30857.8 1361.87   4
  -2  -4  -4 30595.0 1578.67   4
   2  -6  -4 29860.6 1229.14   1
   6  -2  -4 31239.4 1647.34   4
  -6   4  -4 29482.0 1381.57   2
  -2  -4  -4 33954.1 1617.84   2
   2  -6  -4 31700.8 1628.91   2
   4   2  -4 31534.4 1525.88   4
   6  -2  -4 34017.1 1795.08   2
   4   2  -4 31125.8 1647.57   2
  -2  -4  -4 31599.8 1156.63   1
   2  -6  -4 31235.3 1661.93   4
  -6   4  -4 32394.0 1420.87   4
  -4   6  -4 30953.9 1498.04   1
  -4   6  -1 16198.6 862.266   3
   4   2  -1 15318.2 624.255   3
  -6   4  -1 14275.5 538.771   1
   4   2  -1 15184.5 694.419   2
  -6   4  -1 15415.4 894.070   3
  -4   6  -1 16513.7 704.508   1
  -2  -4  -1 17053.2 404.805   1
   6  -2  -1 15861.5 631.684   3
   2  -6  -1 16770.3 682.043   4
   4   2  -1 15422.6 563.303   4
   6  -2  -1 15554.8 694.545   1
   6  -2  -1 15008.7 665.036   4
   6  -2  -1 15620.1 711.539   2
  -2  -4  -1 15946.1 624.369   4
   2  -6  -1 16883.1 671.404   2
   2  -6  -1 15968.4 565.937   1
  -4   6   2 121621. 2136.31   1
   6  -2   2 119629. 1698.52   1
  -6   4   2 116974. 1575.94   3
  -2  -4   2 120220. 1877.09   2
  -6   4   2 124535. 2142.64   4
   6  -2   2 118437. 2168.26   4
  -6   4   2 120633. 2292.86   2
   4   2   2 124544. 2246.60   2
   4   2   2 121829. 2487.68   3
   2  -6   2 128362. 1781.92   2
   2  -6   2 119332. 1826.62   4
  -2  -4   2 124802. 1777.93   4
  -4   6   2 118474. 2323.71   2
  -6   4   2 116237. 2339.94   1
  -4   6   2 125930. 2252.98   4
   6  -2   2 126081. 2107.73   2
   4   2   2 117983. 2242.65   4
   6  -2   2 119051. 2517.63   3
   4   2   5 51481.7 2108.23   3
   6  -2   5 54207.7 2159.34   3
  -4   6   5 55819.5 1761.53   3
   2  -6   5 52979.9 2058.70   2
   2  -6   5 54751.9 2144.96   4
  -6   4   5 50492.4 1207.82   3
  -2  -4   5 50377.6 2025.58   4
   2  -6   5 54094.4 1798.85   3
   6  -2   5 49109.5 2258.84   2
  -2  -4   5 49292.8 2021.97   2
   4   2   8 1271.23 738.141   3
   2  -6   8 496.609 581.140   3
  -6   4   8 563.483 362.000   3
   6  -2   8 1161.09 689.804   3
  -4   6   8 1000.93 520.491   3
  -2  -4   8 872.344 448.274   3
   2  -6  11 4433.03 975.766   3
   6  -2  11 5772.89 1243.27   3
  -4   6  11 5479.89 997.252   3
   4   2  11 3818.40 1105.62   3
   6  -1 -11 3759.25 1324.44   2
  -1  -5 -11 7835.70 1606.86   2
   1  -6 -11 7475.43 1589.31   4
  -5   6 -11 7387.66 1345.68   4
  -1  -5 -11 4775.21 1266.84   4
  -6   5 -11 6599.20 1289.97   1
  -5   6 -11 7699.85 1411.89   1
   6  -1 -11 6701.59 1553.48   4
  -5   6 -11 5285.50 1353.39   2
   1  -6 -11 6907.30 1551.63   2
  -6   5 -11 6680.62 1333.36   4
   5   1 -11 7432.29 1731.62   2
   5   1 -11 7222.07 1572.81   4
  -6   5 -11 7005.14 1516.42   2
   6  -1  -8 5712.93 1286.97   2
  -1  -5  -8 6327.71 1291.48   4
   5   1  -8 3804.10 1244.63   2
   5   1  -8 3059.24 345.283   3
  -1  -5  -8 3290.23 1008.13   2
  -6   5  -8 4274.64 1010.42   4
  -6   5  -8 4883.52 974.533   2
  -5   6  -8 5499.91 1070.01   2
   5   1  -8 5387.40 1221.07   4
  -5   6  -8 4045.34 1012.20   4
   6  -1  -8 3663.77 972.455   4
   1  -6  -8 5415.94 1209.37   2
   1  -6  -8 6953.99 1251.24   4
  -6   5  -5 35232.5 1656.95   2
   1  -6  -5 33960.9 1442.75   1
  -6   5  -5 32434.6 1554.14   1
   6  -1  -5 34100.4 1960.12   2
  -1  -5  -5 35659.4 1641.72   3
   1  -6  -5 34111.0 1846.42   2
  -5   6  -5 32918.7 1609.54   2
   1  -6  -5 33030.5 1846.69   4
  -5   6  -5 29152.2 1521.51   4
   6  -1  -5 35106.8 1876.57   4
   1  -6  -5 35196.0 1535.49   3
  -6   5  -5 34490.9 1740.75   3
   5   1  -5 33482.9 1930.38   2
  -1  -5  -5 35112.3 1873.14   4
  -5   6  -5 32441.2 1696.68   1
  -5   6  -5 34827.3 1713.85   3
  -1  -5  -5 36245.1 1453.48   1
  -6   5  -5 36049.9 1704.09   4
   5   1  -5 34157.8 1847.06   4
  -1  -5  -5 35311.6 1839.84   2
  -5   6  -2 9428.46 494.388   2
  -6   5  -2 9765.02 573.778   1
   6  -1  -2 9977.43 767.939   2
  -5   6  -2 9611.11 773.196   3
   1  -6  -2 10004.0 691.934   2
  -5   6  -2 8805.91 614.994   1
   5   1  -2 9662.41 644.257   4
   6  -1  -2 9730.44 702.293   1
   1  -6  -2 10846.0 491.100   1
  -6   5  -2 8657.06 504.073   2
   5   1  -2 9377.41 409.937   3
  -1  -5  -2 10029.2 666.641   2
  -1  -5  -2 9967.19 743.380   3
   5   1  -2 8525.17 674.061   2
  -1  -5  -2 10596.8 421.233   1
   1  -6  -2 9663.41 719.689   4
  -1  -5  -2 10437.5 700.353   4
  -6   5  -2 9615.40 793.597   3
   6  -1  -2 8764.96 671.929   4
  -6   5   1 285117. 2951.20   1
   6  -1   1 289006. 3557.45   3
   1  -6   1 295140. 3200.75   1
  -5   6   1 295462. 2822.81   2
  -6   5   1 292958. 2747.18   2
   5   1   1 285990. 3507.75   3
  -5   6   1 294051. 2856.46   1
  -6   5   1 300653. 2702.23   4
  -6   5   1 296365. 2975.21   3
  -5   6   1 309826. 2740.27   4
   1  -6   4 7220.68 663.975   3
   5   1   4 7977.24 852.424   3
  -6   5   4 5980.06 750.766   4
   5   1   4 6582.98 891.611   2
   6  -1   4 4854.95 752.674   3
   1  -6   4 6329.77 706.692   4
  -6   5   4 6149.89 824.625   2
  -1  -5   4 7138.18 740.353   2
  -5   6   4 6024.76 805.427   4
  -5   6   4 6802.32 929.447   2
  -1  -5   4 5687.76 672.116   4
   5   1   4 6933.71 832.388   4
   6  -1   4 6189.40 793.048   4
  -6   5   4 7061.47 825.269   1
  -5   6   4 7466.69 608.601   3
  -6   5   4 6027.77 465.289   3
   1  -6   4 6413.02 705.772   2
  -5   6   4 5573.56 708.368   1
   6  -1   4 7016.56 896.671   2
  -6   5   7 59259.2 1686.88   3
   5   1   7 63193.8 2631.18   3
  -5   6   7 61781.1 2003.41   3
   6  -1   7 62767.0 2663.41   3
   1  -6   7 59795.0 2088.47   3
  -1  -5   7 57417.1 1767.23   3
   5   1  10 411.251 756.826   3
   1  -6  10 1508.90 673.511   3
  -6   5  10 937.208 472.808   3
   6  -1  10 1008.59 869.440   3
  -5   6  10 1916.18 746.790   3
   6   0 -12 57107.7 4141.75   2
  -6   6 -12 62266.5 3623.64   4
   0  -6 -12 61405.8 3936.11   4
  -6   6 -12 55207.3 3445.98   2
   6   0 -12 58356.7 3940.52   4
  -6   6 -12 63614.8 3586.61   1
   0  -6 -12 58511.8 3744.17   2
  -6   6  -9-620.039 687.314   2
   6   0  -9 109.416 919.428   2
   6   0  -9-415.864 869.352   4
   0  -6  -9 388.368 806.819   2
   0  -6  -9 952.510 950.509   4
  -6   6  -9-380.110 839.673   4
  -6   6  -9 797.503 720.892   1
   6   0  -6 121779. 3744.99   4
  -6   6  -6 117812. 3367.15   3
  -6   6  -6 110069. 3183.25   1
  -6   6  -6 119464. 3281.95   4
   0  -6  -6 117774. 3675.71   4
  -6   6  -6 118278. 3279.79   2
   0  -6  -6 120470. 2928.12   1
   0  -6  -6 132462. 3269.72   3
   6   0  -6 124614. 3983.21   2
   0  -6  -6 127114. 3758.31   2
   6   0  -3 29.0738 328.213   1
  -6   6  -3 142.347 280.100   4
   6   0  -3 194.351 351.719   4
   0  -6  -3-101.148 320.674   3
   0  -6  -3 132.750 381.247   4
  -6   6  -3 154.799 325.451   1
   0  -6  -3-182.545 206.593   1
   0  -6  -3 198.568 440.428   2
  -6   6  -3-109.166 391.827   3
   6   0  -3 25.0210 412.833   2
  -6   6  -3-92.9064 292.777   2
  -6   6   0 252793. 2496.87   1
  -6   6   0 257384. 3219.01   3
   0  -6   0 259234. 2468.60   1
   6   0   0 251532. 2971.82   3
  -6   6   3-234.918 396.214   2
   0  -6   3-36.2463 274.833   4
  -6   6   3 168.895 311.038   4
   6   0   3-170.287 470.274   3
  -6   6   3-234.079 343.330   1
   0  -6   3-140.382 302.777   2
   6   0   3-94.6898 361.898   4
   6   0   3-258.021 419.205   2
   0  -6   6 144203. 2789.92   3
   6   0   6 138262. 3747.98   3
   0  -6   9-549.771 552.981   3
  -6   6   9 156.431 486.838   3
   6   0   9 154.368 797.687   3
   6   0  12 20063.5 2128.31   3
   0   7 -10 60423.6 3409.62   2
  -7   0 -10 58565.8 3250.84   4
   7  -7 -10 52003.7 3467.09   2
   0   7 -10 58439.9 3211.00   4
  -7   0 -10 54834.5 3088.71   2
   7  -7 -10 56585.5 3567.85   4
   0   7  -7 30.6761 543.595   4
   0   7  -7-176.073 724.676   2
   0   7  -7 106.580 523.318   3
  -7   0  -7-82.3840 612.621   2
  -7   0  -7-157.989 574.521   4
   7  -7  -7-223.602 682.816   4
   7  -7  -7 647.078 699.237   2
   7  -7  -4 18797.8 1403.96   4
  -7   0  -4 23937.2 1480.75   3
   0   7  -4 23679.1 1220.61   4
   0   7  -4 24035.5 1354.58   2
   7  -7  -4 22881.9 1257.45   1
   0   7  -4 21075.4 1097.40   3
  -7   0  -4 22394.8 927.920   1
   7  -7  -4 24095.3 1570.50   2
  -7   0  -4 23210.9 1286.18   4
  -7   0  -4 23065.4 1258.00   2
   7  -7  -1-30.2091 202.033   1
  -7   0  -1 196.163 396.363   3
   0   7  -1-134.916 293.547   1
   0   7  -1 179.023 182.448   2
   7  -7  -1 105.383 240.587   4
  -7   0  -1-134.302 120.516   1
   7  -7  -1 134.278 315.275   2
  -7   0   2 132057. 2294.50   2
   0   7   2 130382. 2588.57   2
   7  -7   2 138224. 2019.27   2
   0   7   2 135070. 1863.19   1
   7  -7   2 129481. 2844.14   3
   7  -7   2 137631. 2186.87   4
   0   7   2 140323. 2530.48   4
   0   7   2 139696. 2781.82   3
   7  -7   2 134840. 2370.83   1
  -7   0   2 133335. 1619.68   3
  -7   0   2 140335. 2106.10   4
   0   7   5-293.044 474.983   3
   7  -7   5-83.3894 464.198   4
   7  -7   5-309.538 514.955   3
  -7   0   5-188.311 415.059   4
   7  -7   5 107.569 501.490   2
   0   7   8 88370.4 3222.56   3
   7  -7   8 82628.5 3267.18   3
   0   7  11-483.131 979.823   3
   7  -7  11-279.491 891.166   3
   7  -6 -11 13138.5 2017.30   2
  -7   1 -11 11923.7 1535.28   1
  -1   7 -11 15289.4 1883.30   4
   6  -7 -11 16582.7 2218.10   2
  -1   7 -11 12245.2 1828.45   2
   1   6 -11 14291.0 2010.28   2
  -7   1 -11 15498.8 1824.89   2
   7  -6 -11 13094.1 2010.76   4
  -6  -1 -11 15688.5 1919.09   2
   1   6 -11 14101.6 1830.18   4
  -7   1 -11 14775.9 1835.53   4
  -6  -1 -11 12681.2 1778.46   4
   6  -7 -11 13581.2 2024.64   4
  -1   7  -8 7208.89 976.285   3
   7  -6  -8 10278.5 1535.61   4
  -6  -1  -8 8374.34 1205.28   4
   1   6  -8 6535.66 1238.41   2
  -1   7  -8 7476.04 1280.56   2
   6  -7  -8 9940.01 1661.68   2
  -7   1  -8 9567.46 1246.44   2
   1   6  -8 7926.00 1255.44   4
  -1   7  -8 7904.06 1125.50   4
   6  -7  -8 7299.12 1294.22   4
  -6  -1  -8 8043.13 1200.21   2
   7  -6  -8 7653.90 1379.72   2
   1   6  -8 6851.63 923.312   3
  -7   1  -8 8365.23 1237.34   4
   1   6  -5 8034.58 979.167   2
   1   6  -5 7471.13 740.761   3
   6  -7  -5 7299.69 813.491   1
   7  -6  -5 8671.66 1142.89   2
  -7   1  -5 6883.21 822.333   2
  -7   1  -5 7551.78 885.166   4
   1   6  -5 8248.49 890.434   4
  -6  -1  -5 7562.76 881.057   2
   6  -7  -5 9103.27 1106.58   4
   6  -7  -5 10203.9 1163.85   2
   7  -6  -5 6090.32 975.718   4
  -1   7  -5 8203.55 943.812   2
  -1   7  -5 7474.32 814.749   4
  -6  -1  -5 8763.12 964.577   4
  -7   1  -5 9638.77 1051.57   3
  -6  -1  -5 7709.19 955.873   3
  -1   7  -5 8484.13 829.590   3
  -7   1  -2 20200.3 1162.35   3
   6  -7  -2 21549.2 923.087   1
   1   6  -2 20340.4 870.693   2
   7  -6  -2 20418.1 1082.25   2
   6  -7  -2 20044.1 1033.99   4
  -1   7  -2 19333.3 1014.11   1
  -1   7  -2 20749.6 688.127   4
   6  -7  -2 19836.9 1057.78   2
  -1   7  -2 20963.5 831.280   2
   7  -6  -2 20373.3 1052.77   4
  -6  -1  -2 19109.2 1124.27   3
  -7   1  -2 19087.6 502.491   1
   1   6  -2 20766.8 756.086   4
  -1   7   1 3072.98 291.535   1
  -1   7   1 2654.55 358.780   2
  -7   1   1 2650.44 402.408   1
   7  -6   1 2052.82 501.428   3
   6  -7   1 2231.34 364.706   1
   7  -6   1 3114.24 350.466   1
  -6  -1   1 2500.85 339.208   3
  -1   7   1 2357.08 342.612   4
   6  -7   1 2466.24 564.115   3
   1   6   1 2489.49 240.247   1
   1   6   1 2846.63 372.095   2
   1   6   1 2426.39 321.627   4
   1   6   1 2813.51 497.334   3
   6  -7   1 2483.45 208.944   2
  -7   1   1 2308.55 349.779   3
   1   6   4 34694.0 1648.68   3
   1   6   4 31615.1 1751.83   2
  -1   7   4 31815.8 1751.81   2
  -6  -1   4 32118.2 1516.78   2
  -7   1   4 34859.6 1617.11   2
  -1   7   4 33142.9 1419.08   1
   6  -7   4 33518.1 1643.31   3
   1   6   4 34646.6 1741.27   4
  -1   7   4 33408.7 1544.81   3
  -6  -1   4 30943.6 1418.74   4
  -1   7   4 32059.3 1657.05   4
   7  -6   4 33666.8 1696.13   3
   7  -6   4 30636.1 1521.49   2
   6  -7   4 34635.6 1537.34   2
   7  -6   4 31852.3 1609.65   4
  -7   1   4 31387.5 1453.87   4
   6  -7   4 32463.2 1534.73   4
   7  -6   7 27442.8 1806.95   3
   6  -7   7 21902.7 1623.20   3
  -1   7   7 24601.0 1637.37   3
   1   6   7 25922.6 1759.05   3
   1   6  10 4948.26 1146.29   3
  -1   7  10 3022.98 860.779   3
   7  -6  10 4635.88 1026.21   3
   6  -7  10 5050.89 1160.89   3
   2   5 -12 6098.01 1684.62   2
  -7   2 -12 5512.39 1247.13   1
  -2   7 -12 3577.85 1227.38   4
  -5  -2 -12 6036.34 1515.40   4
   5  -7 -12 6706.01 1697.58   4
  -7   2 -12 5337.72 1399.95   4
  -7   2 -12 5070.08 1345.85   2
  -5  -2 -12 6055.02 1487.61   2
   5  -7 -12 6398.98 1855.19   2
   7  -5 -12 9173.46 1964.62   4
   7  -5 -12 5464.24 1754.59   2
   2   5 -12 6236.07 1453.50   4
  -2   7 -12 3293.35 1283.72   1
  -2   7 -12 5514.73 1432.40   2
   7  -5  -9 11785.5 1692.89   4
  -5  -2  -9 13593.6 1610.16   4
  -2   7  -9 14208.3 1645.96   2
   5  -7  -9 12064.5 1679.04   2
   7  -5  -9 16685.6 2014.26   2
  -5  -2  -9 15100.0 1669.20   2
   5  -7  -9 13332.7 1765.72   4
  -2   7  -9 15698.4 1668.99   4
  -7   2  -9 12032.0 1485.07   4
   2   5  -9 16712.1 1795.49   4
  -7   2  -9 16285.4 1697.83   2
   2   5  -9 14164.0 1807.59   2
   2   5  -6 22730.2 1613.45   4
  -2   7  -6 26455.6 1503.12   3
  -5  -2  -6 23439.9 1282.99   1
  -5  -2  -6 25618.5 1667.05   2
  -2   7  -6 23741.8 1530.00   4
  -5  -2  -6 21772.3 1644.77   4
  -7   2  -6 26855.5 1674.45   4
   7  -5  -6 25215.1 1900.76   4
  -7   2  -6 22665.0 1501.42   2
  -2   7  -6 24697.0 1604.32   2
   5  -7  -6 22888.2 1797.19   2
   2   5  -6 26060.3 1179.88   3
   5  -7  -6 24324.4 1861.91   4
   2   5  -6 22985.0 1706.62   2
   7  -5  -6 23105.0 1882.24   2
   2   5  -3 256387. 2906.43   3
   7  -5  -3 235243. 3570.50   1
  -5  -2  -3 237069. 3994.55   3
  -7   2  -3 248958. 3462.85   4
  -2   7  -3 239504. 3859.11   1
  -7   2  -3 241698. 2584.94   1
   7  -5  -3 242264. 4157.10   2
  -2   7  -3 238632. 3515.61   3
   5  -7  -3 245808. 4032.36   4
  -5  -2  -3 252453. 3575.10   2
  -2   7  -3 240616. 3273.27   2
  -2   7  -3 243129. 3043.91   4
  -7   2  -3 250503. 4142.88   3
   5  -7  -3 246173. 3324.49   1
  -5  -2  -3 244118. 3599.34   4
   2   5  -3 248221. 3371.25   4
   2   5  -3 249503. 3737.96   2
  -7   2  -3 243999. 3337.21   2
  -5  -2  -3 253672. 2359.42   1
   5  -7  -3 242243. 3999.62   2
   7  -5   0 421508. 3088.50   1
   5  -7   0 429583. 2757.40   4
   2   5   0 421847. 3963.32   3
   5  -7   0 426677. 2328.66   2
   2   5   0 422713. 2898.67   1
  -5  -2   0 412582. 3840.88   3
  -7   2   0 413613. 3048.17   1
  -7   2   0 420124. 4007.40   3
   7  -5   0 421356. 4091.60   3
   5  -7   0 426256. 3303.17   1
  -2   7   0 433089. 2310.61   2
  -2   7   0 415064. 3157.15   1
   2   5   3 257306. 4019.69   4
   2   5   3 252367. 2835.53   1
  -5  -2   3 259995. 3319.23   4
   7  -5   3 259762. 3608.78   2
   5  -7   3 258628. 3332.90   2
   7  -5   3 251179. 3705.90   4
  -2   7   3 260486. 3428.37   1
   5  -7   3 262766. 3599.60   4
   5  -7   3 262136. 4009.11   3
  -5  -2   3 268916. 3642.11   2
  -7   2   3 266340. 3866.86   2
  -2   7   3 259574. 4161.82   2
  -7   2   3 265069. 3564.78   4
   7  -5   3 256022. 4234.72   3
   2   5   3 253383. 4115.19   2
  -2   7   3 261210. 3970.60   4
  -2   7   3 264763. 3759.41   3
   2   5   3 267034. 4110.42   3
   5  -7   6 20753.5 1550.65   2
   2   5   6 23853.2 1600.04   3
  -2   7   6 26331.9 1524.59   3
   5  -7   6 25101.5 1554.25   3
   7  -5   6 25605.4 1719.85   3
  -2   7   9 65547.7 2730.41   3
   7  -5   9 61315.8 2906.49   3
   5  -7   9 61936.5 2754.66   3
   2   5   9 66111.5 2978.37   3
   5  -7  12 6495.32 1289.99   3
   2   5  12 10445.9 1649.85   3
   7  -5  12 9650.68 1595.50   3
  -4  -3 -10 9641.86 1527.52   2
   4  -7 -10 7865.82 1570.53   2
  -3   7 -10 7055.49 1299.08   4
  -3   7 -10 7167.02 1312.75   2
   3   4 -10 9983.54 1718.83   2
   7  -4 -10 5602.55 1554.66   2
  -7   3 -10 7954.51 1245.32   1
  -4  -3 -10 9301.80 1548.00   4
  -7   3 -10 6997.38 1250.48   2
   3   4 -10 5604.52 1287.16   4
   4  -7 -10 4954.53 1345.45   4
   7  -4 -10 6245.55 1395.09   4
  -7   3 -10 5927.49 1295.81   4
   3   4  -7 1096.03 674.645   4
  -3   7  -7 1189.10 614.432   3
   4  -7  -7 1064.00 747.185   2
  -4  -3  -7 1417.79 697.231   4
   4  -7  -7 965.843 743.188   4
  -4  -3  -7 1156.37 692.407   2
   7  -4  -7 1367.15 698.802   4
  -4  -3  -7 990.200 517.587   1
  -3   7  -7 1425.64 681.166   4
  -7   3  -7 1171.81 743.898   2
   3   4  -7 945.503 400.478   3
   3   4  -7 1402.22 819.565   2
  -7   3  -7 1024.67 663.764   4
  -3   7  -7 387.523 601.836   2
   7  -4  -7 2849.80 976.554   2
  -3   7  -4 38943.9 1592.03   3
   7  -4  -4 42118.4 1999.45   2
   7  -4  -4 39486.4 1690.99   1
   3   4  -4 39897.9 1808.47   2
  -7   3  -4 39560.1 1377.01   1
   4  -7  -4 42743.6 1562.47   1
   3   4  -4 37400.0 1618.32   4
   3   4  -4 42470.9 1135.59   3
  -7   3  -4 40873.6 1848.39   3
  -4  -3  -4 41676.0 1265.71   1
   7  -4  -4 41097.5 1926.39   4
  -3   7  -4 38951.1 1730.01   1
  -4  -3  -4 41206.1 1766.92   3
  -4  -3  -4 41849.3 1794.23   4
   4  -7  -4 42628.7 1936.62   4
  -3   7  -4 37880.7 1557.10   2
  -4  -3  -4 40739.3 1718.51   2
   4  -7  -4 40872.5 1907.70   2
  -3   7  -4 39662.0 1512.65   4
  -7   3  -4 42360.0 1663.20   4
  -7   3  -4 41670.0 1590.24   2
   4  -7  -1 170144. 2250.39   4
  -3   7  -1 165547. 2290.86   1
   7  -4  -1 172047. 2242.49   3
   7  -4  -1 166616. 2302.65   2
   7  -4  -1 163252. 2249.86   1
  -7   3  -1 170035. 2852.77   3
   4  -7  -1 171983. 2163.30   2
  -4  -3  -1 169377. 2697.20   3
   3   4  -1 170913. 2151.54   2
   3   4  -1 170266. 1607.42   4
  -7   3  -1 163999. 1616.22   1
   3   4  -1 164469. 2187.79   3
   4  -7  -1 169366. 2054.04   1
  -7   3   2 22222.7 980.973   2
   4  -7   2 22996.4 844.109   4
  -3   7   2 25111.6 1105.04   2
   3   4   2 23111.8 1065.12   2
  -3   7   2 24091.5 1055.77   4
   4  -7   2 21117.7 1045.33   1
  -7   3   2 23166.5 1116.89   1
  -4  -3   2 24300.4 897.459   2
   7  -4   2 22403.2 970.589   4
  -3   7   2 21878.2 877.596   1
   4  -7   2 21558.6 1075.25   3
   3   4   2 23045.2 1155.77   3
   7  -4   2 24208.9 1247.97   3
  -7   3   2 24280.6 709.415   3
   7  -4   2 23811.8 909.295   2
   7  -4   2 22565.0 851.721   1
   3   4   2 24288.4 623.362   1
  -4  -3   2 24554.0 801.088   4
   4  -7   2 23925.6 767.779   2
   3   4   2 23143.4 1061.66   4
  -7   3   2 22365.8 918.717   4
   4  -7   5 16555.8 1191.25   3
   3   4   5 15759.5 1251.59   3
   4  -7   5 13812.5 1143.33   4
   7  -4   5 14764.5 1282.37   2
  -3   7   5 18580.3 1167.69   3
  -4  -3   5 15759.5 1224.64   2
   7  -4   5 13949.1 1305.48   3
   4  -7   5 14741.9 1151.26   2
  -4  -3   5 17886.7 1220.79   4
  -3   7   8 28096.7 1710.19   3
   4  -7   8 24091.6 1681.25   3
  -7   3   8 23152.3 754.968   3
   3   4   8 29346.1 1927.49   3
   7  -4   8 29017.8 1955.75   3
   3   4  11 5995.79 1206.85   3
   4  -7  11 4550.05 1030.61   3
   7  -4  11 3520.49 1110.18   3
  -3   7  11 3178.62 931.675   3
   4   3 -11 4471.75 1313.73   4
   4   3 -11 2804.00 1388.29   2
   3  -7 -11 3305.97 1405.13   2
  -7   4 -11 5375.05 1282.75   4
  -4   7 -11 3898.70 1065.20   4
  -3  -4 -11 4368.40 1302.05   4
  -3  -4 -11 7440.14 1507.69   2
   3  -7 -11 4114.48 1474.83   4
   7  -3 -11 5147.12 1414.85   4
   7  -3 -11 5651.01 1678.04   2
  -4   7 -11 4019.58 1135.71   1
  -7   4 -11 5285.73 1107.88   1
  -4   7 -11 3758.23 1215.51   2
  -7   4 -11 3737.72 1180.44   2
   4   3  -8 21561.7 1867.66   4
  -4   7  -8 22989.2 1774.18   4
   7  -3  -8 23303.6 2167.93   2
  -3  -4  -8 24396.1 1998.81   2
  -7   4  -8 24855.7 1900.17   4
   3  -7  -8 27643.7 2194.47   2
   7  -3  -8 25129.6 2121.94   4
   4   3  -8 18044.9 899.201   3
  -7   4  -8 24873.4 1841.32   2
   3  -7  -8 25098.2 2119.06   4
   4   3  -8 27733.6 2239.59   2
  -4   7  -8 25910.5 1942.99   2
  -3  -4  -8 25017.2 2032.05   4
  -7   4  -8 21663.0 1630.37   1
  -7   4  -5 17647.0 1115.52   1
   3  -7  -5 17980.8 1419.39   2
   7  -3  -5 16554.3 1500.81   2
  -3  -4  -5 15282.6 1252.08   4
  -4   7  -5 16222.6 1182.03   2
  -3  -4  -5 16425.7 1183.78   3
   7  -3  -5 15782.0 1379.35   4
  -4   7  -5 16070.8 1209.20   3
  -4   7  -5 13851.8 1152.88   1
  -7   4  -5 17618.4 1332.72   3
  -3  -4  -5 12236.0 1152.84   2
   3  -7  -5 15093.1 1029.55   1
   3  -7  -5 16567.9 1394.13   4
  -7   4  -5 14509.9 1168.61   4
   4   3  -5 14290.2 627.648   3
   4   3  -5 16807.9 1405.73   2
   4   3  -5 15357.4 1248.50   4
  -4   7  -5 14513.0 1078.52   4
  -3  -4  -5 17383.0 963.820   1
  -7   4  -5 13735.2 1161.06   2
   4   3  -2 32991.5 1060.42   4
  -3  -4  -2 32725.0 1140.74   4
   7  -3  -2 31506.0 1235.17   4
  -4   7  -2 33265.8 871.815   2
  -3  -4  -2 32490.6 1317.22   3
  -4   7  -2 33775.8 1339.72   3
  -7   4  -2 32741.3 925.913   1
  -3  -4  -2 34693.7 588.111   1
   7  -3  -2 32892.7 1228.26   1
   3  -7  -2 32912.7 968.711   1
   4   3  -2 33363.9 874.925   3
   3  -7  -2 31495.2 1241.36   4
  -7   4  -2 33986.6 1437.81   3
  -4   7  -2 32776.9 1191.97   1
  -3  -4  -2 32548.9 1139.12   2
   3  -7  -2 30899.8 1193.43   2
   4   3  -2 32030.0 1180.57   2
   7  -3  -2 34447.3 800.982   3
   7  -3  -2 32468.3 1294.54   2
  -4   7   1 156850. 2042.05   1
  -7   4   1 158729. 2340.45   1
   3  -7   1 166506. 2398.94   1
  -4   7   1 163551. 2135.26   2
   7  -3   1 155511. 1681.52   1
   4   3   1 162711. 2109.28   4
  -7   4   1 159892. 2202.85   3
   7  -3   1 160178. 2793.86   3
  -7   4   1 161495. 2047.25   2
   4   3   1 160059. 2708.64   3
  -4   7   1 162436. 1983.63   4
  -7   4   1 158714. 2131.90   4
   3  -7   4 40340.8 1561.43   3
   3  -7   4 36605.9 1501.25   2
  -3  -4   4 39955.3 1641.34   2
  -7   4   4 37410.2 1749.93   2
   3  -7   4 38208.4 1601.87   4
  -7   4   4 36739.1 1648.31   4
  -4   7   4 36251.2 1388.96   3
  -3  -4   4 37128.4 1498.13   4
   4   3   4 39171.2 1809.92   4
  -7   4   4 30796.9 768.717   3
  -4   7   4 37444.0 1855.38   2
   7  -3   4 39823.1 1780.91   2
  -4   7   4 38483.4 1663.63   1
  -4   7   4 37924.2 1767.64   4
   7  -3   4 38302.5 1749.78   4
   4   3   4 36029.8 1796.17   2
   7  -3   4 38203.1 1826.03   3
   4   3   4 38083.1 1744.29   3
  -7   4   7 1449.50 333.027   3
  -4   7   7 481.746 476.472   3
   3  -7   7 1590.22 601.693   3
   4   3   7 1834.24 784.490   3
   7  -3   7 584.760 599.070   3
   4   3  10 8573.80 1291.45   3
   3  -7  10 4914.29 968.637   3
   7  -3  10 6806.52 1280.77   3
  -4   7  10 7429.92 1096.95   3
  -5   7 -12 11864.3 1793.83   4
   7  -2 -12 10547.3 2060.97   2
  -2  -5 -12 12715.7 1990.57   2
  -7   5 -12 10969.8 1597.30   1
  -7   5 -12 12346.5 1787.02   4
   5   2 -12 12032.8 1936.23   4
   5   2 -12 11197.6 2113.99   2
   2  -7 -12 13133.4 2152.37   2
   7  -2 -12 11276.9 1927.71   4
   2  -7 -12 14185.9 2070.43   4
  -5   7 -12 14099.0 1964.75   2
  -5   7 -12 13703.5 1862.05   1
  -7   5 -12 9854.46 1645.02   2
  -2  -5 -12 10576.7 1928.83   4
   5   2  -9 60781.6 3303.06   4
   2  -7  -9 65267.2 3416.53   2
  -7   5  -9 62424.8 3044.49   4
  -5   7  -9 61224.6 2993.20   4
   5   2  -9 67545.8 3641.39   2
   7  -2  -9 66171.6 3674.93   2
  -5   7  -9 64009.0 3077.30   2
  -2  -5  -9 64733.6 3330.59   4
  -7   5  -9 68921.7 3044.86   1
   7  -2  -9 61782.2 3447.14   4
   2  -7  -9 65970.5 3487.85   4
  -5   7  -9 59239.0 3002.41   1
  -2  -5  -9 64815.8 3310.85   2
  -7   5  -9 62454.7 3029.78   2
  -5   7  -6 28652.5 1652.57   4
  -7   5  -6 26562.7 1613.00   2
   7  -2  -6 25921.7 1920.01   2
  -5   7  -6 28083.5 1687.51   2
  -5   7  -6 26698.7 1610.69   3
   2  -7  -6 22370.8 1329.84   1
  -7   5  -6 25309.4 1583.57   4
  -5   7  -6 27384.0 1670.90   1
   2  -7  -6 23757.1 1776.22   4
  -2  -5  -6 25770.6 1559.89   3
  -7   5  -6 23017.3 1428.98   1
   5   2  -6 26018.1 1772.68   4
   7  -2  -6 24688.7 1809.25   4
  -2  -5  -6 26189.1 1781.92   4
  -2  -5  -6 26818.6 1362.46   1
   5   2  -6 28498.4 1967.62   2
   2  -7  -6 23826.5 1735.68   2
  -2  -5  -6 25527.1 1756.60   2
   2  -7  -3 262632. 3012.91   1
   7  -2  -3 250048. 3941.94   4
   5   2  -3 264048. 3741.75   4
  -5   7  -3 260878. 3135.68   2
   2  -7  -3 265039. 3986.39   2
  -5   7  -3 252288. 3965.33   3
  -7   5  -3 253783. 4179.66   3
  -5   7  -3 257915. 3658.99   1
  -5   7  -3 254951. 3156.35   4
  -2  -5  -3 268493. 3967.26   3
  -2  -5  -3 261087. 2492.35   1
   2  -7  -3 261469. 4041.54   4
  -7   5  -3 257780. 3184.66   2
   7  -2  -3 254423. 3933.30   1
   5   2  -3 250145. 3987.50   2
  -2  -5  -3 254395. 3818.45   4
  -7   5  -3 253202. 3139.68   1
  -2  -5  -3 261047. 3772.95   2
  -5   7   0 424444. 1942.96   2
  -5   7   0 440444. 4300.56   3
  -2  -5   0 445192. 3223.70   1
   2  -7   0 451148. 3390.57   1
   7  -2   0 420070. 4014.11   3
   7  -2   0 428207. 2861.89   1
   5   2   0 430822. 3932.95   3
  -5   7   0 427025. 3315.02   1
  -7   5   0 408026. 3142.54   1
  -7   5   0 436414. 4184.43   3
   2  -7   3 245091. 3171.64   2
  -5   7   3 239509. 3723.73   4
  -7   5   3 248369. 4046.23   1
   5   2   3 248958. 4050.25   3
   7  -2   3 256160. 3770.47   2
   5   2   3 252132. 3989.26   4
   5   2   3 245735. 3895.69   2
  -5   7   3 248682. 3732.01   1
   7  -2   3 243723. 4154.45   3
  -5   7   3 242828. 3985.49   2
   7  -2   3 248671. 3807.35   4
   2  -7   3 251517. 3361.44   4
  -7   5   3 249552. 3684.03   4
  -7   5   3 241414. 3823.55   2
  -2  -5   3 259443. 3341.32   2
  -2  -5   3 244015. 3134.90   4
  -5   7   6 25644.5 1318.66   3
   2  -7   6 22812.9 1330.30   3
   7  -2   6 23392.6 1616.87   3
  -7   5   6 21184.6 893.302   3
   5   2   6 22627.3 1604.27   3
   2  -7   9 12696.8 1250.59   3
   7  -2   9 15396.3 1669.25   3
   5   2   9 17199.3 1696.62   3
  -5   7   9 16053.0 1266.15   3
  -7   5   9 14719.6 925.387   3
   5   2  12 5970.23 1493.60   3
   7  -2  12 4628.89 1379.32   3
   7  -1 -10 2345.12 1069.86   4
  -6   7 -10 5201.80 1167.93   4
   6   1 -10 3201.14 1191.85   4
  -7   6 -10 5926.50 1165.46   4
  -6   7 -10 4677.83 1101.23   1
  -1  -6 -10 2973.61 1034.09   2
   7  -1 -10 4431.31 1357.78   2
  -6   7 -10 3515.78 1056.49   2
  -7   6 -10 4816.06 1119.63   2
   1  -7 -10 3459.40 1122.81   4
  -1  -6 -10 4461.52 1151.89   4
   6   1 -10 3913.35 1258.60   2
  -7   6 -10 4898.61 1117.12   1
   1  -7 -10 2606.00 1010.41   2
  -7   6  -7 22578.8 1614.52   4
  -6   7  -7 22208.6 1607.30   1
  -1  -6  -7 20632.3 1749.27   4
   1  -7  -7 21123.6 1772.90   2
   7  -1  -7 22138.9 1974.71   2
  -1  -6  -7 20763.0 1756.98   2
   6   1  -7 21561.9 1784.16   4
  -7   6  -7 22587.4 1634.36   2
  -6   7  -7 23535.1 1666.43   2
   7  -1  -7 22852.7 1884.97   4
   6   1  -7 21862.0 1925.96   2
  -7   6  -7 21619.0 1566.84   1
   1  -7  -7 24938.6 1915.38   4
  -6   7  -7 22366.6 1606.15   4
  -7   6  -4 30257.2 1576.97   3
   6   1  -4 29495.3 1674.71   2
   1  -7  -4 29129.5 1561.24   2
  -1  -6  -4 30226.2 1570.64   4
  -1  -6  -4 33640.5 1544.40   3
  -7   6  -4 30798.8 1311.21   2
   1  -7  -4 30868.4 1597.77   4
   7  -1  -4 32694.6 1635.06   1
  -7   6  -4 30743.8 1358.12   1
  -1  -6  -4 33507.4 1620.00   2
  -1  -6  -4 33512.0 1138.75   1
  -7   6  -4 32563.7 1416.78   4
   7  -1  -4 30622.6 1723.44   2
  -6   7  -4 33151.2 1366.65   4
  -6   7  -4 31919.8 1349.00   2
   6   1  -4 31384.1 1584.37   4
   7  -1  -4 30452.4 1617.73   4
  -6   7  -4 30932.1 1446.79   1
   1  -7  -4 31245.0 1173.32   1
  -6   7  -4 31850.6 1604.36   3
   1  -7  -1 1889.52 248.610   1
  -7   6  -1 1646.97 255.278   1
  -6   7  -1 1677.46 429.975   3
  -7   6  -1 939.766 437.214   3
  -1  -6  -1 1724.84 288.595   4
   6   1  -1 1441.79 274.534   4
   6   1  -1 1256.54 356.501   2
  -1  -6  -1 1788.12 226.055   1
   1  -7  -1 2092.47 316.951   4
   7  -1  -1 1442.74 329.940   3
   6   1  -1 1369.58 322.397   3
   1  -7  -1 1555.12 282.984   2
  -6   7  -1 1493.47 311.487   1
   6   1  -1 1243.07 335.072   1
   7  -1  -1 1610.94 322.423   1
   7  -1  -1 1377.07 338.715   2
   7  -1  -1 1513.09 310.071   4
   7  -1   2 21713.5 649.680   1
   6   1   2 20991.7 1020.11   2
  -6   7   2 20407.5 1010.32   2
  -6   7   2 20578.4 940.226   4
  -7   6   2 18782.9 1009.16   1
   6   1   2 22658.5 1029.39   4
  -7   6   2 23862.1 1076.11   2
   6   1   2 17754.8 1100.54   3
  -1  -6   2 20450.8 753.811   2
   1  -7   2 21373.8 735.039   4
  -7   6   2 20131.0 845.810   3
   7  -1   2 23181.1 999.308   2
   7  -1   2 16739.9 1058.25   3
   7  -1   2 20447.9 994.751   4
   1  -7   2 22465.2 707.249   2
  -1  -6   2 20934.0 692.592   4
  -6   7   2 19771.2 976.488   1
  -7   6   2 23087.5 978.877   4
   6   1   5 12038.8 1177.89   3
   1  -7   5 11102.7 852.738   3
  -1  -6   5 11970.4 1031.46   2
   7  -1   5 11798.4 1159.05   3
   1  -7   5 12318.4 1056.00   4
  -6   7   5 12298.7 843.307   3
  -7   6   5 12054.1 710.206   3
   1  -7   5 12241.7 1048.17   2
  -1  -6   5 11015.3 985.040   4
   7  -1   8 11569.4 1455.14   3
  -7   6   8 10221.7 800.933   3
   1  -7   8 10523.5 992.774   3
   6   1   8 10436.0 1303.22   3
  -6   7   8 11530.6 995.118   3
   7  -1  11 15018.8 1862.55   3
   6   1  11 14125.2 1878.60   3
   0  -7 -11 563.198 998.740   2
  -7   7 -11-345.496 883.917   4
   0  -7 -11 478.757 1153.52   4
   7   0 -11 605.770 1268.52   2
  -7   7 -11-62.5858 972.670   2
  -7   7 -11-597.374 793.956   1
   7   0 -11 199.269 999.629   4
   7   0  -8 84041.0 3877.44   2
   7   0  -8 80944.9 3641.87   4
   0  -7  -8 81000.9 3553.42   4
  -7   7  -8 83527.7 3186.05   1
   0  -7  -8 84237.3 3591.57   2
  -7   7  -8 80159.5 3116.89   4
  -7   7  -8 77893.2 3122.13   2
   7   0  -5 273.458 485.653   4
   7   0  -5-303.210 656.883   2
   0  -7  -5-365.013 622.013   2
  -7   7  -5 299.316 405.467   1
   0  -7  -5-715.557 650.616   4
   0  -7  -5 51.9496 285.941   1
   0  -7  -5 287.952 468.018   3
  -7   7  -5-57.4601 367.755   4
  -7   7  -5-81.9341 384.197   2
  -7   7  -5-76.6904 516.404   3
  -7   7  -2 133508. 2214.71   1
   7   0  -2 134125. 1669.96   3
   0  -7  -2 130671. 2387.47   4
   7   0  -2 129604. 2345.09   4
   7   0  -2 137493. 2583.74   2
   0  -7  -2 135205. 2356.51   2
   7   0  -2 128848. 2525.29   1
   0  -7  -2 136401. 1703.82   1
  -7   7  -2 130076. 2828.64   3
   7   0   1 117.274 94.9026   1
   0  -7   1-74.9860 291.433   1
  -7   7   1-26.7642 221.017   2
   7   0   1 318.070 435.210   3
  -7   7   1 156.824 259.864   1
  -7   7   1 65.8169 346.291   3
  -7   7   1-71.6510 207.732   4
   0  -7   4 29599.9 1321.20   4
   7   0   4 31690.7 1651.99   2
  -7   7   4 31264.9 1112.32   3
   7   0   4 32831.8 1685.93   4
  -7   7   4 31039.4 1567.19   4
  -7   7   4 34562.2 1695.95   1
   7   0   4 32419.3 1704.68   3
  -7   7   4 31070.8 1669.32   2
   0  -7   4 32289.6 1379.67   2
  -7   7   7 53.5956 358.876   3
   7   0   7-1317.17 783.710   3
  -7   7  10 54661.5 2010.82   3
   7   0  10 53023.4 3033.51   3
   8  -8 -11-782.577 1296.36   2
  -8   0 -11-747.852 860.453   4
   0   8 -11 122.200 924.897   4
   8  -8 -11 1146.43 1071.09   4
   0   8 -11 2456.82 1248.88   2
  -8   0 -11 494.260 970.776   2
  -8   0 -11 418.688 786.172   1
   0   8  -8 48993.3 2772.61   2
   8  -8  -8 43604.6 2824.46   2
   0   8  -8 47821.3 2578.94   4
  -8   0  -8 44046.5 2480.01   4
  -8   0  -8 45644.5 2408.00   2
   0   8  -8 43685.7 2076.50   3
   8  -8  -8 36822.6 2658.28   4
  -8   0  -5-936.201 583.935   2
  -8   0  -5 20.1263 451.039   4
   0   8  -5-191.595 412.061   4
   0   8  -5-324.113 588.187   2
  -8   0  -5-65.2233 280.589   1
   8  -8  -5-130.352 648.948   4
   8  -8  -5-440.454 653.509   2
   0   8  -5-483.512 444.168   3
  -8   0  -2 250532. 4171.89   3
   8  -8  -2 262452. 3328.32   1
   8  -8  -2 252733. 3716.35   4
   8  -8  -2 242964. 3666.59   2
   0   8  -2 248014. 3657.26   1
   0   8  -2 254714. 2920.64   2
  -8   0  -2 238333. 1452.66   1
   0   8  -2 253566. 2239.55   4
   0   8   1-76.2038 174.554   1
   8  -8   1-321.379 475.958   3
   0   8   1 145.774 228.841   4
  -8   0   1-58.9239 275.485   3
   0   8   1-38.0352 264.862   2
   8  -8   1 74.6373 237.615   1
   0   8   4 81220.1 2661.39   4
   8  -8   4 83560.6 2757.96   3
  -8   0   4 81725.7 2388.15   2
   0   8   4 81771.7 2550.20   3
  -8   0   4 79947.3 2178.21   4
   0   8   4 78019.5 2719.38   2
   0   8   4 78774.8 2095.17   1
   8  -8   4 76329.6 2270.50   2
   8  -8   4 75492.7 2362.07   4
   8  -8   7 279.736 821.548   3
   0   8   7 751.039 729.885   3
   8  -8  10 25896.1 2093.94   3
   0   8  10 31698.6 2246.63   3
  -7  -1 -12 4980.54 1384.87   2
  -1   8 -12 6451.72 1499.96   4
  -7  -1 -12 3926.66 1298.93   4
  -8   1 -12 3559.49 1252.75   2
  -1   8 -12 8491.45 1740.37   2
   1   7 -12 5475.44 1374.77   4
   8  -7 -12 7692.08 1875.30   2
  -8   1 -12 4076.55 1180.94   4
   8  -7 -12 4440.03 1450.49   4
   1   7 -12 4571.54 1513.77   2
   7  -8 -12 2786.81 1466.78   2
  -7  -1 -12 4719.38 1109.82   1
  -1   8 -12 4984.78 1453.62   1
   7  -8 -12 4154.88 1499.28   4
  -8   1 -12 5526.71 1233.81   1
   8  -7  -9 15994.9 2003.61   4
   8  -7  -9 17588.3 2124.00   2
  -7  -1  -9 18308.2 1839.90   4
   7  -8  -9 13036.7 1769.05   4
  -1   8  -9 18251.4 1757.44   4
  -8   1  -9 20550.2 1845.49   4
   7  -8  -9 21764.6 2262.44   2
  -1   8  -9 22203.6 2041.95   2
  -7  -1  -9 18004.9 1725.13   2
   1   7  -9 18325.4 1882.10   2
   1   7  -9 21614.8 1927.47   4
  -8   1  -9 18496.3 1829.19   2
  -1   8  -6 15061.8 1250.66   4
  -7  -1  -6 15298.9 1327.42   4
   1   7  -6 17007.2 1496.54   2
   7  -8  -6 16859.4 1606.81   4
   1   7  -6 15272.6 1310.42   4
  -7  -1  -6 14456.4 1284.97   2
  -8   1  -6 15636.7 1263.48   2
   8  -7  -6 12451.9 1419.03   4
   8  -7  -6 17782.3 1656.11   2
  -8   1  -6 14741.1 1300.10   4
  -1   8  -6 15394.5 1168.10   3
  -8   1  -6 15171.4 1033.34   1
   1   7  -6 16308.9 1092.44   3
  -1   8  -6 13921.5 1294.88   2
   7  -8  -6 14023.5 1492.76   2
   7  -8  -3 47471.9 1863.06   2
  -8   1  -3 46935.5 995.059   1
   1   7  -3 48565.6 1657.99   2
  -7  -1  -3 47361.8 1585.56   2
  -1   8  -3 47375.1 1801.31   1
   8  -7  -3 48291.1 1896.57   4
   7  -8  -3 47877.1 1586.09   1
  -7  -1  -3 47027.7 1579.55   4
  -1   8  -3 45834.1 1495.64   2
  -1   8  -3 47846.9 1635.17   3
   1   7  -3 46144.8 1448.68   3
  -7  -1  -3 45981.9 870.724   1
   8  -7  -3 45563.6 1589.79   1
  -7  -1  -3 48589.9 1960.48   3
   1   7  -3 45985.3 1390.24   4
   8  -7  -3 49000.9 1921.81   2
  -1   8  -3 47786.7 1331.79   4
   7  -8  -3 44212.5 1820.49   4
  -8   1  -3 49831.1 1998.82   3
   8  -7   0 22714.0 1124.66   3
   7  -8   0 21836.1 841.448   1
  -8   1   0 21545.1 1016.76   3
   1   7   0 22711.3 548.255   4
  -7  -1   0 22509.0 1033.13   3
  -1   8   0 21906.5 804.968   1
  -8   1   0 21346.9 773.736   1
   1   7   0 21121.1 739.962   1
   7  -8   0 23493.7 676.245   2
   8  -7   0 21090.3 706.947   2
  -1   8   0 23397.8 646.864   2
   8  -7   0 21921.1 828.982   1
   7  -8   0 21793.1 773.782   4
   7  -8   3 160160. 3450.61   3
   1   7   3 155411. 3305.34   2
   1   7   3 162777. 3325.18   3
  -7  -1   3 163616. 2909.82   2
   8  -7   3 164280. 2829.43   2
   1   7   3 162665. 3295.15   4
   8  -7   3 158279. 2912.02   4
   7  -8   3 155880. 3107.45   1
   7  -8   3 152731. 2794.13   4
  -8   1   3 157304. 2930.71   2
   8  -7   3 153763. 2973.22   1
  -1   8   3 159716. 3192.39   4
   7  -8   3 160892. 2685.92   2
  -1   8   3 160699. 3349.61   2
  -7  -1   3 153496. 2626.21   4
  -1   8   3 158632. 2590.74   1
  -8   1   3 157484. 2736.12   4
   1   7   3 162729. 2424.87   1
  -1   8   3 162599. 3204.73   3
   8  -7   3 160076. 3545.04   3
   8  -7   6 14037.4 1414.43   3
   7  -8   6 14353.2 1324.94   3
   1   7   6 15656.2 1360.61   3
  -1   8   6 15663.2 1296.07   3
   1   7   9 88159.0 3493.62   3
   8  -7   9 72738.6 3231.88   3
  -1   8   9 84915.8 3286.37   3
   7  -8   9 74755.6 3210.59   3
   7  -8  12 5318.98 1270.78   3
  -1   8  12 8315.79 1501.18   3
   1   7  12 9145.38 1570.50   3
   8  -7  12 8111.67 1579.68   3
   8  -6 -10 37137.0 2990.21   2
  -8   2 -10 35003.2 2224.84   1
   2   6 -10 32256.7 2524.06   4
   8  -6 -10 35157.0 2875.92   4
  -2   8 -10 31120.6 2436.58   2
  -6  -2 -10 36351.5 2622.13   4
  -8   2 -10 35088.2 2466.22   2
  -2   8 -10 34238.0 2495.45   4
  -8   2 -10 32211.6 2432.23   4
   6  -8 -10 25667.5 2504.49   4
  -6  -2 -10 35016.5 2472.00   2
   6  -8 -10 36888.1 2913.50   2
   2   6 -10 38285.1 2844.59   2
  -6  -2  -7 92186.0 3217.25   2
   2   6  -7 90915.0 3515.76   2
  -8   2  -7 92031.0 3277.02   4
  -8   2  -7 90558.5 2768.15   1
   6  -8  -7 92962.0 3766.04   4
  -2   8  -7 94864.9 3363.82   2
  -2   8  -7 92849.0 2909.32   3
   8  -6  -7 89252.3 3729.07   4
  -2   8  -7 89850.5 3147.72   4
   8  -6  -7 98731.6 3944.10   2
   6  -8  -7 93831.7 3785.24   2
  -6  -2  -7 84292.4 3220.86   4
  -8   2  -7 93716.7 3162.06   2
  -6  -2  -7 85165.3 2613.75   1
   2   6  -7 90768.4 2360.53   3
   2   6  -7 90381.0 3254.11   4
   2   6  -4 25640.3 1060.57   3
  -6  -2  -4 23782.9 1338.51   4
  -6  -2  -4 25114.8 1362.05   2
  -6  -2  -4 26145.4 958.212   1
  -6  -2  -4 26086.1 1549.58   3
  -2   8  -4 23120.7 1431.09   1
  -8   2  -4 23771.5 1278.43   4
  -2   8  -4 25305.2 1301.18   2
   8  -6  -4 20216.8 1381.67   4
  -8   2  -4 26743.6 1030.72   1
  -8   2  -4 25242.8 1552.54   3
  -8   2  -4 25069.1 1267.75   2
  -2   8  -4 23777.1 1163.66   4
   6  -8  -4 25217.3 1553.99   2
   2   6  -4 26260.4 1481.08   2
   8  -6  -4 24060.6 1556.61   2
   6  -8  -4 24633.3 1244.24   1
   6  -8  -4 24359.0 1566.94   4
   2   6  -4 26303.2 1327.20   4
  -2   8  -4 26547.3 1308.32   3
   8  -6  -4 25738.9 1377.79   1
   8  -6  -1 97458.6 1879.56   4
   8  -6  -1 100149. 1974.31   3
   6  -8  -1 96805.3 1774.30   2
   6  -8  -1 95711.3 1788.95   4
  -6  -2  -1 96501.7 2244.87   3
  -8   2  -1 98701.3 1238.81   1
   2   6  -1 98488.1 1086.02   4
   8  -6  -1 98567.4 1785.03   1
   8  -6  -1 92812.2 1810.64   2
   6  -8  -1 98640.4 1743.50   1
   2   6  -1 98519.4 1952.96   1
  -8   2  -1 99277.5 2358.75   3
  -2   8  -1 93924.1 1857.44   1
  -2   8  -1 98665.8 1098.59   2
   2   6   2 138799. 2620.67   2
  -8   2   2 126796. 2650.80   1
  -6  -2   2 136322. 2228.68   2
   8  -6   2 138878. 3026.50   3
   8  -6   2 134288. 2244.02   1
  -2   8   2 134665. 2437.49   4
  -6  -2   2 137855. 1960.31   4
   6  -8   2 137131. 2876.42   3
   6  -8   2 137620. 1835.30   2
   2   6   2 132638. 2495.01   4
   2   6   2 134086. 1597.49   1
   2   6   2 140057. 2856.47   3
   6  -8   2 133748. 2521.55   1
   8  -6   2 127759. 2015.37   2
   6  -8   2 134009. 2089.22   4
  -8   2   2 132383. 1760.73   3
  -8   2   2 130203. 2200.02   4
  -8   2   2 133365. 2332.03   2
  -2   8   2 135524. 2610.32   2
  -2   8   2 136684. 2076.43   1
   6  -8   5 18972.7 1335.91   4
   8  -6   5 18885.4 1428.79   3
  -2   8   5 21762.1 1361.47   3
   6  -8   5 19425.1 1381.04   3
   2   6   5 19789.7 1395.78   3
  -6  -2   5 17803.8 1205.69   4
   8  -6   5 19771.5 1436.98   2
   6  -8   5 17500.1 1258.16   2
  -2   8   5 19736.7 1280.44   1
   6  -8   8 24011.2 1735.90   3
   2   6   8 30138.8 2019.32   3
  -2   8   8 31124.0 1929.33   3
   8  -6   8 26420.8 1954.64   3
   8  -6  11 21680.0 2059.86   3
   6  -8  11 19733.2 1843.85   3
   2   6  11 21799.2 1996.08   3
  -2   8  11 22315.4 1888.74   3
  -3   8 -11 8408.46 1436.87   4
   3   5 -11 9425.79 1619.81   4
   8  -5 -11 10367.8 1931.32   4
  -8   3 -11 6282.82 1317.93   4
   8  -5 -11 10029.5 1841.99   2
  -3   8 -11 9928.32 1599.64   1
  -8   3 -11 9477.29 1515.59   2
   3   5 -11 9211.14 1805.03   2
   5  -8 -11 7303.73 1739.13   4
  -5  -3 -11 7341.13 1468.74   2
  -8   3 -11 8666.47 1339.42   1
  -5  -3 -11 9535.42 1657.10   4
   5  -8 -11 6121.41 1701.05   2
  -3   8 -11 7838.78 1536.62   2
  -8   3  -8 29852.4 2002.34   4
  -5  -3  -8 27564.7 2025.86   2
   5  -8  -8 27921.6 2266.22   4
   3   5  -8 21600.2 1159.48   3
   3   5  -8 24634.9 2087.75   2
   8  -5  -8 27399.0 2364.22   2
   8  -5  -8 32709.0 2463.92   4
   3   5  -8 25733.5 1974.33   4
  -5  -3  -8 28839.0 2058.32   4
   5  -8  -8 29751.0 2299.29   2
  -3   8  -8 27300.4 1951.29   2
  -3   8  -8 27321.6 1899.75   4
  -8   3  -8 25858.8 1905.86   2
  -8   3  -8 26989.0 1725.61   1
   3   5  -5 50104.4 1469.83   3
  -5  -3  -5 46495.0 2084.47   3
  -3   8  -5 47193.6 1835.01   4
   8  -5  -5 49211.7 2403.32   2
   8  -5  -5 53275.6 2442.84   4
  -5  -3  -5 47854.0 1539.24   1
   5  -8  -5 49564.1 2303.36   2
  -5  -3  -5 50592.3 2147.14   4
   3   5  -5 48324.2 2042.34   4
   3   5  -5 50523.4 2261.74   2
  -8   3  -5 48860.9 1675.93   1
  -3   8  -5 48664.4 1971.73   3
   5  -8  -5 48371.0 1855.82   1
  -8   3  -5 51634.0 2046.22   4
  -3   8  -5 47926.3 1954.69   2
  -5  -3  -5 49039.7 2047.96   2
   5  -8  -5 51041.7 2362.54   4
  -3   8  -5 45391.5 2071.71   1
  -8   3  -5 48259.7 2247.28   3
  -8   3  -5 48475.1 1927.01   2
   5  -8  -2 23524.0 1125.93   4
  -5  -3  -2 23936.9 966.085   4
   8  -5  -2 18069.8 979.145   4
   8  -5  -2 23288.9 1170.88   2
  -5  -3  -2 22902.0 1204.78   3
   5  -8  -2 23568.5 1129.69   2
  -8   3  -2 24749.0 1311.79   3
   8  -5  -2 22097.9 1012.80   1
  -8   3  -2 23879.6 704.692   1
  -3   8  -2 24040.2 1174.56   3
   3   5  -2 23219.1 972.073   2
   5  -8  -2 23829.2 916.436   1
  -3   8  -2 24756.1 1116.71   1
  -3   8  -2 24174.3 777.098   2
   3   5  -2 23399.3 858.782   4
  -5  -3   1 102378. 1828.83   3
   3   5   1 102130. 1809.86   2
   3   5   1 96738.4 2188.87   3
   8  -5   1 100380. 1608.66   1
   3   5   1 99844.7 1728.44   4
  -3   8   1 99666.1 1603.86   4
  -3   8   1 99697.7 1776.83   2
   5  -8   1 99939.4 1966.56   1
   3   5   1 102912. 1063.93   1
  -8   3   1 98808.6 1848.35   3
   8  -5   1 98447.9 2347.34   3
  -3   8   1 98153.3 1655.81   1
  -8   3   1 100214. 2006.44   1
   3   5   4 157820. 3745.42   2
   5  -8   4 159863. 3047.33   2
   3   5   4 161028. 3606.88   3
  -3   8   4 157930. 3580.08   4
  -3   8   4 157647. 3147.52   3
   5  -8   4 155572. 3352.28   3
  -5  -3   4 169398. 3108.30   4
  -3   8   4 152961. 3708.76   2
  -8   3   4 162920. 3529.35   2
   5  -8   4 161785. 3302.28   4
   3   5   4 160271. 3709.59   4
   8  -5   4 160781. 3393.50   2
  -3   8   4 162088. 3252.23   1
  -5  -3   4 156010. 3207.53   2
   8  -5   4 160303. 3481.12   4
   8  -5   4 164665. 3786.44   3
  -8   3   4 162098. 3230.58   4
   5  -8   7 25053.2 1662.89   3
  -3   8   7 21164.4 1485.94   3
   8  -5   7 23347.0 1741.18   3
   3   5   7 24198.2 1719.68   3
   3   5  10 9218.26 1422.58   3
  -3   8  10 10289.1 1244.29   3
   8  -5  10 10554.9 1480.54   3
   5  -8  10 9859.36 1331.62   3
  -4  -4 -12 6456.76 1550.50   2
   4   4 -12 9380.44 1784.78   4
   8  -4 -12 8700.98 1829.79   4
   4   4 -12 6996.25 1691.19   2
  -8   4 -12 6701.22 1461.18   4
  -4   8 -12 7494.25 1527.13   2
  -8   4 -12 6713.67 1439.86   2
  -4  -4 -12 8401.08 1646.10   4
   4  -8 -12 11807.7 1995.92   4
   8  -4 -12 8698.86 1927.07   2
  -8   4 -12 8270.08 1403.55   1
  -4   8 -12 8352.10 1563.63   4
   4  -8 -12 7022.32 1811.29   2
  -4   8 -12 8568.25 1564.76   1
  -4  -4  -9 25305.4 2135.50   4
  -4   8  -9 25305.5 1958.23   4
   8  -4  -9 25238.6 2337.05   4
  -8   4  -9 25488.8 2032.50   4
  -8   4  -9 26531.4 2073.69   2
  -4   8  -9 26450.1 2146.07   1
  -4   8  -9 27163.2 2065.24   2
  -8   4  -9 24135.2 1808.38   1
   4   4  -9 26809.6 2432.70   2
   8  -4  -9 24650.9 2319.45   2
   4  -8  -9 26211.1 2351.29   4
   4  -8  -9 27621.8 2358.71   2
  -4  -4  -9 26819.8 2194.81   2
   4   4  -9 23668.1 2111.92   4
  -4   8  -6 9742.76 1074.49   1
  -4  -4  -6 9521.97 1109.83   4
  -8   4  -6 10094.7 1084.94   2
   4  -8  -6 9307.02 1263.27   4
   4  -8  -6 8510.86 1128.96   2
  -8   4  -6 11285.7 1093.71   4
  -4   8  -6 8905.39 987.058   4
   4   4  -6 10740.0 663.628   3
   8  -4  -6 7734.27 1187.76   2
   4   4  -6 11273.3 1201.97   4
  -4  -4  -6 8094.29 1074.36   2
  -8   4  -6 9469.73 914.039   1
  -4  -4  -6 10329.6 872.060   1
  -4   8  -6 9893.96 1081.54   3
   4   4  -6 9923.56 1173.94   2
   8  -4  -6 10040.4 1266.48   4
  -4   8  -6 8992.90 1043.00   2
  -4  -4  -3 143638. 1601.24   1
   4  -8  -3 146275. 2440.76   1
   4  -8  -3 137363. 2986.46   2
  -4   8  -3 141611. 2344.43   2
  -4  -4  -3 142510. 3049.94   3
  -8   4  -3 135993. 2106.46   1
  -4  -4  -3 143149. 2826.89   2
  -4   8  -3 144660. 2980.29   3
   8  -4  -3 136483. 2867.55   1
   8  -4  -3 135779. 3030.20   4
  -4   8  -3 139000. 2830.64   1
   8  -4  -3 139266. 3244.59   2
  -4   8  -3 138961. 2247.42   4
  -8   4  -3 143489. 2443.81   2
   4  -8  -3 136263. 3009.28   4
   4   4  -3 140040. 2635.64   4
  -8   4  -3 138592. 3211.90   3
   4   4  -3 137870. 2900.49   2
  -4  -4  -3 141356. 2797.49   4
   4  -8   0 120050. 1368.52   4
   4   4   0 115530. 1582.82   1
   8  -4   0 122694. 1686.37   1
   8  -4   0 115267. 2250.25   3
  -4  -4   0 124589. 2229.10   3
  -8   4   0 115366. 1710.14   1
   4   4   0 120069. 2205.93   3
   4  -8   0 120195. 1889.96   1
  -4   8   0 114206. 1793.07   1
  -8   4   0 117587. 2303.72   3
   4   4   3 142596. 3057.16   4
  -4  -4   3 140893. 2363.82   4
  -4   8   3 138985. 2572.69   3
  -4   8   3 137327. 3095.93   2
   8  -4   3 136086. 2847.97   4
   4   4   3 136696. 3100.25   3
   4  -8   3 138634. 2546.93   4
   4   4   3 139649. 3050.15   2
   4  -8   3 137746. 2830.62   3
  -4   8   3 135837. 2668.78   1
   8  -4   3 136087. 3221.53   3
  -8   4   3 138102. 2676.79   4
   8  -4   3 140123. 2736.68   2
  -8   4   3 139922. 2900.24   2
  -8   4   3 141280. 3134.87   1
  -4   8   3 144991. 2987.85   4
  -4  -4   3 138145. 2507.56   2
  -8   4   3 138780. 1631.71   3
   4  -8   3 141538. 2331.20   2
   4  -8   6 7340.83 953.898   2
   4  -8   6 8303.90 939.012   3
   8  -4   6 8287.43 1139.76   3
  -4   8   6 6636.30 868.512   3
   4   4   6 8304.33 1081.33   3
   4  -8   9 21965.9 1682.49   3
  -4   8   9 27849.3 1739.78   3
   4   4   9 23596.5 2015.05   3
   8  -4   9 26206.3 2008.79   3
   8  -4  12 4235.00 1314.88   3
   4   4  12 5426.69 1401.67   3
  -8   5 -10 6860.81 1169.89   1
  -3  -5 -10 6820.12 1339.11   2
  -8   5 -10 6638.59 1218.50   4
   5   3 -10 6434.43 1391.25   4
   8  -3 -10 7525.67 1546.77   4
   3  -8 -10 7574.09 1462.20   4
   8  -3 -10 6472.24 1561.95   2
   3  -8 -10 5300.18 1369.99   2
  -5   8 -10 7081.50 1322.09   2
   5   3 -10 6914.57 1574.08   2
  -3  -5 -10 6930.59 1471.08   4
  -8   5 -10 7568.35 1396.48   2
  -5   8 -10 7876.18 1306.12   1
  -5   8 -10 4682.48 1099.36   4
   8  -3  -7 25681.5 2161.30   2
   5   3  -7 28008.2 2108.02   2
  -8   5  -7 26029.2 1720.01   4
  -5   8  -7 23469.8 1752.46   1
  -3  -5  -7 24496.5 1862.58   4
  -5   8  -7 23057.0 1592.14   4
   3  -8  -7 25498.6 1959.91   4
  -8   5  -7 26195.7 1626.25   1
   5   3  -7 27063.2 1947.28   4
   3  -8  -7 26056.5 1986.97   2
   8  -3  -7 24375.0 1952.42   4
  -5   8  -7 24804.4 1703.13   2
  -3  -5  -7 26434.5 1910.54   2
  -3  -5  -7 23403.8 1418.51   1
  -8   5  -7 23384.6 1653.27   2
   8  -3  -4 156664. 3474.56   1
   5   3  -4 164406. 1813.84   3
   3  -8  -4 156862. 3635.41   4
  -3  -5  -4 158542. 3388.99   3
   5   3  -4 156182. 3595.41   2
   3  -8  -4 149000. 3496.96   2
  -8   5  -4 162150. 2818.88   1
  -5   8  -4 159068. 3321.52   1
   5   3  -4 154224. 3283.41   4
  -5   8  -4 154385. 2854.91   4
  -3  -5  -4 145992. 3204.68   2
  -8   5  -4 151666. 3611.88   3
  -8   5  -4 150717. 3005.38   4
  -5   8  -4 158633. 3418.25   3
  -3  -5  -4 154584. 3397.70   4
   3  -8  -4 160405. 2772.47   1
  -3  -5  -4 157375. 2280.04   1
  -8   5  -4 152984. 2872.42   2
   8  -3  -4 154682. 3638.38   4
  -5   8  -4 155636. 2915.91   2
   8  -3  -4 159124. 3832.32   2
   5   3  -1 94350.1 1770.83   3
  -3  -5  -1 109764. 2324.59   3
   8  -3  -1 101961. 1927.61   2
   3  -8  -1 106655. 1629.23   1
  -3  -5  -1 104754. 1195.58   1
  -8   5  -1 100451. 1510.54   1
   8  -3  -1 101497. 1839.01   3
   8  -3  -1 101101. 1865.52   4
   3  -8  -1 101112. 1738.81   4
  -5   8  -1 100485. 2312.22   3
   8  -3  -1 101927. 1845.92   1
   5   3  -1 100201. 1493.18   4
  -8   5  -1 103410. 2386.70   3
   3  -8  -1 101316. 1637.00   2
   3  -8   2 24548.6 839.466   4
  -8   5   2 25197.6 1197.61   1
  -5   8   2 25922.6 1077.96   4
   8  -3   2 24465.6 799.707   1
  -3  -5   2 27036.3 773.118   4
  -3  -5   2 25882.7 891.501   2
   8  -3   2 25352.1 1051.12   2
   3  -8   2 26645.6 734.659   2
   5   3   2 24393.6 1097.33   4
  -5   8   2 23889.1 1020.75   1
  -8   5   2 25351.6 891.737   3
   3  -8   2 26390.0 1236.56   1
   5   3   2 22353.4 1229.43   3
  -8   5   2 24939.4 1007.83   4
  -5   8   2 23544.7 1109.80   2
   8  -3   2 23212.6 1028.47   4
   8  -3   2 24398.1 1328.69   3
  -8   5   2 25978.2 1087.87   2
   5   3   2 25793.0 1112.04   2
   5   3   5 56153.2 2334.15   3
  -8   5   5 44964.3 1060.00   3
  -5   8   5 52255.3 2176.33   1
   8  -3   5 50918.7 2236.40   2
   3  -8   5 48944.5 1832.14   3
  -5   8   5 51275.1 1780.85   3
   3  -8   5 46998.9 1903.20   2
   3  -8   5 51213.9 2074.22   4
  -3  -5   5 48929.6 1964.33   2
  -3  -5   5 52576.3 2015.43   4
   8  -3   5 49337.3 2239.33   3
   3  -8   8 32809.6 1771.13   3
  -5   8   8 34754.5 1791.38   3
  -8   5   8 32311.4 1098.93   3
   5   3   8 32541.8 2158.23   3
   8  -3   8 33061.1 2152.59   3
  -5   8  11 6831.78 1078.51   3
   8  -3  11 6950.48 1413.31   3
   3  -8  11 4673.85 1041.10   3
   5   3  11 5912.56 1313.57   3
  -6   8 -11 23171.7 2149.65   1
  -2  -6 -11 24203.0 2336.81   2
  -8   6 -11 22551.5 2051.21   1
   6   2 -11 22341.8 2403.09   4
   8  -2 -11 21426.2 2668.88   2
  -6   8 -11 25808.0 2250.60   4
  -2  -6 -11 25474.1 2466.95   4
  -8   6 -11 23231.3 2136.13   4
   8  -2 -11 25899.4 2678.51   4
  -8   6 -11 23373.3 2173.65   2
   6   2 -11 22431.7 2614.00   2
   2  -8 -11 21722.4 2363.23   4
   2  -8 -11 21202.1 2278.37   2
  -6   8 -11 21619.1 2169.60   2
  -6   8  -8 35165.7 2118.00   4
   6   2  -8 30774.2 2273.69   4
  -8   6  -8 31139.0 1913.21   1
   8  -2  -8 27838.9 2278.91   4
  -8   6  -8 30852.1 2058.58   2
   2  -8  -8 29477.5 2215.15   2
   8  -2  -8 33854.4 2601.49   2
   2  -8  -8 33345.6 2361.53   4
  -2  -6  -8 28882.0 2152.30   4
  -6   8  -8 30224.1 2049.65   1
   6   2  -8 32345.7 2449.12   2
  -8   6  -8 30864.4 1997.93   4
  -6   8  -8 30024.1 1981.64   2
  -2  -6  -8 26047.0 2106.83   2
  -6   8  -5 16435.0 1212.85   1
  -2  -6  -5 16928.3 1352.42   2
   6   2  -5 16490.1 1310.47   4
  -8   6  -5 15173.7 1039.35   1
   8  -2  -5 20825.6 1642.80   2
  -2  -6  -5 17198.9 923.653   1
   2  -8  -5 16409.1 1372.02   4
   8  -2  -5 18089.7 1436.90   4
  -6   8  -5 17019.4 1142.27   2
  -2  -6  -5 19200.0 1331.83   3
  -6   8  -5 18012.0 1157.06   4
   2  -8  -5 16740.7 1019.64   1
  -8   6  -5 15725.7 1339.63   3
  -6   8  -5 15998.8 1293.46   3
   2  -8  -5 15660.1 1301.67   2
  -2  -6  -5 17788.5 1356.35   4
   6   2  -5 14037.8 1294.94   2
  -8   6  -5 17075.3 1176.13   2
  -8   6  -5 16046.0 1143.27   4
   6   2  -2 130840. 2484.80   2
   8  -2  -2 133784. 2467.17   4
   8  -2  -2 141429. 2635.28   1
   2  -8  -2 146525. 2007.20   1
  -2  -6  -2 141696. 2391.61   2
  -2  -6  -2 132877. 2340.21   4
   6   2  -2 136736. 2259.16   4
   6   2  -2 133350. 1856.77   3
   8  -2  -2 133135. 2655.69   2
   2  -8  -2 139962. 2459.03   2
  -6   8  -2 138818. 2376.93   1
  -8   6  -2 136387. 2997.17   3
  -8   6  -2 134655. 2047.12   1
   8  -2  -2 140424. 1765.11   3
  -2  -6  -2 143636. 2845.54   3
   2  -8  -2 135691. 2507.64   4
  -6   8  -2 139234. 1561.47   2
  -6   8  -2 137687. 2891.76   3
  -2  -6  -2 140893. 1429.28   1
  -6   8   1 108287. 1688.66   4
  -6   8   1 102177. 1835.83   1
   2  -8   1 108825. 2103.10   1
   8  -2   1 101599. 2363.46   3
  -8   6   1 106395. 2068.08   3
  -8   6   1 98461.6 1707.35   2
  -6   8   1 101180. 1717.25   2
  -8   6   1 103120. 1989.29   1
   8  -2   1 108248. 1308.73   1
  -8   6   1 106478. 1829.27   4
   6   2   1 106748. 2397.51   3
  -8   6   4 26702.0 1553.64   1
  -6   8   4 24391.7 1417.28   4
   2  -8   4 25377.5 1221.93   2
  -8   6   4 25190.7 853.997   3
  -6   8   4 26291.1 1451.49   1
   6   2   4 24450.6 1521.46   2
  -2  -6   4 25907.9 1237.16   4
  -6   8   4 25808.8 1168.80   3
  -8   6   4 23137.7 1360.54   4
   2  -8   4 26790.2 1301.55   4
   8  -2   4 26209.9 1587.51   3
  -8   6   4 20806.0 1376.28   2
  -2  -6   4 24550.2 1239.38   2
   6   2   4 25939.3 1552.55   4
  -6   8   4 22515.1 1461.33   2
   8  -2   4 24885.9 1469.26   4
   6   2   4 25965.4 1540.69   3
   8  -2   4 22215.5 1391.21   2
  -6   8   7 96808.8 2655.30   3
   2  -8   7 88408.9 2647.38   3
   6   2   7 91266.3 3323.06   3
  -8   6   7 89039.8 1892.65   3
   8  -2   7 88351.6 3310.00   3
  -6   8  10 37364.9 1919.80   3
   6   2  10 35562.5 2452.99   3
   8  -2  10 34576.5 2479.30   3
  -7   8 -12 7137.05 1683.99   2
  -7   8 -12 11949.2 1684.65   1
  -7   8 -12 10281.5 1675.14   4
   8  -1 -12 11808.2 2009.30   4
   1  -8 -12 10879.8 1965.82   4
   1  -8 -12 10502.0 1879.33   2
  -1  -7 -12 8894.63 1826.98   2
   8  -1 -12 10580.9 2070.98   2
   7   1 -12 10760.9 2210.82   2
  -8   7 -12 11957.2 1692.99   1
  -8   7 -12 10784.9 1674.95   4
   7   1 -12 10103.5 1826.92   4
  -8   7 -12 10945.5 1767.83   2
  -1  -7 -12 9794.13 1967.48   4
   1  -8  -9 85657.1 3950.39   4
   7   1  -9 85461.7 3904.20   4
  -7   8  -9 83348.4 3421.64   4
  -1  -7  -9 88101.9 3907.18   4
  -1  -7  -9 82248.0 3717.09   2
   8  -1  -9 86554.3 4233.76   2
  -8   7  -9 86398.3 3410.55   1
  -8   7  -9 86343.9 3457.29   2
   7   1  -9 82470.8 4101.66   2
   1  -8  -9 86763.6 3894.54   2
  -7   8  -9 87119.9 3519.14   1
  -8   7  -9 78756.2 3384.91   4
   8  -1  -9 83718.2 4023.55   4
  -7   8  -9 79196.9 3348.19   2
   8  -1  -6 15882.4 1549.39   4
  -1  -7  -6 18991.2 1568.77   4
   7   1  -6 13865.5 1391.13   4
  -7   8  -6 15030.9 1252.15   1
  -1  -7  -6 16075.3 1420.92   2
  -8   7  -6 17023.2 1273.55   4
   7   1  -6 16244.2 1515.58   2
  -8   7  -6 16221.6 1230.42   1
  -8   7  -6 16421.4 1279.56   2
   8  -1  -6 18124.4 1665.50   2
  -7   8  -6 14324.9 1203.86   2
  -1  -7  -6 16500.2 1053.17   1
  -7   8  -6 14337.1 1189.34   4
   1  -8  -6 15895.1 1090.79   1
   1  -8  -6 15198.0 1408.27   2
   1  -8  -6 15949.4 1473.48   4
  -7   8  -3 162374. 2854.55   1
   8  -1  -3 164306. 3258.25   4
  -7   8  -3 164583. 2310.33   2
  -1  -7  -3 166224. 3173.65   4
   7   1  -3 161814. 3067.29   4
  -8   7  -3 156835. 2382.57   2
  -1  -7  -3 167011. 3247.57   3
  -1  -7  -3 170316. 2032.26   1
  -1  -7  -3 162263. 3019.07   2
  -8   7  -3 159926. 2656.13   1
   1  -8  -3 169311. 2258.78   1
   7   1  -3 155434. 3305.98   2
   1  -8  -3 151094. 3064.98   4
  -8   7  -3 159866. 3489.86   3
   8  -1  -3 161828. 3232.32   1
  -7   8  -3 155828. 3383.33   3
   1  -8  -3 161529. 3099.74   2
   8  -1  -3 154386. 3346.91   2
  -8   7   0 20792.1 1055.31   3
   7   1   0 21728.3 694.406   1
   1  -8   0 21798.9 842.903   1
  -1  -7   0 20646.6 794.979   1
  -8   7   0 20486.1 822.780   1
   8  -1   0 19074.9 994.088   3
  -7   8   0 19735.8 1070.64   3
   7   1   0 19861.7 996.957   3
  -7   8   0 21881.5 851.002   1
   8  -1   0 21623.0 700.961   1
   8  -1   3 40747.4 1582.66   2
  -8   7   3 43569.5 1562.21   4
   1  -8   3 42311.3 1316.56   4
  -7   8   3 42887.7 1580.90   4
  -7   8   3 43142.9 1717.70   2
   7   1   3 40693.6 1821.52   3
  -1  -7   3 39999.0 1248.52   4
   8  -1   3 40052.9 1622.79   4
   1  -8   3 43573.3 1246.75   2
  -7   8   3 40739.6 1645.17   1
   7   1   3 42564.2 1647.35   2
   7   1   3 39878.4 1642.91   4
   8  -1   3 40869.8 1823.88   3
  -1  -7   3 42073.7 1295.44   2
  -8   7   3 42153.2 1723.33   1
  -8   7   3 41268.7 1646.26   2
  -8   7   6 21175.2 996.807   3
   8  -1   6 22249.6 1642.29   3
  -7   8   6 20647.0 1140.95   3
   1  -8   6 16944.2 1358.40   4
  -1  -7   6 19624.5 1421.95   4
   7   1   6 19628.6 1545.54   3
  -8   7   9 21467.4 1159.83   3
  -7   8   9 20816.5 1314.46   3
   7   1   9 17853.0 1708.58   3
   8  -1   9 20243.5 1878.22   3
   8  -1  12 3084.55 1233.19   3
   7   1  12 4119.50 1396.67   3
  -8   8 -10 24888.3 1994.57   4
   8   0 -10 28297.3 2487.29   4
   8   0 -10 24912.4 2572.25   2
  -8   8 -10 29113.8 2190.11   2
   0  -8 -10 28018.3 2400.01   2
  -8   8 -10 30632.0 2236.95   1
   0  -8 -10 31463.2 2536.33   4
  -8   8  -7-32.6440 531.092   1
   8   0  -7-156.726 654.647   4
   8   0  -7 487.854 823.901   2
   0  -8  -7-323.488 637.565   4
  -8   8  -7 26.8885 626.771   2
   0  -8  -7-406.798 633.216   2
  -8   8  -7 258.377 534.454   4
  -8   8  -4 69339.6 1851.24   2
   0  -8  -4 66847.9 2290.97   2
   8   0  -4 71166.7 2584.36   2
  -8   8  -4 68678.7 2088.87   1
   8   0  -4 67493.2 2380.29   1
   8   0  -4 69731.2 2410.88   4
   0  -8  -4 70632.4 2416.84   4
  -8   8  -4 68284.9 2509.52   3
   0  -8  -4 72282.8 1670.25   1
  -8   8  -1 261.540 250.889   1
   8   0  -1 136.938 301.129   2
   8   0  -1 19.5722 225.318   4
   8   0  -1-23.0970 237.647   1
   0  -8  -1-116.368 238.976   4
  -8   8  -1 417.207 478.136   3
   0  -8  -1 148.627 191.090   1
   8   0  -1 28.0664 301.721   3
   8   0   2 281842. 3656.61   2
   8   0   2 271108. 3593.87   4
  -8   8   2 261312. 3588.63   2
  -8   8   2 262022. 3389.29   3
   8   0   2 264500. 4267.90   3
  -8   8   2 260757. 3646.01   1
  -8   8   2 281350. 3448.95   4
   0  -8   2 275480. 2257.65   4
  -8   8   5 111.002 498.469   1
   0  -8   5-276.004 401.086   2
   8   0   5-273.185 615.675   3
  -8   8   5-142.725 315.525   3
   0  -8   5 410.846 390.374   4
  -8   8   8 50050.9 1773.70   3
   8   0   8 48491.1 2684.40   3
   8   0  11-982.884 1033.22   3
  -9   0 -12 7242.80 1234.84   1
   9  -9 -12 11802.6 2145.74   4
  -9   0 -12 8341.06 1610.80   2
  -9   0 -12 11873.3 1773.24   4
   0   9 -12 10836.4 1891.91   1
   0   9 -12 11868.7 1774.44   4
   0   9 -12 7928.44 1605.59   2
   9  -9 -12 7814.28 1875.06   2
  -9   0  -9 1431.34 792.306   2
   0   9  -9 678.369 824.364   4
  -9   0  -9 74.8336 700.163   4
  -9   0  -9 107.476 498.667   1
   9  -9  -9 1645.07 1032.19   2
   0   9  -9 403.151 859.535   2
   9  -9  -9 837.823 951.131   4
   9  -9  -6 20192.5 1792.30   4
   9  -9  -6 22373.5 1891.12   2
  -9   0  -6 20483.6 1103.26   1
  -9   0  -6 18162.1 1427.46   4
   0   9  -6 18485.0 1285.00   3
   0   9  -6 18995.2 1493.80   2
  -9   0  -6 21942.4 1498.98   2
   0   9  -6 18240.2 1352.09   4
   0   9  -3 126.319 366.561   3
   9  -9  -3-604.732 481.198   4
  -9   0  -3 108.409 112.621   1
   0   9  -3 326.196 364.237   2
   9  -9  -3 573.802 466.260   2
  -9   0  -3 683.391 657.588   3
   0   9  -3 94.5146 397.092   1
   9  -9  -3-38.8022 309.378   1
   0   9  -3 95.6181 267.490   4
   9  -9   0 131348. 2147.93   4
   9  -9   0 129661. 2768.78   3
   9  -9   0 127499. 2185.86   1
   0   9   0 132105. 2044.17   1
   9  -9   0 128021. 1768.07   2
  -9   0   0 130914. 2646.40   3
  -9   0   3 679.452 316.959   4
  -9   0   3 402.637 379.048   2
   9  -9   3-84.8334 390.033   1
   0   9   3-7.12129 433.794   3
   0   9   3 123.654 462.691   2
   9  -9   3-442.029 585.464   3
   9  -9   3-208.354 341.045   2
   0   9   3 180.156 269.881   1
   0   9   3-67.7001 408.471   4
   9  -9   3 143.506 315.550   4
   9  -9   6 22182.0 1709.40   3
   0   9   6 24876.6 1687.57   3
   9  -9   9-1.21185 830.789   3
   0   9   9 842.516 783.379   3
   9  -9  12 16409.1 1953.93   3
   0   9  12 17969.3 1955.41   3
  -1   9 -10 18009.8 1825.92   4
   8  -9 -10 12143.6 1820.84   4
   1   8 -10 16361.3 1925.21   2
   9  -8 -10 18772.5 2243.68   2
   1   8 -10 18497.1 1917.16   4
  -8  -1 -10 18883.2 1981.24   4
  -9   1 -10 17742.4 1891.26   4
  -9   1 -10 14799.1 1739.56   2
  -9   1 -10 16194.8 1509.03   1
   9  -8 -10 13646.4 2054.22   4
  -1   9 -10 18236.9 2030.82   2
   8  -9 -10 18510.7 2228.76   2
  -8  -1 -10 15596.4 1711.39   2
  -1   9  -7 97332.5 3231.18   4
   8  -9  -7 102444. 4067.79   4
  -9   1  -7 104752. 2811.91   1
  -8  -1  -7 96969.5 3401.04   4
  -1   9  -7 96871.9 2950.44   3
  -8  -1  -7 96349.1 2738.44   1
  -8  -1  -7 100406. 3304.02   2
   1   8  -7 105171. 2827.93   3
   8  -9  -7 107252. 4088.30   2
   1   8  -7 102931. 3403.30   4
  -9   1  -7 104778. 3482.99   4
   9  -8  -7 98878.5 4021.05   2
  -9   1  -7 102780. 3326.73   2
  -1   9  -7 101455. 3512.39   2
   1   8  -7 101866. 3662.05   2
  -1   9  -4 17335.2 1131.88   2
   1   8  -4 20685.6 1285.77   2
  -8  -1  -4 18236.1 1176.65   2
  -9   1  -4 20798.4 809.669   1
   8  -9  -4 18501.6 1389.37   2
  -8  -1  -4 20467.0 747.213   1
   9  -8  -4 19373.3 1446.04   2
   1   8  -4 20159.0 1106.44   4
   9  -8  -4 18652.7 1421.87   4
  -9   1  -4 18968.9 1373.80   3
   9  -8  -4 18687.5 1164.47   1
   8  -9  -4 19546.9 1149.76   1
   8  -9  -4 20294.5 1439.50   4
  -1   9  -4 19825.1 1331.77   1
  -1   9  -4 19895.9 1060.37   4
  -9   1  -4 21802.5 1223.91   2
   1   8  -4 19811.2 1113.68   3
  -1   9  -4 19004.1 1164.44   3
  -8  -1  -4 19000.5 1386.65   3
  -8  -1  -4 20927.7 1234.64   4
  -9   1  -1 150590. 1654.15   1
   1   8  -1 147647. 2486.35   1
   8  -9  -1 141256. 2340.49   2
   8  -9  -1 146258. 2390.90   4
  -1   9  -1 146955. 2449.37   1
  -9   1  -1 150876. 3072.05   3
  -8  -1  -1 147567. 2992.93   3
   9  -8  -1 148755. 2435.58   2
   9  -8  -1 148162. 2377.90   1
  -1   9  -1 152740. 1656.16   2
   9  -8  -1 150959. 2441.10   4
  -1   9   2 30553.4 1218.55   4
  -8  -1   2 31006.0 988.607   3
   1   8   2 30986.3 1460.13   3
  -9   1   2 29935.3 938.531   3
   9  -8   2 29482.8 1201.47   1
   1   8   2 31197.1 889.698   1
   1   8   2 30019.0 1255.44   4
   8  -9   2 30041.0 1262.56   1
  -1   9   2 31122.1 998.614   1
   1   8   2 28590.8 1274.21   2
   8  -9   2 30901.3 933.094   2
   9  -8   2 29634.8 977.609   2
  -9   1   2 29333.4 1060.34   4
  -1   9   2 30033.1 1302.45   2
  -1   9   2 29996.3 1395.89   3
   9  -8   2 29583.3 1510.77   3
   8  -9   2 30980.8 1524.85   3
  -8  -1   2 28262.9 989.254   4
  -1   9   5 58262.5 2080.45   1
   9  -8   5 64263.3 2612.16   3
   8  -9   5 53593.2 2251.23   4
   8  -9   5 64118.0 2551.84   3
   1   8   5 61690.2 2442.19   3
   8  -9   5 60215.0 2258.27   2
  -1   9   5 59139.2 2347.26   3
   9  -8   5 63305.2 2378.54   2
  -1   9   8 46180.5 2410.97   3
   1   8   8 50277.8 2652.60   3
   9  -8   8 48439.0 2609.33   3
   8  -9   8 46089.5 2507.25   3
   1   8  11 45140.9 2824.79   3
   9  -8  11 32855.1 2508.16   3
   8  -9  11 34166.4 2481.33   3
  -1   9  11 45186.4 2690.66   3
   2   7 -11 26751.5 2412.41   4
  -2   9 -11 25618.4 2383.23   2
  -2   9 -11 26018.0 2263.73   4
  -7  -2 -11 26568.4 2419.48   4
  -9   2 -11 27048.1 2085.75   1
  -2   9 -11 22588.6 2297.69   1
   9  -7 -11 26308.6 2704.26   4
   7  -9 -11 25193.6 2640.04   2
   2   7 -11 23517.0 2494.01   2
  -9   2 -11 25455.3 2246.39   2
   9  -7 -11 26775.1 2784.66   2
  -9   2 -11 28073.3 2402.96   4
   7  -9 -11 23650.2 2578.61   4
  -7  -2 -11 25718.5 2270.01   2
   9  -7  -8 9504.05 1542.53   4
  -2   9  -8 10227.4 1356.99   2
  -7  -2  -8 8949.03 1281.02   2
   2   7  -8 9425.19 1513.57   2
  -9   2  -8 9721.30 1297.31   4
   9  -7  -8 9978.26 1618.52   2
   7  -9  -8 11552.7 1625.86   2
  -9   2  -8 10439.0 1327.93   2
   7  -9  -8 12769.5 1639.14   4
   2   7  -8 9050.08 956.329   3
  -7  -2  -8 12779.3 1439.54   4
   2   7  -8 9683.08 1264.64   4
  -2   9  -8 10499.2 1297.76   4
  -9   2  -8 9863.41 1079.75   1
  -2   9  -8 9927.26 1179.79   3
   7  -9  -5 71823.2 2847.13   4
  -2   9  -5 67678.2 2351.24   2
   7  -9  -5 71785.7 2855.30   2
  -2   9  -5 69190.2 2196.34   4
  -7  -2  -5 66109.3 2334.49   2
   2   7  -5 66815.2 2292.66   4
   2   7  -5 69624.6 2586.25   2
  -7  -2  -5 73451.2 2507.12   4
  -9   2  -5 73865.6 2386.20   2
   2   7  -5 73053.3 1967.78   3
  -9   2  -5 66076.4 2352.15   4
  -7  -2  -5 68630.0 1760.51   1
  -9   2  -5 70347.8 1856.31   1
   9  -7  -5 69155.7 2863.50   2
  -2   9  -5 67934.1 2262.74   3
  -2   9  -5 67052.8 2564.74   1
   9  -7  -2 52887.3 1697.86   4
  -9   2  -2 54488.2 2009.39   3
   2   7  -2 52910.3 1169.69   4
  -2   9  -2 53900.2 918.820   4
   7  -9  -2 51933.0 1711.99   4
   9  -7  -2 55390.1 1603.69   1
   9  -7  -2 51442.9 1761.25   2
  -9   2  -2 51610.6 897.968   1
   7  -9  -2 55416.9 1720.26   2
   2   7  -2 51595.7 1732.11   1
  -7  -2  -2 55469.0 1964.70   3
  -2   9  -2 54571.9 1714.01   1
   7  -9  -2 51661.7 1442.49   1
   2   7  -2 51759.9 1417.16   2
  -2   9  -2 56055.2 1269.29   2
  -9   2   1 74368.5 1723.47   3
   9  -7   1 74198.5 1576.93   1
   7  -9   1 71704.9 2095.24   3
   2   7   1 76131.3 1557.19   4
   7  -9   1 75417.0 1764.32   1
  -9   2   1 75021.1 1823.53   1
   9  -7   1 73867.5 2188.68   3
   2   7   1 74596.0 1661.29   2
  -2   9   1 74830.0 1633.54   2
   2   7   1 77092.6 1174.75   1
  -2   9   1 75045.3 1475.51   1
   2   7   1 76041.2 2117.41   3
  -7  -2   1 74096.4 1672.83   3
  -2   9   1 75139.5 1425.27   4
   9  -7   4 2534.29 607.449   4
   7  -9   4 4115.16 759.486   3
   9  -7   4 4429.94 675.749   2
  -2   9   4 4418.63 837.053   2
   2   7   4 3961.90 748.927   2
   7  -9   4 4061.98 654.089   4
  -2   9   4 2800.82 488.099   1
  -2   9   4 3079.19 709.584   4
  -7  -2   4 4109.40 657.029   2
   7  -9   4 4346.98 610.213   2
  -7  -2   4 3825.01 548.860   4
   2   7   4 4061.44 782.213   4
  -2   9   4 3315.08 633.141   3
   9  -7   4 2082.54 688.645   3
  -9   2   4 3965.09 685.171   2
  -9   2   4 2639.75 521.187   4
   2   7   4 4803.47 802.757   3
   7  -9   7 16615.5 1505.65   3
  -2   9   7 17788.5 1472.51   3
   2   7   7 16829.2 1485.71   3
   9  -7   7 14538.0 1470.80   3
   9  -7  10 7288.05 1340.11   3
   2   7  10 6989.84 1306.61   3
  -2   9  10 6089.45 1151.66   3
   7  -9  10 5895.55 1204.66   3
  -6  -3 -12 23559.9 2425.53   4
   9  -6 -12 21894.3 2707.65   4
   9  -6 -12 18151.4 2641.03   2
  -3   9 -12 19343.0 2227.03   1
  -9   3 -12 21049.5 2006.93   1
   6  -9 -12 19113.5 2500.34   4
   3   6 -12 16911.6 2047.01   4
  -9   3 -12 21325.4 2229.65   4
   3   6 -12 22927.6 2614.45   2
  -3   9 -12 23206.8 2447.68   2
  -3   9 -12 21152.7 2206.43   4
   6  -9 -12 25246.1 2769.50   2
  -6  -3 -12 19065.5 2286.56   2
  -9   3 -12 19208.5 2082.46   2
  -3   9  -9 1251.60 663.381   4
  -9   3  -9 2067.76 670.978   1
  -9   3  -9 1935.50 884.285   4
   3   6  -9 1441.48 872.090   4
  -6  -3  -9 1160.17 899.586   2
  -9   3  -9 1780.23 832.355   2
   3   6  -9 2079.56 1066.56   2
  -6  -3  -9 483.270 738.773   4
  -3   9  -9 1919.86 958.833   2
   9  -6  -9 1441.80 1085.66   2
   6  -9  -9 927.357 909.235   2
   9  -6  -9 1909.71 1202.71   4
   6  -9  -9 2853.64 1161.34   4
  -3   9  -9 2866.03 1000.56   1
   6  -9  -6 67225.5 2949.26   2
  -9   3  -6 71618.3 2622.50   4
   9  -6  -6 70024.2 3172.40   2
   9  -6  -6 69995.6 3100.20   4
  -3   9  -6 70273.2 2603.92   2
   3   6  -6 69464.7 2893.06   2
   6  -9  -6 72697.4 3106.26   4
  -6  -3  -6 71722.2 2079.86   1
  -3   9  -6 69074.4 2757.56   1
  -6  -3  -6 74384.1 2689.80   2
  -6  -3  -6 73220.1 2768.63   4
  -3   9  -6 69644.7 2467.54   4
   3   6  -6 67743.4 2614.28   4
  -3   9  -6 63769.0 2472.56   3
   3   6  -6 72744.6 1911.47   3
  -9   3  -6 67840.9 2500.81   2
  -9   3  -6 70884.5 2207.29   1
  -3   9  -3 45707.7 1742.13   1
   6  -9  -3 45992.1 1471.90   1
  -3   9  -3 45729.0 1238.54   4
   6  -9  -3 47639.0 1833.01   2
   9  -6  -3 41706.5 1626.28   1
  -6  -3  -3 47212.5 780.183   1
   3   6  -3 43772.8 1620.18   2
   3   6  -3 46217.9 1480.28   4
  -3   9  -3 46052.3 1386.20   2
  -6  -3  -3 45461.2 1847.70   3
   6  -9  -3 47978.2 1866.11   4
   9  -6  -3 41043.9 1745.19   4
  -3   9  -3 47466.4 1754.44   3
   9  -6  -3 47061.8 1954.58   2
  -9   3  -3 49590.0 2019.31   3
  -6  -3  -3 44968.7 1581.77   4
  -6  -3  -3 46342.7 1620.57   2
  -9   3  -3 46112.3 1116.92   1
   6  -9   0 151459. 1498.88   2
   3   6   0 158990. 1582.48   4
   3   6   0 153668. 2705.39   3
   9  -6   0 151682. 2085.74   1
  -6  -3   0 153628. 2635.87   3
  -3   9   0 155591. 1596.61   2
   6  -9   0 149813. 1807.31   4
   6  -9   0 159779. 2316.23   1
   3   6   0 155807. 1963.18   1
  -9   3   0 157487. 2781.04   3
  -9   3   0 149304. 2086.26   1
   9  -6   0 146631. 2763.21   3
  -3   9   0 150541. 2145.28   1
  -3   9   3 2837.76 490.158   1
  -6  -3   3 4205.52 479.415   4
   3   6   3 4163.10 708.044   3
   9  -6   3 3759.94 568.642   2
   6  -9   3 2998.40 602.716   3
   3   6   3 3807.71 389.679   1
  -9   3   3 3555.74 478.089   4
  -9   3   3 2682.18 530.305   2
  -3   9   3 3152.49 539.013   4
  -3   9   3 3304.23 594.612   3
   6  -9   3 3038.67 449.026   2
   9  -6   3 3789.75 561.619   1
  -9   3   3 2477.85 258.128   3
   6  -9   3 3102.90 557.238   1
   3   6   3 3178.24 601.068   4
  -3   9   3 4288.38 708.031   2
   9  -6   3 3681.23 548.877   4
   9  -6   3 4123.64 773.861   3
   3   6   3 2351.76 586.017   2
   6  -9   3 2945.62 471.574   4
  -6  -3   3 3399.03 483.098   2
   9  -6   6 42426.2 2235.64   3
   6  -9   6 42516.2 2045.88   2
  -3   9   6 48026.4 2078.39   3
   3   6   6 48167.9 2284.77   3
   6  -9   6 46767.4 2185.38   3
   3   6   9 1435.36 814.980   3
   9  -6   9 1815.91 879.118   3
   6  -9   9 2924.10 923.298   3
  -3   9   9 2459.49 855.000   3
   9  -6  12 20721.3 2164.21   3
   6  -9  12 17725.0 1836.51   3
  -5  -4 -10 1782.07 944.571   2
   5  -9 -10 3711.61 1221.59   4
  -9   4 -10 1560.16 764.254   1
   4   5 -10 4086.29 1331.35   4
   9  -5 -10 1692.26 1066.69   4
   5  -9 -10 2633.36 1153.87   2
  -5  -4 -10 1431.09 866.057   4
  -4   9 -10 2220.94 858.183   4
   4   5 -10 4615.10 1394.56   2
   9  -5 -10 647.559 1043.45   2
  -9   4 -10 1202.42 826.858   2
  -9   4 -10 3627.19 1074.31   4
  -4   9 -10 1219.61 955.979   2
  -4   9 -10 2289.26 990.331   1
   9  -5  -7 92787.3 3921.07   2
  -9   4  -7 97301.4 2896.71   1
  -4   9  -7 95974.5 3233.70   2
   5  -9  -7 95579.5 3698.42   2
  -4   9  -7 96962.8 3141.72   4
   9  -5  -7 96518.3 3897.37   4
   5  -9  -7 90764.3 3673.36   4
  -5  -4  -7 91295.0 3388.54   4
   4   5  -7 90637.8 3317.84   4
  -4   9  -7 91976.1 3422.21   1
   4   5  -7 83663.1 1921.99   3
  -9   4  -7 90113.7 3100.81   2
  -5  -4  -7 94470.5 3329.15   2
  -9   4  -7 88669.3 3172.65   4
  -5  -4  -7 86767.9 2583.10   1
   4   5  -7 98245.6 3778.99   2
   9  -5  -4-280.273 393.594   1
   5  -9  -4 642.429 490.227   4
  -5  -4  -4 224.403 398.480   2
  -4   9  -4 711.078 331.598   4
   4   5  -4 408.126 464.632   2
   9  -5  -4 324.168 560.226   4
  -4   9  -4 1622.36 519.692   1
   4   5  -4 483.264 241.570   3
  -9   4  -4 440.201 346.077   2
  -5  -4  -4 205.568 500.696   3
   5  -9  -4 491.441 295.544   1
   9  -5  -4 377.173 545.797   2
  -5  -4  -4 567.132 470.263   4
  -5  -4  -4 536.750 214.662   1
   4   5  -4 1678.65 496.660   4
   5  -9  -4 697.645 618.861   2
  -9   4  -4 607.191 281.461   1
  -4   9  -4 212.141 404.966   2
  -4   9  -4 867.780 531.623   3
  -9   4  -4 350.062 534.203   3
   9  -5  -1 108870. 2035.90   4
   4   5  -1 119749. 1459.62   4
   5  -9  -1 118783. 2048.87   4
   4   5  -1 119753. 2183.20   3
  -4   9  -1 116174. 2120.80   1
   5  -9  -1 117704. 1917.96   1
   9  -5  -1 122928. 2079.83   1
   9  -5  -1 116023. 2080.99   2
  -5  -4  -1 119370. 2495.09   3
   9  -5  -1 113088. 2151.01   3
  -9   4  -1 117092. 2637.12   3
  -9   4  -1 117803. 1614.69   1
   5  -9  -1 117342. 1872.22   2
   4   5   2 11680.5 979.047   3
  -9   4   2 10190.8 732.785   2
   9  -5   2 10385.9 630.536   1
  -9   4   2 9475.27 686.078   4
   4   5   2 10667.0 388.500   1
   5  -9   2 10636.6 812.542   1
   4   5   2 11072.9 767.784   4
   9  -5   2 11994.2 1054.15   3
   9  -5   2 11305.3 676.104   2
  -5  -4   2 10814.4 527.107   4
  -9   4   2 9273.90 802.103   1
   4   5   2 10739.8 776.133   2
  -4   9   2 10934.6 740.602   4
  -9   4   2 11129.1 630.880   3
   5  -9   2 11235.2 609.513   4
  -4   9   2 11352.1 829.879   2
  -4   9   2 10086.2 668.904   1
   5  -9   2 10579.6 471.926   2
   9  -5   5 77223.8 2836.07   3
  -5  -4   5 82400.7 2441.55   4
   9  -5   5 82584.9 2813.77   2
   5  -9   5 83897.7 2671.74   4
   5  -9   5 80873.5 2477.81   2
  -4   9   5 83142.5 2488.42   3
   4   5   5 86113.6 2918.60   3
  -4   9   5 80708.9 2643.33   1
   5  -9   5 84680.1 2630.92   3
   5  -9   8 4928.35 953.507   3
  -4   9   8 4354.27 867.094   3
   9  -5   8 4260.87 1002.96   3
   4   5   8 5193.42 1078.74   3
   5  -9  11 23459.2 1937.78   3
   4   5  11 30360.2 2434.07   3
   9  -5  11 24132.3 2220.80   3
  -4   9  11 32366.8 2116.88   3
   9  -4 -11 29612.9 2855.34   4
  -9   5 -11 34249.3 2353.56   1
  -5   9 -11 30820.7 2544.83   1
   4  -9 -11 30704.9 2745.02   2
  -4  -5 -11 27712.0 2528.12   4
   4  -9 -11 31749.6 2924.50   4
  -9   5 -11 26347.1 2246.50   2
   5   4 -11 28357.1 2806.11   2
   5   4 -11 25117.4 2445.88   4
  -5   9 -11 26315.0 2363.56   2
  -9   5 -11 28173.3 2478.78   4
  -5   9 -11 28600.0 2341.41   4
   9  -4 -11 30214.3 2949.89   2
  -4  -5 -11 25900.0 2405.55   2
  -9   5  -8 4626.03 984.613   2
  -4  -5  -8 5271.71 1059.68   4
   5   4  -8 3610.06 395.040   3
   9  -4  -8 4859.56 1201.21   4
  -9   5  -8 5779.43 928.443   1
  -5   9  -8 6461.35 1045.30   4
   5   4  -8 7095.64 1325.91   2
   4  -9  -8 4049.88 1163.35   4
  -5   9  -8 6797.27 1084.21   2
   9  -4  -8 5040.72 1218.65   2
  -5   9  -8 5708.81 1147.86   1
   4  -9  -8 4393.30 1069.70   2
  -9   5  -8 7817.27 1149.60   4
  -4  -5  -8 6234.96 1152.30   2
   5   4  -8 6294.63 1196.70   4
  -9   5  -5 78679.7 2176.82   1
   4  -9  -5 78492.1 2907.40   4
  -5   9  -5 79934.9 2644.70   1
  -4  -5  -5 78522.6 2684.27   4
  -9   5  -5 79414.9 2352.76   2
   9  -4  -5 80609.1 3095.32   2
  -4  -5  -5 83066.9 1892.16   1
  -5   9  -5 77159.7 2355.51   2
   9  -4  -5 75828.0 2868.50   4
   5   4  -5 79390.1 2926.85   2
   4  -9  -5 75584.5 2178.25   1
  -9   5  -5 79955.6 2467.48   4
  -5   9  -5 82532.8 2356.20   4
   5   4  -5 74608.2 2607.56   4
  -4  -5  -5 79104.5 2618.90   2
   4  -9  -5 76838.2 2818.23   2
  -5   9  -5 86056.6 2724.41   3
   5   4  -5 81026.9 1523.37   3
  -5   9  -2 12130.8 510.574   2
   9  -4  -2 13061.0 843.674   4
   4  -9  -2 14293.4 714.585   1
   4  -9  -2 14418.7 893.141   4
   5   4  -2 14019.8 726.649   4
   9  -4  -2 12748.4 911.704   2
  -4  -5  -2 14095.6 1001.63   3
  -4  -5  -2 13728.5 771.696   4
   5   4  -2 14888.3 861.771   2
  -9   5  -2 12823.9 597.961   1
  -5   9  -2 14954.2 1040.70   3
   5   4  -2 14670.2 733.935   3
  -4  -5  -2 14149.3 370.838   1
  -5   9  -2 13649.6 860.877   1
   9  -4  -2 12790.0 638.954   3
   9  -4  -2 13276.2 864.337   1
   4  -9  -2 14049.1 855.753   2
  -9   5   1 114300. 2176.62   3
   9  -4   1 118170. 1658.14   1
  -5   9   1 118726. 1997.12   1
  -9   5   1 114299. 2168.62   1
   4  -9   1 116649. 2239.41   1
   9  -4   1 110492. 2580.99   3
  -5   9   1 116867. 1900.70   2
   5   4   1 115525. 1915.11   4
   5   4   1 115709. 2549.85   3
  -5   9   1 120421. 1768.03   4
  -9   5   4 1134.45 442.449   4
   4  -9   4 1208.48 479.612   3
  -4  -5   4 328.168 328.569   2
  -5   9   4 1081.12 488.945   4
  -9   5   4 185.824 420.217   2
   5   4   4 195.379 535.018   3
   4  -9   4 332.480 331.263   4
  -4  -5   4 226.283 325.328   4
   9  -4   4 646.086 531.752   2
  -5   9   4 582.377 418.794   1
   9  -4   4 1109.84 633.567   3
  -5   9   4-307.061 483.725   2
   5   4   4-280.783 503.871   4
   9  -4   4 85.8402 428.677   4
   4  -9   4 561.478 399.190   2
  -9   5   4 227.238 473.628   1
  -9   5   4 509.368 194.465   3
   5   4   4 460.660 536.205   2
  -5   9   4 474.256 466.895   3
   4  -9   7 97432.4 3011.93   3
  -5   9   7 107768. 3073.13   3
   9  -4   7 96931.7 3507.36   3
   5   4   7 101134. 3529.61   3
   4  -9  10 2950.03 927.012   3
   5   4  10 3762.33 1091.02   3
  -5   9  10 2505.67 761.818   3
   9  -4  10 1804.65 1042.51   3
  -3  -6 -12 25483.3 2528.20   2
  -9   6 -12 30474.5 2576.13   4
  -6   9 -12 30398.2 2652.81   1
   3  -9 -12 28908.7 2900.86   4
   6   3 -12 28855.0 2796.03   4
  -9   6 -12 24213.0 2221.92   1
   9  -3 -12 29210.1 3025.20   4
  -6   9 -12 28112.2 2452.79   4
   9  -3 -12 24633.7 2874.17   2
   6   3 -12 23831.9 2901.65   2
   3  -9 -12 17953.8 2341.61   2
  -6   9 -12 22271.2 2284.57   2
  -3  -6 -12 27623.6 2676.23   4
  -9   6 -12 28309.0 2421.27   2
  -6   9  -9 1586.40 741.249   1
  -6   9  -9 2237.94 906.607   2
  -6   9  -9 2955.43 896.681   4
  -9   6  -9 1683.08 684.706   1
  -3  -6  -9 1204.83 799.179   2
   3  -9  -9 2228.09 1060.44   2
   6   3  -9 2009.52 925.470   4
  -9   6  -9 2086.17 832.386   4
  -3  -6  -9 2508.76 1083.05   4
   3  -9  -9 3261.75 1184.39   4
   9  -3  -9 3236.28 1183.69   4
  -9   6  -9 2030.71 861.832   2
   6   3  -9 2038.32 1110.39   2
   9  -3  -9 2523.49 1133.61   2
   9  -3  -6 52735.3 2640.36   4
  -3  -6  -6 50897.3 1725.38   1
  -3  -6  -6 54686.9 2448.83   2
  -9   6  -6 51081.1 2096.91   2
  -9   6  -6 49749.6 2130.26   4
  -6   9  -6 55391.0 2168.79   4
  -9   6  -6 51613.1 2003.19   1
   6   3  -6 53187.1 2493.62   4
   3  -9  -6 48967.7 2460.57   4
   9  -3  -6 48333.5 2643.07   2
  -3  -6  -6 51348.9 2442.25   4
   3  -9  -6 48889.8 2424.87   2
   6   3  -6 55124.0 2699.76   2
  -6   9  -6 54333.6 2361.30   1
  -6   9  -6 49144.0 2107.37   2
   3  -9  -3 4405.24 457.748   1
  -6   9  -3 4107.47 727.346   3
   3  -9  -3 4140.13 590.961   2
   6   3  -3 3098.35 337.764   3
   3  -9  -3 3337.47 577.162   4
  -3  -6  -3 4002.24 598.974   4
  -3  -6  -3 3300.05 551.376   2
   9  -3  -3 3493.97 568.962   1
   9  -3  -3 3094.52 641.508   2
  -6   9  -3 3729.40 583.266   1
  -9   6  -3 3764.30 678.967   3
   6   3  -3 3383.84 529.866   4
  -6   9  -3 4252.86 428.630   2
   9  -3  -3 3083.29 631.934   4
  -3  -6  -3 3466.44 661.065   3
  -3  -6  -3 4624.78 313.314   1
  -9   6  -3 3748.02 454.574   1
   6   3  -3 4156.29 662.503   2
  -9   6   0 182757. 3063.31   3
   3  -9   0 195782. 2570.71   1
  -9   6   0 188819. 2369.85   1
   3  -9   0 193403. 1768.92   4
  -6   9   0 190731. 3221.47   3
   9  -3   0 187839. 2109.63   1
  -6   9   0 176296. 1375.25   2
   6   3   0 184351. 2965.14   3
   9  -3   0 191401. 3086.84   3
  -6   9   0 192407. 2506.47   1
  -6   9   3 44117.7 1637.69   1
   9  -3   3 45302.9 1615.10   2
   6   3   3 46254.7 1923.76   3
  -3  -6   3 43792.9 1277.52   4
  -3  -6   3 47099.5 1402.00   2
  -9   6   3 45737.7 1591.93   4
  -9   6   3 43874.6 1854.26   1
   3  -9   3 45026.5 1390.90   4
   9  -3   3 42633.9 1666.97   4
   6   3   3 44887.5 1771.87   4
  -9   6   3 45461.8 1703.27   2
  -9   6   3 44057.3 1175.32   3
   3  -9   3 46488.4 1294.11   2
   9  -3   3 46182.6 1975.93   3
  -6   9   3 44118.5 1759.05   2
  -6   9   3 47387.8 1714.44   4
   6   3   3 47028.2 1780.65   2
   6   3   6 72436.0 2883.40   3
  -9   6   6 64154.0 1377.83   3
   3  -9   6 67248.3 2474.67   2
   3  -9   6 75598.2 2425.85   3
  -6   9   6 75705.8 2346.33   3
   9  -3   6 68282.5 2798.39   3
   6   3   9 1476.13 893.427   3
   3  -9   9 1079.22 598.169   3
   9  -3   9 1953.64 894.761   3
  -6   9   9 2926.13 759.553   3
  -9   6   9 692.747 271.064   3
   6   3  12 19807.1 2181.17   3
   9  -3  12 16744.1 2016.97   3
  -2  -7 -10 5395.25 1304.50   2
  -9   7 -10 6779.60 1264.29   2
   9  -2 -10 6068.16 1643.55   2
  -2  -7 -10 6153.77 1277.42   4
  -7   9 -10 7624.55 1280.15   4
   7   2 -10 7728.65 1571.38   2
  -9   7 -10 5933.78 1058.56   1
  -9   7 -10 4355.90 1107.79   4
   2  -9 -10 5981.09 1443.36   2
   2  -9 -10 5852.98 1335.39   4
   7   2 -10 4634.18 1227.41   4
   9  -2 -10 5502.31 1392.92   4
  -7   9 -10 5544.36 1129.31   1
  -7   9 -10 5595.10 1161.07   2
  -7   9  -7 17301.9 1391.82   4
   2  -9  -7 13721.0 1499.63   2
  -9   7  -7 12393.8 1211.73   2
   7   2  -7 14153.8 1687.28   2
  -7   9  -7 14834.7 1298.17   2
   9  -2  -7 14813.2 1603.01   4
   2  -9  -7 12625.4 1493.03   4
   9  -2  -7 17013.6 1826.51   2
  -2  -7  -7 16396.0 1143.66   1
  -2  -7  -7 14583.9 1531.97   2
  -2  -7  -7 14933.2 1533.27   4
  -9   7  -7 15634.2 1361.12   4
  -9   7  -7 15312.9 1278.14   1
   7   2  -7 14008.0 1490.31   4
  -7   9  -7 15576.4 1382.87   1
  -9   7  -4 3455.34 529.409   1
  -9   7  -4 3424.45 552.962   2
   7   2  -4 2755.36 692.440   2
  -2  -7  -4 2955.33 640.951   4
  -2  -7  -4 3563.97 626.593   3
   9  -2  -4 1846.63 620.392   4
   9  -2  -4 2234.87 646.805   2
  -9   7  -4 3466.54 798.170   3
   7   2  -4 3456.47 644.539   4
   9  -2  -4 2039.62 556.311   1
   2  -9  -4 2875.15 658.117   4
   2  -9  -4 3354.10 445.820   1
  -2  -7  -4 4576.43 697.591   2
  -7   9  -4 2305.74 476.874   2
   2  -9  -4 2676.68 653.484   2
  -2  -7  -4 3349.14 383.094   1
  -7   9  -4 2999.59 474.370   4
  -7   9  -4 2731.40 542.188   1
  -7   9  -4 3000.21 640.772   3
  -2  -7  -1 68010.7 1274.60   4
   9  -2  -1 64355.7 1698.66   2
  -9   7  -1 63489.6 2023.00   3
   7   2  -1 66878.6 1631.93   3
   2  -9  -1 68265.5 1431.59   4
   2  -9  -1 65934.5 1378.41   1
  -2  -7  -1 68501.8 1203.44   1
   7   2  -1 65702.8 1418.85   4
   2  -9  -1 70833.0 1350.52   2
  -7   9  -1 59006.5 1939.38   3
  -7   9  -1 66396.6 1559.41   1
   9  -2  -1 67488.0 1648.65   3
  -9   7  -1 63806.8 1407.86   1
   9  -2  -1 65031.4 1598.76   4
   9  -2  -1 68529.2 1617.91   1
  -2  -7   2 57744.5 995.374   4
   7   2   2 55131.2 1682.66   2
   9  -2   2 51515.9 1929.24   3
   9  -2   2 53146.2 1065.54   1
  -9   7   2 53954.4 1503.24   3
   7   2   2 53625.4 1624.76   4
  -9   7   2 52200.2 1709.18   1
  -7   9   2 51758.5 1584.31   1
  -9   7   2 53650.2 1499.72   4
   2  -9   2 55266.7 1137.31   4
  -7   9   2 53828.8 1522.68   4
   2  -9   2 54617.2 969.431   2
  -7   9   2 50338.3 1608.25   2
   2  -9   2 54552.9 1839.13   1
  -9   7   2 52358.9 1554.34   2
   9  -2   2 55300.9 1581.09   2
   7   2   2 52993.5 1940.42   3
   2  -9   5 73623.2 2394.31   4
  -2  -7   5 70602.8 2253.81   4
   2  -9   5 73081.4 2287.09   2
  -9   7   5 74788.8 1588.30   3
  -7   9   5 76622.9 2076.98   3
  -2  -7   5 75798.6 2340.48   2
   7   2   5 74417.6 2779.37   3
   9  -2   5 71802.0 2771.30   3
  -9   7   5 72909.6 2795.25   1
  -7   9   5 74773.9 2703.22   1
  -9   7   8 8831.19 682.285   3
   7   2   8 9436.58 1332.53   3
  -7   9   8 8560.98 922.929   3
   9  -2   8 11929.2 1460.54   3
   9  -2  11 19266.4 2015.47   3
   7   2  11 26189.2 2305.73   3
  -1  -8 -11 35323.2 2840.03   4
   8   1 -11 37570.5 3220.18   2
   1  -9 -11 30791.6 2708.31   2
   1  -9 -11 43331.2 3231.07   4
  -8   9 -11 36413.8 2568.77   4
  -8   9 -11 42172.1 2769.49   2
   9  -1 -11 40248.7 3187.95   4
  -8   9 -11 38911.3 2680.03   1
   8   1 -11 40395.7 3092.48   4
   9  -1 -11 36796.9 3221.13   2
  -1  -8 -11 33296.9 2858.21   2
  -9   8 -11 34679.4 2576.03   4
  -9   8 -11 37446.1 2547.22   1
  -9   8 -11 36241.7 2504.78   2
  -9   8  -8 40529.4 2300.49   4
   8   1  -8 44373.5 2710.54   4
  -8   9  -8 41605.4 2237.85   4
   1  -9  -8 41997.4 2571.17   2
   8   1  -8 41112.4 2820.99   2
   9  -1  -8 41770.9 2870.94   2
   9  -1  -8 39170.0 2671.96   4
  -8   9  -8 45345.0 2392.70   1
  -9   8  -8 37220.5 2151.53   2
  -9   8  -8 37658.0 2137.71   1
  -1  -8  -8 40994.9 2577.23   4
  -1  -8  -8 44832.9 2625.01   2
   1  -9  -8 42617.3 2672.28   4
  -8   9  -8 44190.2 2306.11   2
  -1  -8  -5 55573.5 2239.03   3
  -9   8  -5 58258.4 2046.16   1
  -1  -8  -5 56724.1 2398.81   4
   9  -1  -5 61268.1 2529.22   4
  -8   9  -5 58173.6 1973.35   4
  -9   8  -5 56446.4 1902.45   2
   8   1  -5 58580.2 2414.05   4
   1  -9  -5 62425.8 2563.38   4
   1  -9  -5 57625.0 1729.02   1
   1  -9  -5 56902.8 2383.23   2
   8   1  -5 59091.5 2591.60   2
  -1  -8  -5 56832.0 1616.89   1
  -9   8  -5 56474.7 1992.08   4
  -1  -8  -5 62872.3 2444.13   2
  -8   9  -5 58457.5 1954.66   2
  -8   9  -5 56676.4 2084.35   1
   9  -1  -5 59264.1 2646.36   2
  -1  -8  -2 27950.5 775.055   1
   9  -1  -2 25708.5 1254.82   2
  -8   9  -2 27667.3 1441.92   3
   9  -1  -2 27294.5 944.156   3
   1  -9  -2 25493.3 1113.69   4
   8   1  -2 27117.4 938.299   3
  -1  -8  -2 27842.7 1128.85   4
   9  -1  -2 26534.2 1178.65   4
   8   1  -2 25188.4 1203.30   1
  -1  -8  -2 27567.3 1096.81   2
   9  -1  -2 26013.3 1224.89   1
  -8   9  -2 26770.4 1098.94   1
   1  -9  -2 27803.3 1125.22   2
   8   1  -2 26822.7 1096.84   4
  -9   8  -2 28437.8 1054.10   1
  -9   8  -2 28204.0 1468.17   3
   8   1  -2 28462.4 1271.80   2
   1  -9  -2 27652.2 870.509   1
  -8   9   1 163689. 2187.82   2
  -9   8   1 155754. 2831.80   3
   1  -9   1 168738. 2845.67   1
   8   1   1 163525. 3173.53   3
   8   1   1 155492. 1183.16   1
   9  -1   1 155227. 3100.79   3
  -9   8   1 154302. 2174.03   2
  -9   8   1 159047. 2568.40   1
  -8   9   1 155123. 2486.18   1
   9  -1   1 162957. 1535.07   1
  -8   9   1 158564. 2942.89   3
  -8   9   1 163341. 2273.27   4
  -8   9   4 22821.7 1368.82   4
   1  -9   4 22071.1 1144.21   4
  -1  -8   4 20577.5 1080.46   4
   8   1   4 21464.7 1429.63   4
  -1  -8   4 22118.3 1125.91   2
  -9   8   4 24362.3 1512.18   1
  -9   8   4 21261.2 1388.41   2
  -8   9   4 19891.2 1363.81   2
   9  -1   4 19944.6 1460.07   3
   9  -1   4 23580.4 1489.18   4
   8   1   4 19585.7 1374.24   2
   1  -9   4 24507.9 1165.49   2
   9  -1   4 23806.0 1458.26   2
  -8   9   4 23666.7 1452.97   1
  -9   8   4 19593.0 1249.00   4
   8   1   4 21906.6 1510.70   3
  -9   8   7 108698. 2328.67   3
   8   1   7 95600.9 3506.79   3
   9  -1   7 98422.9 3615.53   3
  -8   9   7 106035. 2681.30   3
   8   1  10 16437.1 1888.73   3
  -8   9  10 16628.5 1243.41   3
   9  -1  10 16485.2 1850.61   3
  -9   9 -12 23227.2 2243.86   1
   9   0 -12 17214.6 2654.75   2
   0  -9 -12 22087.0 2562.69   4
   0  -9 -12 16218.4 2172.88   2
  -9   9 -12 19516.1 2061.08   4
   9   0 -12 17013.4 2293.71   4
  -9   9 -12 19150.9 2067.09   2
  -9   9  -9 236.598 738.842   1
   0  -9  -9-1006.86 1018.69   2
   9   0  -9-19.5127 877.629   4
  -9   9  -9 362.793 706.210   2
  -9   9  -9-354.568 623.745   4
   9   0  -9 833.108 1003.76   2
   0  -9  -9 487.715 823.524   4
   0  -9  -6 29804.6 1909.16   2
  -9   9  -6 23404.1 1519.87   4
   9   0  -6 26203.0 1840.38   4
   0  -9  -6 25384.9 1288.51   1
   9   0  -6 26741.9 1995.02   2
   0  -9  -6 26733.5 1867.24   4
  -9   9  -6 24700.9 1538.00   1
  -9   9  -6 23633.0 1427.52   2
   0  -9  -3 83.1025 379.609   4
   9   0  -3-78.9900 358.365   1
   9   0  -3-283.760 382.725   4
  -9   9  -3 262.607 534.525   3
   9   0  -3 155.630 500.357   2
   9   0  -3-41.7011 177.728   3
  -9   9  -3-32.5443 329.437   1
   0  -9  -3 28.0119 405.829   2
   0  -9  -3-84.1354 187.846   1
   0  -9   0 147615. 2356.39   1
  -9   9   0 148164. 3016.35   3
   9   0   0 151305. 1963.89   1
   9   0   0 144363. 2801.37   3
  -9   9   0 152758. 2391.93   1
  -9   9   3 11.1085 389.324   2
  -9   9   3 191.508 288.469   4
   0  -9   3 234.152 253.987   4
   9   0   3 638.101 398.385   2
   9   0   3-101.040 367.223   4
   9   0   3 224.795 519.176   3
  -9   9   3-204.898 440.511   1
   0  -9   3 23.9298 249.610   2
  -9   9   6 28324.5 1265.71   3
   0  -9   6 23770.2 1509.44   4
   9   0   6 27973.8 1903.63   3
  -9   9   9 761.501 494.304   3
   9   0   9 449.159 854.653   3
   9   0  12 5351.20 1514.39   3
   0  10 -10 70528.9 3668.97   2
 -10   0 -10 64737.6 3257.67   2
 -10   0 -10 63726.8 2733.39   1
   0  10 -10 69374.0 3795.96   1
  10 -10 -10 62763.3 3894.86   4
   0  10 -10 66713.8 3336.79   4
 -10   0 -10 63080.0 3354.09   4
  10 -10 -10 64600.4 3926.07   2
  10 -10  -7 309.979 901.009   2
 -10   0  -7-139.618 376.361   1
   0  10  -7 864.347 753.053   2
   0  10  -7 610.452 620.094   3
  10 -10  -7-792.939 965.262   4
   0  10  -7 184.058 559.797   4
 -10   0  -7-373.068 589.042   4
 -10   0  -7 1022.03 624.398   2
   0  10  -4 248146. 4079.91   3
   0  10  -4 238767. 4627.04   1
  10 -10  -4 246183. 4975.06   2
   0  10  -4 245729. 4178.13   2
 -10   0  -4 248423. 2279.86   1
  10 -10  -4 248949. 4968.06   4
   0  10  -4 248836. 3524.28   4
  10 -10  -1-193.827 281.232   4
   0  10  -1-73.3151 271.960   1
 -10   0  -1-57.2537 170.562   1
  10 -10  -1 125.819 259.417   1
 -10   0  -1-437.096 430.354   3
  10 -10  -1 232.779 306.287   2
  10 -10   2 159538. 2955.92   1
   0  10   2 160126. 2855.87   4
   0  10   2 155537. 2208.05   1
 -10   0   2 161099. 2421.23   3
   0  10   2 158866. 3422.54   3
  10 -10   2 161041. 2140.05   2
  10 -10   2 163461. 3680.30   3
   0  10   2 159809. 3028.48   2
   0  10   5 470.841 544.518   3
  10 -10   5-640.883 686.572   3
  10 -10   5 144.391 507.217   2
   0  10   5 348.185 388.877   1
   0  10   8 121673. 4064.02   3
  10 -10   8 114265. 4067.04   3
  10 -10  11 277.943 957.560   3
   0  10  11-232.161 944.470   3
  -9  -1 -11 12838.7 1735.31   2
 -10   1 -11 13782.6 1707.10   2
  10  -9 -11 18501.8 2398.43   4
  10  -9 -11 13190.9 2165.61   2
  -9  -1 -11 14038.4 1820.24   4
 -10   1 -11 15028.1 1519.17   1
   1   9 -11 14274.5 1832.23   4
  -1  10 -11 16934.4 1917.94   4
  -1  10 -11 16005.6 1986.94   1
   9 -10 -11 18208.9 2351.22   4
   9 -10 -11 11568.2 1974.04   2
   1   9 -11 15984.4 2166.63   2
  -1  10 -11 15468.5 2001.84   2
  -9  -1 -11 14196.8 1503.07   1
 -10   1 -11 14572.3 1816.25   4
  -9  -1  -8 2627.32 885.750   2
  10  -9  -8 1858.57 1017.94   2
  10  -9  -8 3737.34 1172.43   4
   1   9  -8 1315.08 863.399   2
 -10   1  -8 2009.53 818.055   2
  -9  -1  -8 2854.57 640.436   1
   1   9  -8 1864.17 764.672   4
  -1  10  -8 3106.31 869.704   4
  -1  10  -8 3396.22 909.441   1
   1   9  -8 1868.12 725.560   3
  -9  -1  -8 2326.85 829.715   4
   9 -10  -8 1242.18 873.858   4
 -10   1  -8 1983.89 753.627   4
 -10   1  -8 3051.56 672.563   1
  -1  10  -8 1989.22 809.146   3
   9 -10  -8 1524.55 953.061   2
  -1  10  -8 3626.00 1049.36   2
 -10   1  -5 32301.7 1627.20   2
  -9  -1  -5 28509.8 1575.44   2
   1   9  -5 30541.4 1451.19   3
 -10   1  -5 31498.4 1117.71   1
   9 -10  -5 31560.8 2012.04   4
  10  -9  -5 32390.3 2061.46   2
  -9  -1  -5 31977.4 1090.80   1
  -1  10  -5 25909.9 1726.93   1
  -1  10  -5 29236.5 1436.37   4
   9 -10  -5 31126.3 1999.39   2
  -9  -1  -5 30552.1 1668.99   4
  -1  10  -5 34250.1 1731.12   2
  10  -9  -5 29937.5 1968.42   4
  -1  10  -5 32224.7 1583.18   3
   1   9  -5 32938.2 1599.43   4
   1   9  -5 30812.0 1742.28   2
 -10   1  -5 29161.8 1621.97   4
   9 -10  -2 23912.1 1235.70   2
   9 -10  -2 23346.0 1063.68   1
   1   9  -2 23635.4 965.218   2
   1   9  -2 22115.8 1178.98   1
  10  -9  -2 22533.8 1226.31   2
 -10   1  -2 25734.2 600.171   1
  -1  10  -2 22155.8 531.728   4
 -10   1  -2 24599.1 1480.76   3
  -1  10  -2 24555.6 900.896   2
  10  -9  -2 22012.0 1176.25   4
  -9  -1  -2 24374.9 1402.21   3
  -1  10  -2 24280.4 1203.42   1
  10  -9  -2 23507.5 1099.12   1
   9 -10  -2 22132.1 1199.39   4
   1   9  -2 22962.7 680.000   4
   9 -10   1 1777.97 571.491   3
  -1  10   1 2319.94 336.269   4
   1   9   1 1823.83 331.389   4
   9 -10   1 1469.33 359.962   1
  -1  10   1 1967.06 319.843   1
  10  -9   1 1654.60 358.055   1
  -1  10   1 1339.08 341.250   2
   1   9   1 1254.04 507.681   3
   1   9   1 2310.70 306.572   1
   1   9   1 1349.29 301.975   2
  -9  -1   1 1923.10 391.327   3
  10  -9   1 1800.42 586.649   3
 -10   1   1 1732.02 412.174   3
   9 -10   4 21682.7 1554.56   3
 -10   1   4 23969.5 1247.81   4
  10  -9   4 24394.3 1353.26   2
  -1  10   4 22875.7 1416.87   3
   1   9   4 21275.8 1516.43   2
   1   9   4 23058.7 1534.75   3
   9 -10   4 20300.2 1267.58   4
   1   9   4 23243.9 1118.89   1
   9 -10   4 24145.9 1293.15   2
  10  -9   4 23879.4 1389.60   4
   1   9   4 24070.8 1515.48   4
  -1  10   4 22045.1 1437.08   4
  -1  10   4 24332.9 1228.00   1
  10  -9   4 25054.1 1682.41   3
  -9  -1   4 23992.9 1203.82   4
  -1  10   4 22023.8 1557.79   2
   9 -10   7 9883.89 1260.07   3
  -1  10   7 9085.35 1210.04   3
   1   9   7 8616.36 1235.87   3
  10  -9   7 8556.18 1243.63   3
   9 -10  10 5948.64 1266.66   3
  10  -9  10 6031.85 1314.59   3
  -1  10  10 7687.86 1350.86   3
   1   9  10 7781.83 1322.73   3
  -2  10 -12 2705.21 1142.15   4
  -2  10 -12 5055.57 1592.87   2
 -10   2 -12 4138.36 1261.74   2
  10  -8 -12 5881.57 1663.66   4
   2   8 -12 3291.73 1125.10   4
  -2  10 -12 3165.02 1253.26   1
   2   8 -12 3044.07 1437.97   2
 -10   2 -12 2901.53 1011.63   1
 -10   2 -12 4880.68 1327.57   4
  -8  -2 -12 5029.72 1461.88   4
   8 -10 -12 4395.57 1477.65   4
  -8  -2 -12 3738.88 1244.83   2
   8 -10 -12 3242.09 1459.12   2
  10  -8 -12 2028.49 1512.72   2
  -8  -2 -12 3443.13 1039.42   1
  -2  10  -9 19826.3 1954.53   1
   2   8  -9 18473.7 1802.71   4
   8 -10  -9 16856.3 2053.66   2
  -8  -2  -9 18495.6 1780.99   2
  10  -8  -9 14678.8 1996.89   4
  10  -8  -9 18072.7 2038.67   2
   8 -10  -9 16243.9 1928.13   4
  -8  -2  -9 17285.7 1775.40   4
   2   8  -9 15310.5 1835.71   2
 -10   2  -9 15893.2 1343.34   1
 -10   2  -9 15332.8 1646.38   4
  -2  10  -9 17194.1 1754.25   2
 -10   2  -9 18671.2 1684.11   2
  -2  10  -9 17613.2 1697.77   4
  -2  10  -6 41328.2 1909.23   3
 -10   2  -6 44589.7 2032.63   2
  -2  10  -6 39419.9 2196.44   1
   8 -10  -6 42321.8 2478.01   2
  10  -8  -6 44785.5 2602.67   2
  -8  -2  -6 42383.0 2078.14   2
  10  -8  -6 39487.6 2374.36   4
   2   8  -6 40383.3 1974.82   4
  -2  10  -6 42995.1 2095.38   2
  -2  10  -6 42283.7 1926.60   4
   2   8  -6 42884.2 2284.14   2
 -10   2  -6 43545.4 1597.11   1
  -8  -2  -6 44281.3 1582.93   1
   8 -10  -6 45058.4 2550.15   4
  -8  -2  -6 45373.9 2190.76   4
 -10   2  -6 42992.9 2076.41   4
   2   8  -6 41253.1 1692.71   3
  -2  10  -3 72459.1 2211.28   3
   2   8  -3 66341.5 1974.98   2
 -10   2  -3 68756.2 1175.28   1
  -8  -2  -3 71447.9 2487.29   3
  -2  10  -3 66061.0 2163.13   1
  -2  10  -3 69802.9 1460.54   4
  10  -8  -3 69018.2 2334.14   4
  10  -8  -3 65927.2 2004.30   1
   8 -10  -3 67086.7 2258.22   2
 -10   2  -3 70499.5 2525.72   3
   2   8  -3 69039.7 1697.88   4
   8 -10  -3 67609.2 2330.19   4
  -2  10  -3 68976.2 1773.32   2
  10  -8  -3 67900.8 2360.61   2
   8 -10  -3 69385.6 1908.48   1
  10  -8   0 59001.4 1309.82   2
  -8  -2   0 60422.1 1813.84   3
 -10   2   0 60004.1 1433.95   1
  10  -8   0 61060.9 1953.03   3
  10  -8   0 54487.5 1433.52   1
   8 -10   0 61777.2 1180.42   2
   2   8   0 58846.9 1796.42   3
 -10   2   0 64215.6 1954.37   3
   8 -10   0 57959.3 1522.08   1
  -2  10   0 60616.2 712.673   4
   8 -10   0 59245.2 1322.24   4
  -2  10   0 62550.9 1143.15   2
   2   8   0 62158.6 1036.52   4
  -2  10   0 61456.5 1458.65   1
   2   8   0 59080.1 1320.86   1
   2   8   3 80544.8 1650.43   1
  -8  -2   3 83262.2 2091.78   2
   8 -10   3 77384.9 2331.70   1
   2   8   3 87955.5 2505.73   4
   8 -10   3 86915.4 2706.38   3
  -8  -2   3 77015.6 1788.05   4
  -2  10   3 76347.0 2398.14   3
   8 -10   3 79225.5 2041.21   4
 -10   2   3 77029.0 1263.64   3
   2   8   3 82310.7 2572.25   3
  10  -8   3 82194.5 2037.58   2
 -10   2   3 77369.1 1958.71   4
  10  -8   3 76787.1 2172.97   4
   2   8   3 74045.0 2387.19   2
  10  -8   3 85286.8 2799.98   3
   8 -10   3 82469.3 1857.44   2
 -10   2   3 84108.6 2198.44   2
  -2  10   3 80218.0 2497.40   2
  -2  10   3 81918.9 1957.72   1
  -2  10   3 83648.9 2334.65   4
  10  -8   3 77534.9 2129.64   1
   8 -10   6 4641.57 934.096   3
  -2  10   6 5940.74 927.948   3
  10  -8   6 5097.75 1003.83   3
   8 -10   6 2845.95 785.112   2
   2   8   6 5605.38 986.953   3
   2   8   9 48886.0 2767.66   3
  -2  10   9 47707.0 2603.33   3
   8 -10   9 39654.9 2464.29   3
  10  -8   9 42655.1 2647.03   3
   8 -10  12 4783.48 1350.94   3
  10  -8  12 1673.03 1084.93   3
   2   8  12 3213.70 1200.48   3
  -3  10 -10 53797.4 2935.37   4
  10  -7 -10 45647.1 3465.17   2
   7 -10 -10 48094.2 3393.47   4
   7 -10 -10 50190.2 3342.19   2
 -10   3 -10 47337.3 2474.46   1
 -10   3 -10 49546.8 2832.25   2
   3   7 -10 48533.2 3233.75   2
  -7  -3 -10 48007.6 2977.56   4
  -3  10 -10 46122.1 2918.10   2
  -3  10 -10 49969.1 3093.72   1
   3   7 -10 48324.8 2959.36   4
  10  -7 -10 49339.1 3473.19   4
  -7  -3 -10 44644.2 2859.87   2
 -10   3 -10 46729.7 2873.94   4
  10  -7  -7 712.387 823.828   4
   3   7  -7 330.026 643.123   2
  10  -7  -7 179.643 977.112   2
  -7  -3  -7 1277.72 697.096   2
 -10   3  -7 120.962 396.653   1
 -10   3  -7-235.295 560.785   4
   7 -10  -7 781.830 660.694   4
   3   7  -7-286.542 594.330   4
  -7  -3  -7 365.081 432.954   1
   7 -10  -7 574.196 818.181   2
  -3  10  -7 111.932 486.870   4
  -3  10  -7 972.449 631.592   2
  -3  10  -7 121.849 704.466   1
  -3  10  -7-366.693 698.337   3
 -10   3  -7 149.840 544.626   2
   3   7  -7-270.180 447.699   3
  -7  -3  -7-95.6803 643.061   4
   3   7  -4 192570. 3904.57   2
   7 -10  -4 188679. 4188.51   4
  -3  10  -4 185174. 2962.65   4
 -10   3  -4 189515. 4367.70   3
   3   7  -4 196040. 3034.23   3
 -10   3  -4 184015. 2536.21   1
   3   7  -4 185605. 3396.28   4
  10  -7  -4 195007. 4399.01   2
  -3  10  -4 186313. 3889.52   1
   7 -10  -4 184521. 3307.61   1
  -3  10  -4 185530. 3739.60   3
  -3  10  -4 189099. 3324.00   2
  10  -7  -4 169020. 4057.35   4
  -7  -3  -4 187074. 4151.61   3
  -7  -3  -4 183108. 3585.56   4
  -7  -3  -4 192186. 3611.05   2
  -7  -3  -4 194436. 2154.31   1
   7 -10  -4 187026. 4124.53   2
  -3  10  -1 49182.9 1473.87   1
   7 -10  -1 48812.9 1382.78   4
  10  -7  -1 49284.8 1583.02   3
  -3  10  -1 48893.4 752.526   2
  10  -7  -1 46981.6 1347.74   1
  -7  -3  -1 48491.6 1719.34   3
   3   7  -1 52855.8 867.246   4
   3   7  -1 47385.9 1456.35   1
 -10   3  -1 51564.5 1086.37   1
   7 -10  -1 50536.7 1347.59   2
 -10   3  -1 47465.2 1814.02   3
  10  -7  -1 47301.7 1458.16   4
   7 -10  -1 49004.2 1357.77   1
  10  -7  -1 48691.6 1427.80   2
  -3  10   2 133405. 2712.78   2
   7 -10   2 138001. 3084.21   3
   3   7   2 136185. 3086.07   3
   3   7   2 135329. 2631.66   4
   3   7   2 132017. 2638.10   2
   7 -10   2 132249. 2727.97   1
 -10   3   2 134341. 2135.21   3
   7 -10   2 130226. 2082.10   4
  -7  -3   2 134402. 2012.62   4
   3   7   2 139120. 1595.24   1
 -10   3   2 127517. 2441.03   2
   7 -10   2 138305. 1684.88   2
  10  -7   2 141875. 2437.39   1
  10  -7   2 134548. 2190.96   2
 -10   3   2 139786. 2386.59   4
  -3  10   2 135609. 2268.02   1
  -3  10   2 138823. 2562.25   4
 -10   3   2 133004. 2875.71   1
  10  -7   2 139040. 3301.71   3
   7 -10   5 9428.89 1117.77   3
  -3  10   5 8339.36 905.921   1
  -3  10   5 8607.06 991.533   3
   3   7   5 10585.6 1216.87   3
  10  -7   5 7440.43 929.296   2
   7 -10   5 8761.32 962.510   4
   7 -10   5 8720.50 910.623   2
  -7  -3   5 6389.61 774.570   4
  10  -7   5 8216.56 1199.31   3
  -3  10   8 102495. 3435.00   3
   3   7   8 95813.8 3669.59   3
  10  -7   8 91782.4 3621.33   3
   7 -10   8 97316.6 3461.76   3
  10  -7  11 2322.65 1049.21   3
  -3  10  11 6424.90 1251.57   3
   7 -10  11 2867.49 1028.25   3
   3   7  11 5480.96 1355.49   3
  -6  -4 -11 1934.39 951.394   2
 -10   4 -11 1722.81 968.887   2
  -4  10 -11 363.087 843.323   1
  10  -6 -11 2320.27 1439.42   2
  -6  -4 -11 377.878 885.810   4
   6 -10 -11 814.200 1173.25   4
  -4  10 -11 1752.13 880.660   4
  10  -6 -11 479.213 1064.78   4
 -10   4 -11 1752.40 1009.26   4
 -10   4 -11 663.562 690.711   1
   4   6 -11 4118.48 1312.38   4
   4   6 -11 437.409 1244.37   2
  -4  10 -11 1468.18 1064.16   2
   6 -10 -11 1440.90 1354.61   2
   6 -10  -8 13700.4 1655.72   2
 -10   4  -8 13218.7 1376.50   4
   6 -10  -8 12981.7 1609.75   4
  10  -6  -8 11313.0 1666.28   4
   4   6  -8 12647.8 1643.67   2
  -4  10  -8 11787.8 1299.38   4
   4   6  -8 13610.6 1471.88   4
  -4  10  -8 13061.5 1535.52   1
 -10   4  -8 13063.8 1193.38   1
   4   6  -8 10093.7 797.696   3
  -6  -4  -8 11670.4 1447.39   4
  -6  -4  -8 15397.5 1514.86   2
  -4  10  -8 11983.3 1395.57   2
  10  -6  -8 12512.0 1727.02   2
 -10   4  -8 13424.3 1417.31   2
 -10   4  -5 47678.0 1917.47   2
   4   6  -5 45917.6 1984.60   4
   6 -10  -5 44641.0 2287.46   4
  -6  -4  -5 39006.6 1808.26   2
   4   6  -5 51973.8 2338.51   2
  10  -6  -5 46522.8 2352.13   4
  -4  10  -5 50267.1 2074.56   3
  -4  10  -5 48888.2 1802.94   4
 -10   4  -5 48407.6 1591.70   1
  -4  10  -5 46728.4 1892.74   2
  -6  -4  -5 51397.2 1422.04   1
   4   6  -5 52453.1 1491.91   3
  -4  10  -5 45611.9 2117.48   1
  10  -6  -5 51216.0 2525.83   2
  -6  -4  -5 47849.1 2085.35   4
   6 -10  -5 50139.0 2368.09   2
   6 -10  -2 69680.7 1988.47   4
   6 -10  -2 67830.3 1866.28   2
  10  -6  -2 73169.6 1662.43   3
   4   6  -2 70672.8 1478.84   4
  -6  -4  -2 69942.5 2214.86   3
  -4  10  -2 69973.2 1197.96   2
   4   6  -2 66906.1 1743.03   2
  10  -6  -2 64572.2 1881.86   4
  -4  10  -2 71887.7 1950.19   1
 -10   4  -2 65251.2 2251.67   3
 -10   4  -2 67333.7 1251.21   1
  10  -6  -2 67608.7 1860.58   1
  10  -6  -2 71250.3 2077.06   2
   6 -10  -2 76124.5 1732.54   1
  -4  10  -2 70134.8 2150.15   3
  10  -6   1 1377.04 304.173   1
   4   6   1 1673.05 187.820   1
   4   6   1 1613.73 500.148   3
   6 -10   1 1297.62 359.435   1
  -6  -4   1 1123.79 374.385   3
  -4  10   1 1637.94 370.676   2
  -4  10   1 1483.74 274.640   4
  -4  10   1 1380.42 288.195   1
   4   6   1 1559.89 337.000   4
 -10   4   1 1545.90 408.269   3
  10  -6   1 1846.14 568.284   3
 -10   4   1 2053.07 420.470   1
  -6  -4   4 70107.6 2096.46   2
  -4  10   4 69777.7 2610.95   2
  10  -6   4 67038.5 2321.91   4
  10  -6   4 69403.3 2651.16   3
   6 -10   4 68880.2 2174.84   4
   6 -10   4 73096.7 2022.65   2
   4   6   4 75002.6 2632.14   3
 -10   4   4 69042.4 2128.98   4
  -4  10   4 71258.2 2446.28   4
  -6  -4   4 73275.1 1953.23   4
   4   6   4 70576.6 2504.02   4
   4   6   4 70482.3 2608.64   2
  10  -6   4 70355.7 2296.29   2
   6 -10   4 71638.6 2438.19   3
  -4  10   4 74182.5 2361.02   3
  -4  10   4 74425.9 2277.22   1
   6 -10   7 6701.34 1007.21   3
   4   6   7 6337.80 1108.19   3
  -4  10   7 4733.28 803.966   3
  10  -6   7 4068.47 938.171   3
  10  -6  10 25064.4 2165.84   3
   6 -10  10 24125.2 1948.09   3
   4   6  10 30015.8 2328.60   3
  -4  10  10 29446.5 2020.64   3
  -5  10 -12 5133.55 1408.51   2
  -5  10 -12 7385.08 1567.07   1
 -10   5 -12 2827.23 1077.54   2
 -10   5 -12 3873.55 1138.20   4
  10  -5 -12 7358.30 1811.60   4
   5   5 -12 6059.05 1613.01   4
   5 -10 -12 1945.11 1253.99   2
  -5  -5 -12 3235.18 1193.09   2
  -5  -5 -12 6625.64 1699.76   4
   5 -10 -12 4462.16 1570.45   4
   5   5 -12 2519.31 1461.56   2
  10  -5 -12 3265.53 1649.41   2
 -10   5 -12 5448.18 1185.45   1
  -5  10 -12 4868.28 1326.15   4
  -5  10  -9 28658.9 2100.45   2
 -10   5  -9 25375.6 1980.33   4
  10  -5  -9 26611.4 2541.63   2
  -5  10  -9 21608.2 1783.46   4
  -5  -5  -9 22512.0 2005.02   2
  10  -5  -9 23183.0 2370.28   4
   5   5  -9 22738.7 2062.42   4
   5   5  -9 25514.7 2383.74   2
  -5  10  -9 23093.7 2039.06   1
 -10   5  -9 26567.5 1816.32   1
   5 -10  -9 26839.7 2377.91   4
   5 -10  -9 29936.3 2532.68   2
  -5  -5  -9 29848.7 2299.29   4
 -10   5  -9 24483.6 1975.52   2
  -5  10  -6 29705.5 1581.35   4
  10  -5  -6 29445.7 2106.35   4
   5   5  -6 29064.9 1789.68   4
   5 -10  -6 31195.6 2047.65   4
  -5  -5  -6 30928.3 1319.70   1
 -10   5  -6 30066.0 1701.86   4
 -10   5  -6 33171.6 1551.51   1
  -5  -5  -6 31847.8 1929.29   4
 -10   5  -6 29437.6 1650.62   2
  -5  10  -6 31207.5 1707.61   2
  -5  10  -6 30782.9 1817.93   1
  10  -5  -6 29891.7 2134.36   2
   5   5  -6 29540.8 1984.14   2
  -5  10  -6 28199.5 1766.13   3
   5 -10  -6 29656.7 1967.71   2
   5   5  -6 30097.2 1054.16   3
  -5  -5  -6 31197.9 1829.45   2
  -5  10  -3 121486. 2968.72   3
   5   5  -3 124428. 2511.30   4
  -5  -5  -3 122850. 3045.18   3
  -5  -5  -3 131469. 2682.52   2
  10  -5  -3 123014. 3020.39   4
  -5  -5  -3 131621. 1244.58   1
  -5  -5  -3 131060. 2692.84   4
   5 -10  -3 126824. 2339.61   1
   5   5  -3 120005. 2787.69   2
   5 -10  -3 122819. 2893.20   2
  -5  10  -3 126090. 2078.42   2
 -10   5  -3 123303. 2030.91   1
  10  -5  -3 121630. 2789.07   1
 -10   5  -3 125721. 3284.28   3
  -5  10  -3 126626. 2837.41   1
  10  -5  -3 121122. 3093.84   2
   5 -10  -3 123802. 2971.53   4
  -5  10   0 22888.3 910.258   1
  -5  10   0 22518.8 547.810   2
   5 -10   0 23037.9 967.684   1
   5 -10   0 22125.5 464.455   2
 -10   5   0 23991.2 1219.43   3
  -5  -5   0 23830.2 1133.74   3
   5 -10   0 24026.5 714.932   4
  10  -5   0 23821.2 1181.49   3
 -10   5   0 21456.9 874.256   1
   5   5   0 23615.6 1153.25   3
  10  -5   0 22614.5 840.099   1
   5   5   0 23252.6 803.156   1
  -5  10   3 128276. 3040.88   2
  10  -5   3 122819. 2360.29   1
 -10   5   3 128590. 1939.11   3
  10  -5   3 125526. 3364.26   3
   5   5   3 127521. 3242.37   3
  -5  -5   3 132890. 2176.34   4
   5   5   3 124360. 2952.54   4
  10  -5   3 125943. 2802.21   4
  -5  10   3 125352. 2786.18   4
 -10   5   3 128364. 2767.14   2
  -5  10   3 126296. 2669.58   1
  -5  -5   3 132374. 2476.80   2
 -10   5   3 126274. 3115.42   1
   5 -10   3 124672. 2409.38   4
   5   5   3 122056. 2944.94   2
 -10   5   3 132346. 2650.06   4
  10  -5   3 125775. 2607.29   2
   5 -10   3 128266. 2087.53   2
  -5  10   6 28426.1 1780.29   1
   5 -10   6 33123.6 1798.26   3
  -5  10   6 31153.1 1669.16   3
   5 -10   6 29503.4 1666.66   2
  10  -5   6 30168.3 1977.89   3
   5   5   6 32327.1 2025.45   3
  -5  10   9 35690.1 2064.69   3
   5 -10   9 30695.1 1982.57   3
   5   5   9 34342.1 2425.23   3
   5   5  12 2457.27 1094.31   3
  10  -5  12 4827.09 1439.11   3
  -4  -6 -10 21994.7 2103.54   4
 -10   6 -10 20318.0 1838.44   2
  10  -4 -10 21967.4 2405.80   2
   4 -10 -10 26035.6 2438.75   2
  -6  10 -10 23727.0 2095.47   1
   6   4 -10 28790.7 2694.57   2
   6   4 -10 23467.3 2226.82   4
  10  -4 -10 24034.9 2535.93   4
  -6  10 -10 21543.2 2008.02   2
 -10   6 -10 21458.4 1953.53   4
  -4  -6 -10 22354.2 2131.12   2
 -10   6 -10 22219.4 1817.69   1
  -6  10 -10 21195.8 1949.01   4
   4 -10 -10 25447.9 2477.71   4
  -6  10  -7 4884.17 936.946   2
 -10   6  -7 2904.13 724.201   2
   6   4  -7 1830.22 215.761   3
   6   4  -7 3466.16 857.518   4
  -6  10  -7 3172.32 773.612   4
  10  -4  -7 3083.08 976.851   4
   6   4  -7 3212.66 987.754   2
  10  -4  -7 3046.06 1117.64   2
   4 -10  -7 1584.10 787.003   4
 -10   6  -7 2698.65 720.582   4
  -4  -6  -7 4034.07 943.355   4
  -4  -6  -7 3194.74 857.196   2
 -10   6  -7 3317.28 680.028   1
  -4  -6  -7 3264.32 590.996   1
   4 -10  -7 4328.34 1025.09   2
  -6  10  -7 3289.13 861.378   1
  -6  10  -4 66486.1 2220.51   1
  -6  10  -4 64398.9 1813.16   2
   6   4  -4 65844.7 1353.84   3
  -4  -6  -4 71518.3 2258.05   2
 -10   6  -4 70989.3 1938.67   2
  10  -4  -4 67189.1 2509.09   4
   6   4  -4 63808.8 2146.05   4
   6   4  -4 66676.4 2440.23   2
 -10   6  -4 65376.3 2562.18   3
   4 -10  -4 69069.8 1858.51   1
   6   4  -4 67943.7 1310.24   3
   4 -10  -4 61109.9 2340.09   4
  -4  -6  -4 70055.4 1350.54   1
  -6  10  -4 66578.3 2397.91   3
 -10   6  -4 66090.7 1766.82   1
   4 -10  -4 62335.2 2308.92   2
  10  -4  -4 64278.3 2503.91   2
  -6  10  -4 68950.6 1828.70   4
  -4  -6  -4 59709.2 2121.72   4
  -4  -6  -4 67527.5 2396.32   3
 -10   6  -1 1322.27 475.475   3
   6   4  -1 1342.95 257.125   4
 -10   6  -1 1569.33 306.405   1
  10  -4  -1 1592.64 330.388   1
  -4  -6  -1 1776.53 472.976   3
  -4  -6  -1 1710.03 240.146   1
   4 -10  -1 1848.56 343.970   4
  -6  10  -1 1262.35 447.550   3
   4 -10  -1 2060.37 319.049   2
   4 -10  -1 1680.06 290.606   1
   6   4  -1 1608.00 383.637   3
  10  -4  -1 1392.08 356.737   4
  10  -4  -1 1254.94 407.397   3
  -6  10  -1 1688.69 367.770   1
  10  -4  -1 1424.45 344.909   2
 -10   6   2 61399.8 1588.42   3
  10  -4   2 65048.1 1390.94   1
   6   4   2 60484.0 2116.81   3
  -6  10   2 62168.2 1821.83   2
  -4  -6   2 63902.3 1131.24   4
  10  -4   2 63902.1 1675.00   2
 -10   6   2 60691.8 1679.57   2
   4 -10   2 64089.1 1324.99   4
   6   4   2 66765.3 1858.47   4
  -6  10   2 62027.1 1692.04   1
   4 -10   2 66066.1 2015.03   1
  10  -4   2 62978.3 2231.58   3
   4 -10   2 64951.7 924.272   2
   6   4   2 66714.9 1881.26   2
 -10   6   2 60663.2 1940.71   1
 -10   6   2 64070.9 1664.53   4
  -6  10   2 60639.2 1631.11   4
   4 -10   5 51398.5 2008.72   3
 -10   6   5 50282.6 1072.27   3
  -6  10   5 52630.4 2235.56   1
   4 -10   5 48193.3 2016.46   4
  -4  -6   5 53932.8 1942.27   4
  10  -4   5 51267.7 2397.62   3
   4 -10   5 49162.9 1872.05   2
   6   4   5 49889.9 2332.23   3
  -6  10   5 52383.4 1909.01   3
   4 -10   8 11833.9 1205.55   3
   6   4   8 14587.6 1594.91   3
  -6  10   8 15442.1 1331.75   3
  10  -4   8 11859.0 1512.27   3
   6   4  11 3147.61 1265.67   3
  10  -4  11 1187.54 1253.51   3
 -10   7 -11 4800.85 1200.74   2
   7   3 -11 6157.17 1640.41   2
  -3  -7 -11 2028.01 1085.50   2
 -10   7 -11 4145.82 1060.14   1
  -7  10 -11 4126.48 1174.38   4
   7   3 -11 5593.29 1436.54   4
  10  -3 -11 5481.11 1508.20   4
  -7  10 -11 2342.95 954.269   1
  10  -3 -11 3149.09 1413.28   2
   3 -10 -11 4380.33 1375.99   4
  -3  -7 -11 4483.45 1278.21   4
 -10   7 -11 4630.81 1168.32   4
   3 -10 -11 5593.08 1550.16   2
  -7  10 -11 3464.41 1135.93   2
   3 -10  -8 90902.8 3810.92   2
 -10   7  -8 96564.6 3409.41   4
  10  -3  -8 88583.2 3941.94   4
  -3  -7  -8 94166.0 3751.30   4
 -10   7  -8 99447.2 3245.61   1
   3 -10  -8 96648.4 4022.39   4
 -10   7  -8 98647.0 3316.21   2
   7   3  -8 92620.8 4077.20   2
  10  -3  -8 94901.6 4266.16   2
  -7  10  -8 96238.0 3367.63   4
   7   3  -8 97718.3 3891.26   4
  -7  10  -8 96639.6 3382.19   2
  -3  -7  -8 93824.0 3631.76   2
  -7  10  -8 93041.7 3501.99   1
 -10   7  -5 7686.95 825.491   2
  -3  -7  -5 10089.1 1055.75   4
  10  -3  -5 8589.43 1073.93   4
   7   3  -5 8198.03 995.292   4
 -10   7  -5 7445.58 785.081   1
   3 -10  -5 9135.67 1051.84   2
  -7  10  -5 7314.96 769.404   4
  -7  10  -5 8420.76 833.080   2
  10  -3  -5 9159.23 1202.11   2
   7   3  -5 7705.97 1106.55   2
  -7  10  -5 8550.75 1037.17   3
  -7  10  -5 9854.54 973.318   1
   3 -10  -5 6833.72 664.423   1
   3 -10  -5 8225.48 1002.20   4
  -3  -7  -5 7806.82 604.946   1
  -3  -7  -5 8603.12 977.295   2
  -7  10  -2 127220. 3054.36   3
  -3  -7  -2 138467. 3041.01   3
  10  -3  -2 131307. 2643.76   1
 -10   7  -2 122712. 3080.64   3
  -3  -7  -2 132424. 2317.61   4
  -3  -7  -2 135811. 1479.68   1
  -7  10  -2 134670. 2526.17   1
   7   3  -2 133085. 2193.28   3
  10  -3  -2 128991. 2636.02   4
  10  -3  -2 135321. 2125.14   3
   3 -10  -2 131648. 2428.73   2
 -10   7  -2 124309. 2039.22   1
   7   3  -2 129299. 2623.53   2
   7   3  -2 131242. 2267.97   4
   3 -10  -2 128050. 2520.19   4
  10  -3  -2 133084. 2770.57   2
   3 -10  -2 132036. 2068.43   1
  -7  10   1 50617.6 1436.47   1
  -7  10   1 51290.8 1229.82   4
 -10   7   1 50960.2 1522.83   1
   7   3   1 52445.3 1852.28   3
  10  -3   1 51165.6 1051.99   1
   3 -10   1 52448.2 644.106   4
 -10   7   1 51624.7 1609.56   3
   3 -10   1 48289.2 726.075   4
   3 -10   1 52893.5 1609.56   1
  -7  10   1 52048.9 1278.13   2
  10  -3   1 49311.1 1834.23   3
  -7  10   4 188846. 3889.48   4
  -3  -7   4 204533. 3321.54   2
   3 -10   4 200205. 3429.64   4
   7   3   4 192920. 4305.16   3
   3 -10   4 203222. 3135.57   2
  -3  -7   4 205320. 3209.33   4
 -10   7   4 185840. 3922.68   2
   7   3   4 198614. 4212.58   4
 -10   7   4 200354. 2563.65   3
  -7  10   4 197350. 4194.50   2
  10  -3   4 188440. 3921.69   2
  10  -3   4 201025. 4465.54   3
  -7  10   4 204876. 4024.19   1
 -10   7   4 196110. 4275.59   1
  -7  10   7-371.089 586.645   3
   7   3   7 545.087 797.248   3
  10  -3   7 1497.34 887.581   3
 -10   7   7 222.862 255.939   3
  10  -3  10 42501.5 2925.75   3
  -7  10  10 47554.9 2214.53   3
   7   3  10 50425.2 3032.71   3
   2 -10 -12 6630.79 1598.41   2
  -2  -8 -12 5080.63 1422.18   2
 -10   8 -12 6619.09 1401.80   2
  -8  10 -12 5745.98 1328.02   4
  10  -2 -12 6882.73 1936.35   2
  -8  10 -12 6275.69 1396.98   1
 -10   8 -12 6429.83 1371.01   4
  10  -2 -12 6652.16 1662.10   4
   2 -10 -12 4788.97 1545.61   4
   8   2 -12 4701.09 1457.75   4
  -2  -8 -12 4551.66 1409.83   4
   8   2 -12 3724.82 1589.94   2
  -8  10 -12 6402.09 1423.67   2
 -10   8 -12 5033.69 1216.16   1
  -8  10  -9 42738.1 2506.93   1
   8   2  -9 45620.3 3163.96   2
 -10   8  -9 45620.4 2417.81   1
  10  -2  -9 43096.1 3170.22   2
 -10   8  -9 47610.7 2566.46   4
   8   2  -9 41290.4 2790.60   4
   2 -10  -9 40611.7 2797.40   4
  -8  10  -9 43823.2 2482.19   4
  10  -2  -9 41471.1 2921.25   4
  -2  -8  -9 41492.8 2662.52   2
   2 -10  -9 44276.1 2830.92   2
  -8  10  -9 40408.7 2387.57   2
 -10   8  -9 41750.2 2384.26   2
  -2  -8  -9 38205.0 2645.86   4
 -10   8  -6 5135.50 751.885   2
   2 -10  -6 5286.53 978.646   4
  -8  10  -6 5980.42 883.581   1
 -10   8  -6 5294.10 774.749   1
   8   2  -6 5120.50 946.136   4
  -8  10  -6 5689.01 777.853   4
  -2  -8  -6 4315.36 908.985   4
  -2  -8  -6 5727.33 917.096   2
   8   2  -6 5621.86 1067.20   2
 -10   8  -6 5477.94 802.078   4
  10  -2  -6 4882.49 994.232   4
  -8  10  -6 5310.71 822.225   2
  -2  -8  -6 5025.97 586.653   1
  10  -2  -6 6346.88 1218.50   2
   2 -10  -6 5499.02 961.822   2
  -8  10  -3 91774.7 1624.84   2
  -2  -8  -3 85089.0 2245.00   2
   8   2  -3 86578.6 2275.81   4
   8   2  -3 79928.1 2456.92   2
   2 -10  -3 81391.0 2357.26   4
 -10   8  -3 79692.2 2714.21   3
  10  -2  -3 88543.6 2470.61   4
   2 -10  -3 83931.5 2308.43   2
  -2  -8  -3 87815.6 2582.32   3
  10  -2  -3 71080.8 2363.13   2
   8   2  -3 87913.7 1545.69   3
  -8  10  -3 84397.5 2205.51   1
  -2  -8  -3 89045.8 1419.23   1
 -10   8  -3 81435.1 1907.73   1
  -8  10  -3 81070.2 2650.75   3
   2 -10  -3 87745.6 1833.22   1
  -2  -8  -3 81362.2 2223.94   4
  10  -2  -3 83716.1 2420.71   1
  10  -2  -3 90178.3 1380.62   3
 -10   8   0 67668.2 2070.97   3
   2 -10   0 68885.3 1644.82   1
 -10   8   0 68059.9 1570.02   1
  10  -2   0 68331.8 1342.68   1
  10  -2   0 63295.6 1953.76   3
   8   2   0 68816.6 1346.54   1
  -8  10   0 67341.3 1624.29   1
  -2  -8   0 70632.2 1611.72   1
   8   2   0 66216.7 1920.98   3
   2 -10   0 65822.2 975.488   4
  -8  10   0 67064.4 2114.37   3
  -8  10   3 80048.5 2171.54   4
 -10   8   3 77124.6 1838.42   3
 -10   8   3 75062.3 2225.42   2
  -2  -8   3 77758.0 1580.90   4
   8   2   3 72643.2 2564.53   3
 -10   8   3 78811.3 2135.53   4
   2 -10   3 81125.3 1570.10   2
   2 -10   3 79007.3 1753.09   4
   8   2   3 77614.1 2341.51   4
  10  -2   3 75837.6 2281.63   4
  -8  10   3 77701.1 2277.63   1
 -10   8   3 69969.2 2319.56   1
  10  -2   3 80001.7 2250.23   2
   8   2   3 77964.1 2321.38   2
  10  -2   3 67761.7 2486.76   3
  -8  10   3 77237.9 2305.93   2
  -2  -8   3 80209.2 1746.30   2
  -8  10   6 39842.0 2222.84   1
   8   2   6 39016.7 2233.09   3
 -10   8   6 42280.0 1352.63   3
  -8  10   6 45421.6 1749.31   3
  -2  -8   6 39418.7 1906.41   4
  10  -2   6 41783.8 2361.15   3
   2 -10   6 38888.4 1888.91   2
   2 -10   6 39432.0 1968.86   4
  10  -2   9 13981.1 1666.76   3
   8   2   9 17837.2 1867.50   3
  -8  10   9 17155.4 1281.25   3
 -10   8   9 15977.1 891.715   3
  10  -2  12 4975.65 1503.68   3
   8   2  12 2540.22 1414.33   3
  -1  -9 -10 3418.69 1185.93   2
 -10   9 -10 5174.73 1088.03   2
  10  -1 -10 6986.82 1724.98   2
   1 -10 -10 5204.72 1273.43   4
   9   1 -10 8433.84 1721.41   2
  -1  -9 -10 7502.63 1480.93   4
   9   1 -10 6550.97 1437.06   4
 -10   9 -10 5716.06 1200.41   4
  10  -1 -10 6862.65 1536.99   4
 -10   9 -10 5119.37 1043.91   1
  -9  10 -10 5105.56 1147.06   2
   1 -10 -10 4752.59 1280.32   2
  -9  10 -10 6556.97 1180.42   1
  -9  10 -10 7171.25 1267.19   4
  -9  10  -7 13796.6 1226.92   4
   9   1  -7 15074.5 1572.20   4
  -9  10  -7 11094.0 1150.66   1
  10  -1  -7 11276.8 1463.36   4
 -10   9  -7 12923.0 1229.38   1
  10  -1  -7 10307.5 1529.32   2
   1 -10  -7 15241.6 1536.85   2
   9   1  -7 9729.03 1394.13   2
 -10   9  -7 9891.62 1101.14   4
  -9  10  -7 12523.6 1221.30   2
  -1  -9  -7 13716.0 1471.12   2
  -1  -9  -7 13802.1 1479.46   4
   1 -10  -7 10423.0 1362.96   4
 -10   9  -7 11284.2 1146.44   2
   1 -10  -4 19710.3 1307.49   2
  -9  10  -4 20739.0 987.619   2
  10  -1  -4 21241.2 1418.49   4
   1 -10  -4 22946.2 983.145   1
  -9  10  -4 21289.7 1562.81   3
 -10   9  -4 21241.8 1038.28   2
   9   1  -4 17285.9 1274.74   4
 -10   9  -4 18841.7 1083.52   1
   9   1  -4 21460.9 1499.71   2
  -1  -9  -4 22905.1 881.345   1
  -9  10  -4 22675.4 1251.23   1
  10  -1  -4 21147.8 1511.33   2
  -1  -9  -4 21995.6 1336.59   2
   1 -10  -4 22660.9 1417.15   4
  -1  -9  -4 22583.8 1387.70   4
   9   1  -1 652.047 274.541   1
 -10   9  -1 409.265 255.849   1
  10  -1  -1 577.828 381.354   2
  10  -1  -1 806.555 305.829   1
  10  -1  -1 548.111 380.995   3
   9   1  -1 583.229 288.264   4
  -9  10  -1 766.698 496.667   3
   1 -10  -1 800.495 266.022   1
  -1  -9  -1 689.064 250.886   1
  -1  -9  -1 604.195 228.997   4
 -10   9  -1 536.989 444.359   3
   1 -10  -1-20.8152 226.343   4
  10  -1  -1 364.346 288.280   4
  -9  10  -1 464.386 321.272   1
   9   1  -1 508.194 343.037   3
  -9  10   2 23764.2 1146.50   2
 -10   9   2 24158.1 1171.44   3
 -10   9   2 23398.9 1213.95   1
   9   1   2 26124.8 1230.75   2
 -10   9   2 27604.4 1175.25   2
  10  -1   2 26166.7 685.211   1
   9   1   2 26444.2 1506.80   3
   9   1   2 25790.4 1187.45   4
 -10   9   2 24059.8 1071.20   4
  -1  -9   2 27429.3 581.704   4
  10  -1   2 25702.3 1498.44   3
   1 -10   2 25771.1 641.790   4
  -9  10   2 22592.5 1171.02   1
  -9  10   2 23821.8 1062.95   4
  -9  10   2 24469.1 1225.84   3
  -1  -9   5 25251.1 1358.61   4
   1 -10   5 27213.1 1383.38   2
   9   1   5 26745.9 1779.92   3
  10  -1   5 25018.6 1740.43   3
   1 -10   5 25401.8 1389.09   4
 -10   9   5 24116.0 1691.84   1
  -9  10   5 28358.8 1761.11   1
  -1  -9   5 25800.6 1353.07   2
 -10   9   5 26869.3 1108.20   3
  -9  10   5 26994.7 1281.20   3
   9   1   8 2341.68 981.421   3
  -9  10   8 1614.49 558.928   3
  10  -1   8 3352.10 1019.71   3
 -10   9   8 3931.29 588.067   3
  10  -1  11 14665.0 1929.02   3
   9   1  11 11363.2 1830.74   3
 -10  10 -11 729.733 821.037   1
 -10  10 -11 403.624 926.189   2
   0 -10 -11 899.841 1025.69   4
  10   0 -11-665.101 1044.66   4
 -10  10 -11 367.840 771.588   4
   0 -10 -11 2123.35 1182.50   2
  10   0 -11 185.029 1314.72   2
 -10  10  -8 118335. 3617.80   4
  10   0  -8 107271. 4542.56   2
 -10  10  -8 107647. 3533.26   1
 -10  10  -8 108385. 3417.03   2
   0 -10  -8 117075. 4195.10   2
  10   0  -8 109902. 4297.14   4
   0 -10  -5-53.8728 496.551   4
   0 -10  -5 278.310 488.942   2
  10   0  -5 415.220 573.464   4
 -10  10  -5-223.198 406.553   1
  10   0  -5 386.187 725.624   2
   0 -10  -5-103.994 261.652   1
 -10  10  -5-82.0098 336.341   2
   0 -10  -2 158110. 2610.07   2
   0 -10  -2 159721. 2129.78   1
  10   0  -2 154621. 3121.63   2
  10   0  -2 148711. 2947.56   1
 -10  10  -2 148805. 3515.48   3
 -10  10  -2 156299. 2629.42   1
  10   0  -2 160731. 2887.33   4
  10   0  -2 155514. 2457.24   3
   0 -10  -2 148880. 2636.14   4
 -10  10   1-267.997 415.271   3
  10   0   1-565.893 487.387   3
 -10  10   1-100.993 205.940   2
 -10  10   1-22.1774 286.433   1
   0 -10   1 270.080 273.302   1
  10   0   1-138.464 129.424   1
   0 -10   4 251800. 3402.07   2
 -10  10   4 228330. 4451.65   2
   0 -10   4 245037. 3449.29   4
  10   0   4 236486. 4950.81   3
 -10  10   4 242544. 4682.61   1
  10   0   7 390.108 749.756   3
 -10  10   7 178.049 465.760   3
  10   0  10 59875.8 3379.74   3
 -11   0 -11-497.697 818.883   2
  11 -11 -11-953.268 1259.43   4
   0  11 -11 861.330 1127.69   1
   0  11 -11 429.673 826.219   4
 -11   0 -11-273.327 632.060   1
   0  11 -11 1372.17 1148.75   2
  11 -11 -11 766.730 1187.30   2
 -11   0 -11 38.5757 759.575   4
   0  11  -8 9242.34 1181.76   4
 -11   0  -8 6847.17 1147.27   4
   0  11  -8 8438.02 1405.84   1
  11 -11  -8 8131.05 1595.44   2
 -11   0  -8 9851.11 947.920   1
  11 -11  -8 7721.65 1428.39   4
   0  11  -8 10159.9 1414.06   2
 -11   0  -8 6645.21 1122.50   2
 -11   0  -5 9.43698 193.990   1
   0  11  -5 505.272 405.868   4
   0  11  -5-79.1497 551.146   2
   0  11  -5-252.023 477.747   3
  11 -11  -5-45.5544 677.292   2
   0  11  -5-476.631 476.261   1
  11 -11  -5 853.214 649.668   4
  11 -11  -2 8819.33 752.970   1
 -11   0  -2 9517.09 385.100   1
  11 -11  -2 11037.5 903.710   4
   0  11  -2 11033.9 905.168   1
 -11   0  -2 8576.51 984.858   3
  11 -11  -2 9439.52 889.386   2
   0  11  -2 10887.4 659.674   2
  11 -11   1 421.851 573.296   3
  11 -11   1 234.726 318.028   1
   0  11   1 241.495 292.206   2
   0  11   1-99.3358 249.651   1
 -11   0   1 441.793 379.363   3
   0  11   1 269.532 246.572   4
   0  11   4 52691.4 2202.25   4
  11 -11   4 52388.0 1893.88   2
   0  11   4 48927.1 2226.04   3
  11 -11   4 50494.6 2394.33   3
   0  11   4 48283.9 1640.72   1
  11 -11   7 552.989 779.482   3
   0  11   7-893.562 683.447   3
  11 -11  10 2652.79 1092.21   3
   0  11  10 2952.03 1202.52   3
  10 -11 -12 1356.52 1298.99   4
  11 -10 -12 1465.68 1304.22   4
 -10  -1 -12 2224.59 1183.44   2
 -11   1 -12 1401.56 801.389   1
  -1  11 -12 729.230 1083.30   1
  10 -11 -12 1108.64 1449.63   2
  -1  11 -12 1661.89 1032.01   4
   1  10 -12 2417.79 1293.01   1
   1  10 -12 2893.94 1529.15   2
   1  10 -12 1218.32 981.213   4
 -10  -1 -12 2557.44 1161.84   4
 -11   1 -12 2465.38 1176.03   4
 -11   1 -12 715.408 929.635   2
  -1  11 -12 953.116 1190.79   2
  11 -10 -12 2861.29 1501.81   2
  -1  11  -9 24536.6 2175.22   1
  10 -11  -9 30447.2 2708.43   4
 -10  -1  -9 24100.6 2008.39   4
 -11   1  -9 24231.1 1980.65   4
 -10  -1  -9 26217.9 2008.48   2
  10 -11  -9 25543.8 2438.92   2
   1  10  -9 24170.9 2167.77   2
 -11   1  -9 24572.9 1985.10   2
  11 -10  -9 23945.3 2449.40   4
 -11   1  -9 25714.7 1591.14   1
  -1  11  -9 24547.3 1929.67   4
  -1  11  -9 22349.0 2084.01   2
  11 -10  -9 23505.7 2463.84   2
   1  10  -9 21905.8 1856.92   4
 -10  -1  -9 24927.4 1572.12   1
  -1  11  -6 72.0979 467.267   4
  -1  11  -6-570.199 632.981   3
   1  10  -6 122.174 489.294   4
 -11   1  -6 416.140 510.793   4
 -10  -1  -6-469.030 600.421   2
  11 -10  -6-655.322 791.329   4
 -10  -1  -6 736.949 507.811   4
 -10  -1  -6 16.8559 291.333   1
   1  10  -6 18.1289 603.239   2
  10 -11  -6 1714.68 880.482   4
 -11   1  -6 308.225 312.039   1
  -1  11  -6 540.072 621.255   2
 -11   1  -6-365.987 486.324   2
   1  10  -6 677.421 531.699   3
  11 -10  -6 142.579 714.288   2
  10 -11  -6 161.331 781.220   2
  -1  11  -6 621.324 577.343   1
  -1  11  -3 36387.6 1681.26   1
  -1  11  -3 33934.6 1574.20   3
  -1  11  -3 35102.8 980.975   4
  -1  11  -3 34399.6 1348.38   2
   1  10  -3 35470.7 1123.30   4
  11 -10  -3 34105.4 1474.41   1
  10 -11  -3 35113.2 1703.14   4
 -11   1  -3 31265.3 1779.40   3
  10 -11  -3 35271.4 1437.36   1
  11 -10  -3 31990.5 1691.18   4
  10 -11  -3 35114.0 1704.62   2
   1  10  -3 36602.5 1710.65   1
 -11   1  -3 34693.8 724.844   1
  11 -10  -3 35705.0 1761.86   2
   1  10  -3 33686.1 1396.93   2
  11 -10   0 1800.83 370.205   1
  11 -10   0 2311.35 343.604   2
  11 -10   0 2255.47 612.086   3
  11 -10   0 1244.86 397.001   4
   1  10   0 1965.96 208.614   4
  -1  11   0 1975.75 296.771   2
 -11   1   0 1523.86 527.827   3
 -10  -1   0 2076.38 477.505   3
  10 -11   0 2469.81 399.593   4
  -1  11   0 1956.85 376.141   1
  10 -11   0 1906.28 405.753   1
  10 -11   0 1905.78 326.784   2
   1  10   0 2275.76 348.983   1
 -11   1   0 1650.10 330.845   1
  11 -10   3 47541.8 2218.68   3
 -11   1   3 49649.5 1583.57   4
  10 -11   3 48651.5 2175.45   3
  -1  11   3 49668.9 1872.71   4
 -10  -1   3 48315.9 1490.52   4
  -1  11   3 47180.8 1473.83   1
  10 -11   3 47308.3 1653.31   4
 -11   1   3 47472.0 1712.66   2
  -1  11   3 48635.4 2101.00   3
  11 -10   3 50626.9 1597.94   2
 -11   1   3 48598.7 1170.96   3
  11 -10   3 49139.8 1757.73   4
   1  10   3 46389.2 1889.39   4
  10 -11   3 49793.7 1922.49   1
   1  10   3 47472.0 1358.95   1
  11 -10   3 46382.0 1779.82   1
  10 -11   3 52298.9 1526.27   2
   1  10   3 44832.0 1965.37   2
 -10  -1   3 49996.6 1712.05   2
  -1  11   3 49126.8 2016.86   2
   1  10   3 46440.8 2016.20   3
  11 -10   6 8643.26 1230.66   3
   1  10   6 7755.09 1133.96   3
  10 -11   6 6021.70 931.029   2
  -1  11   6 8249.49 1161.49   3
  10 -11   6 7078.66 1187.21   3
  -1  11   9 9727.45 1398.97   3
   1  10   9 12508.5 1571.26   3
  11 -10   9 13321.0 1750.24   3
  10 -11   9 9962.13 1546.84   3
  10 -11  12 2762.76 1345.45   3
  11 -10  12 1792.08 1230.74   3
  -1  11  12 2491.00 1267.85   3
   1  10  12 807.107 1126.36   3
   2   9 -10 8667.89 1409.09   4
   9 -11 -10 6807.81 1456.76   2
  -2  11 -10 6886.47 1419.64   1
  -2  11 -10 8294.34 1470.55   2
 -11   2 -10 5765.25 1192.20   4
  11  -9 -10 6116.50 1575.50   4
  11  -9 -10 11036.6 1927.22   2
  -2  11 -10 7115.96 1229.14   4
  -9  -2 -10 8302.48 1480.19   4
  -9  -2 -10 7600.26 1304.49   2
 -11   2 -10 5835.36 1282.57   2
   2   9 -10 8948.96 1573.57   2
   9 -11 -10 8290.13 1631.56   4
  -9  -2 -10 7088.90 1061.98   1
 -11   2 -10 8583.50 1136.02   1
  -9  -2  -7 71593.3 2929.37   2
 -11   2  -7 68295.1 2144.05   1
   9 -11  -7 74689.5 3468.27   2
  -9  -2  -7 71657.5 2179.78   1
   9 -11  -7 75308.5 3560.25   4
  -2  11  -7 73803.4 2957.72   2
  -2  11  -7 72047.9 2663.45   4
  11  -9  -7 68406.1 3399.71   4
  -9  -2  -7 71884.8 2215.99   1
 -11   2  -7 76032.7 2820.07   2
  -2  11  -7 73519.7 3180.76   1
   2   9  -7 78560.1 2975.64   4
 -11   2  -7 66180.7 2809.62   4
   2   9  -7 69360.2 2373.34   3
  -2  11  -7 63266.2 2616.40   3
  -9  -2  -7 72622.2 2946.35   4
   2   9  -7 78043.3 3301.13   2
  11  -9  -7 85235.2 3780.50   2
  -9  -2  -4 89129.2 1370.82   1
   9 -11  -4 93143.6 3056.74   4
  11  -9  -4 88824.8 3048.78   2
   2   9  -4 88351.0 2626.53   2
   9 -11  -4 93348.2 3009.58   2
 -11   2  -4 91188.4 1567.96   1
  11  -9  -4 91617.7 3058.14   4
  -9  -2  -4 87029.3 1201.90   1
  -2  11  -4 87372.8 2754.52   1
   2   9  -4 88709.5 2233.04   4
  -2  11  -4 90355.3 2386.85   2
   2   9  -4 90460.7 2329.16   3
  -2  11  -4 88701.8 1991.91   4
  -2  11  -4 91320.2 2670.86   3
  11  -9  -1 122710. 2407.62   2
  11  -9  -1 122972. 2717.85   3
   9 -11  -1 124005. 2288.53   2
  11  -9  -1 128840. 2473.25   4
  11  -9  -1 129423. 2363.18   1
   9 -11  -1 127086. 2346.62   4
 -11   2  -1 134018. 3145.12   3
  -2  11  -1 124704. 2401.77   1
  -2  11  -1 131675. 1531.62   2
   2   9  -1 126064. 2426.87   1
  -9  -2  -1 132065. 3057.27   3
 -11   2  -1 129889. 1827.22   1
   9 -11  -1 129883. 2342.27   1
  11  -9   2 43367.8 1971.22   3
  -2  11   2 42154.7 1607.67   2
  11  -9   2 48114.8 1292.78   2
  -2  11   2 43368.0 1326.58   1
   9 -11   2 45894.2 1965.46   3
   2   9   2 48179.8 1615.54   4
   9 -11   2 43913.3 1641.32   1
  -2  11   2 44459.4 1471.30   4
  -9  -2   2 46736.6 1372.64   3
   2   9   2 44929.2 1081.27   1
 -11   2   2 43303.0 1321.92   3
   2   9   2 41975.7 1844.53   3
  11  -9   2 45568.0 1569.18   1
   9 -11   2 46365.5 1095.72   2
   2   9   2 44283.1 1649.18   2
   9 -11   5 83404.4 2577.55   2
  -2  11   5 78947.3 2486.87   1
  -2  11   5 80382.4 2761.03   3
   9 -11   5 80062.8 2955.78   3
  11  -9   5 79269.8 2728.97   2
   2   9   5 81401.0 2951.33   3
  11  -9   5 85001.1 3190.69   3
  -2  11   8 22617.3 1788.81   3
  11  -9   8 21584.2 1900.52   3
   2   9   8 21345.0 1885.81   3
   9 -11   8 20435.2 1791.50   3
  11  -9  11 21819.8 2203.22   3
  -2  11  11 34832.5 2493.49   3
   9 -11  11 17677.1 1974.98   3
   2   9  11 31442.2 2571.67   3
  -8  -3 -11 8847.88 1590.44   2
   8 -11 -11 7222.72 1866.09   4
  11  -8 -11 8843.33 1836.51   4
 -11   3 -11 11590.9 1623.26   4
  -3  11 -11 7609.88 1439.71   4
  -8  -3 -11 11274.5 1781.06   4
 -11   3 -11 9636.60 1287.25   1
  -3  11 -11 10681.8 1687.80   2
 -11   3 -11 12504.4 1639.00   2
   3   8 -11 10153.3 1871.30   2
  11  -8 -11 11374.1 2085.94   2
   3   8 -11 11614.9 1709.90   4
   8 -11 -11 7108.09 1744.04   2
  -3  11 -11 11289.7 1743.36   1
  -8  -3  -8 8559.38 1250.09   2
  -8  -3  -8 7239.18 889.702   1
 -11   3  -8 8643.07 1220.91   2
   3   8  -8 12155.9 1646.57   2
  -3  11  -8 9042.21 1130.30   4
  -8  -3  -8 11724.4 1407.20   4
   3   8  -8 10497.2 1345.60   4
  11  -8  -8 12054.3 1732.97   4
 -11   3  -8 8816.50 1219.32   4
   8 -11  -8 9588.48 1465.08   2
  11  -8  -8 8701.96 1565.61   2
  -3  11  -8 9902.43 1385.41   1
 -11   3  -8 9712.39 971.716   1
   8 -11  -8 11749.5 1634.17   4
   3   8  -8 7755.04 888.829   3
  -3  11  -8 9550.01 1327.05   2
  -3  11  -5 27893.0 1714.41   1
   8 -11  -5 25557.3 1806.86   4
  -8  -3  -5 33751.1 1716.81   2
  11  -8  -5 27515.2 1919.15   2
   3   8  -5 28355.5 1276.19   3
   3   8  -5 28318.1 1527.78   4
  11  -8  -5 25721.6 1865.78   4
  -3  11  -5 28328.4 1611.67   3
   8 -11  -5 28663.8 1844.80   2
 -11   3  -5 29523.2 1154.80   1
  -8  -3  -5 27183.4 1567.75   4
   3   8  -5 29849.8 1773.89   2
  -3  11  -5 26860.7 1331.17   4
  -3  11  -5 27910.1 1509.35   2
  -8  -3  -5 29050.5 1017.43   1
 -11   3  -5 28339.4 1483.46   2
  11  -8  -2 116258. 2637.19   4
  -3  11  -2 118052. 2592.06   1
   8 -11  -2 113614. 2555.89   2
   3   8  -2 111489. 2202.52   2
   8 -11  -2 119932. 2352.04   1
   8 -11  -2 114010. 2614.67   4
   3   8  -2 120479. 1786.97   4
  11  -8  -2 111204. 2389.62   1
 -11   3  -2 122366. 3206.28   3
  -8  -3  -2 120112. 3043.39   3
   3   8  -2 116667. 2689.26   1
  -3  11  -2 118440. 1742.29   2
  11  -8  -2 120199. 2763.58   2
 -11   3  -2 121033. 1585.95   1
  11  -8   1 28182.5 1496.12   3
   3   8   1 27020.2 1096.08   2
   3   8   1 29317.0 1033.13   4
   3   8   1 30564.0 1465.21   3
  -3  11   1 27435.4 1016.55   1
  -8  -3   1 28674.1 1213.32   3
   8 -11   1 25014.3 1145.41   1
  -3  11   1 28520.7 1074.21   2
  11  -8   1 29693.8 1107.28   1
 -11   3   1 28513.6 1231.90   3
   3   8   1 28828.6 793.128   1
  -3  11   1 28248.1 887.015   4
 -11   3   1 28174.3 1228.12   1
   8 -11   4 16514.1 1344.05   3
   8 -11   4 19051.1 1079.51   2
  -3  11   4 19738.2 1188.62   1
   3   8   4 19560.6 1429.76   4
  -3  11   4 18030.3 1309.78   4
   8 -11   4 18049.9 1183.89   4
  -3  11   4 17259.3 1405.29   2
  -8  -3   4 17544.4 1005.16   4
  -3  11   4 19668.0 1300.17   3
   3   8   4 17390.4 1380.97   3
   3   8   4 19358.9 935.335   1
  11  -8   4 18583.3 1210.88   2
  11  -8   4 17578.8 1460.83   3
  11  -8   4 18263.8 1199.31   1
   8 -11   7 8221.11 1167.86   3
   3   8   7 9176.35 1235.54   3
  -3  11   7 11946.7 1315.84   3
  11  -8   7 10719.7 1424.39   3
  11  -8  10 32919.1 2487.94   3
   8 -11  10 33019.9 2360.09   3
  -3  11  10 36620.2 2396.26   3
   3   8  10 38094.8 2673.74   3
  -7  -4 -12 3819.08 1330.33   4
  -7  -4 -12 1613.44 1068.83   2
  -4  11 -12 1851.09 1098.51   1
  11  -7 -12 2959.49 1491.13   4
   4   7 -12 1943.85 1498.50   2
 -11   4 -12 1508.80 950.137   4
 -11   4 -12 2200.94 1065.06   2
  -4  11 -12 1366.09 1058.21   4
   7 -11 -12 2247.71 1362.22   2
  11  -7 -12 2545.91 1421.74   2
 -11   4 -12 1990.91 898.141   1
   7 -11 -12 2529.67 1457.80   4
   4   7 -12 2890.68 1300.81   4
  -4  11 -12 1786.09 1231.83   2
 -11   4  -9 19476.3 1700.23   2
   7 -11  -9 20924.4 2227.11   2
  -7  -4  -9 18526.6 1851.60   4
  -7  -4  -9 18744.1 1793.56   2
   4   7  -9 19779.5 1921.75   4
  11  -7  -9 23598.5 2417.99   2
   7 -11  -9 16952.8 2005.75   4
 -11   4  -9 16525.9 1616.61   4
  11  -7  -9 23291.1 2313.16   4
  -4  11  -9 19184.0 1819.85   2
  -4  11  -9 18564.5 1850.30   1
  -4  11  -9 18500.8 1650.50   4
   4   7  -9 22971.3 2213.35   2
 -11   4  -9 20466.8 1527.16   1
   4   7  -6 1629.99 448.124   3
  -7  -4  -6 1563.25 637.799   2
 -11   4  -6 561.252 503.031   2
 -11   4  -6 2345.14 512.200   1
  -4  11  -6 1083.22 539.774   1
  -4  11  -6 316.022 424.060   4
  -4  11  -6 1352.42 574.302   2
  -7  -4  -6 1283.74 606.360   4
 -11   4  -6 1994.38 567.880   4
   4   7  -6 670.195 527.937   4
   7 -11  -6 1182.79 767.609   4
  11  -7  -6 844.936 701.091   4
  -7  -4  -6 1584.36 418.798   1
   4   7  -6 2566.16 892.428   2
  -4  11  -6 1812.50 682.487   3
  11  -7  -6 1974.28 824.730   2
   7 -11  -6 1401.65 775.803   2
   4   7  -3 30640.9 1431.92   2
  11  -7  -3 32783.4 1700.98   2
  -7  -4  -3 32918.3 1366.29   4
  11  -7  -3 30841.0 1424.99   1
   7 -11  -3 29299.8 1489.18   2
   7 -11  -3 30597.5 1242.95   1
   4   7  -3 29856.5 1202.82   4
  -4  11  -3 32522.5 1112.03   2
  -7  -4  -3 29598.7 1626.41   3
 -11   4  -3 31231.8 940.262   1
  -4  11  -3 30254.4 1477.07   1
 -11   4  -3 29517.1 1748.05   3
   7 -11  -3 32676.9 1611.82   4
  -4  11  -3 32941.7 1639.48   3
  11  -7  -3 29818.8 1564.97   4
  11  -7   0 20512.2 1201.93   3
 -11   4   0 18042.2 847.932   1
  11  -7   0 20088.8 862.575   1
   4   7   0 20495.8 1158.23   3
  -7  -4   0 20960.6 1133.17   3
  -4  11   0 18968.0 619.448   2
   7 -11   0 19292.4 559.244   2
   7 -11   0 21109.5 966.755   1
  -4  11   0 18017.1 854.342   1
   4   7   0 19531.1 787.748   1
   4   7   0 19143.0 651.161   4
   7 -11   0 19414.0 741.183   4
 -11   4   0 19288.4 1129.41   3
 -11   4   3 43756.3 1646.63   2
   7 -11   3 40751.9 1846.36   3
   4   7   3 43434.8 1775.36   4
   4   7   3 42653.0 1817.09   2
   7 -11   3 43910.0 1229.50   2
   4   7   3 42157.8 1057.21   1
  -7  -4   3 41636.1 1248.38   4
   4   7   3 43516.8 1968.37   3
  -7  -4   3 42848.9 1475.25   2
 -11   4   3 42932.7 1895.41   1
 -11   4   3 39433.8 1489.59   4
  11  -7   3 44104.7 2083.00   3
  -4  11   3 41224.6 1785.92   2
   7 -11   3 37724.1 1726.50   1
 -11   4   3 40606.1 1085.11   3
  11  -7   3 38481.1 1486.70   2
  11  -7   3 38196.0 1630.04   4
  11  -7   3 38966.4 1454.44   1
  -4  11   3 43756.4 1712.35   4
   7 -11   3 41634.8 1451.64   4
  -4  11   3 42991.5 1536.03   1
  11  -7   6 4569.47 999.617   3
   7 -11   6 4572.84 908.405   3
  -4  11   6 4625.18 854.135   1
   7 -11   6 4754.54 837.566   2
  -4  11   6 4259.59 766.986   3
   4   7   6 4694.86 993.934   3
   4   7   9 45300.4 2762.94   3
  -4  11   9 46414.5 2453.59   3
   7 -11   9 38751.6 2354.59   3
  11  -7   9 37391.1 2562.90   3
   7 -11  12 318.551 981.478   3
  11  -7  12 1748.31 1323.13   3
   4   7  12 1921.65 1248.80   3
  11  -6 -10 22437.1 2457.48   4
 -11   5 -10 22406.1 1924.59   2
   6 -11 -10 21265.9 2343.23   4
  11  -6 -10 18020.7 2338.34   2
  -6  -5 -10 23931.5 2182.32   4
 -11   5 -10 18558.5 1806.43   4
  -5  11 -10 21912.2 2144.52   1
 -11   5 -10 24535.0 1826.89   1
   5   6 -10 19182.4 2265.21   2
  -5  11 -10 22722.4 2082.56   2
   6 -11 -10 20744.4 2242.15   2
  -5  11 -10 22900.5 1988.71   4
   5   6 -10 19693.3 2016.46   4
  -6  -5 -10 17696.8 1954.94   2
 -11   5  -7 66128.4 2587.96   2
   6 -11  -7 69032.6 3322.57   4
   5   6  -7 70439.6 3256.14   2
  -5  11  -7 64265.5 2500.62   4
  11  -6  -7 68169.1 3441.62   2
  -6  -5  -7 64012.2 2062.61   1
   5   6  -7 69481.7 2928.98   4
  11  -6  -7 71796.8 3422.61   4
  -5  11  -7 67092.0 2892.14   1
  -5  11  -7 64585.3 2631.66   2
 -11   5  -7 70497.1 2734.99   4
   5   6  -7 62477.7 1638.75   3
   6 -11  -7 69805.7 3250.05   2
 -11   5  -7 66814.7 2285.87   1
  -6  -5  -7 64225.1 2781.51   2
  -6  -5  -7 64762.8 2874.73   4
   5   6  -4 60235.1 2026.64   4
  -5  11  -4 65640.2 2277.65   1
  -6  -5  -4 64740.6 2172.23   2
  -5  11  -4 63859.4 1701.26   4
   5   6  -4 53692.5 2156.59   2
  -5  11  -4 61834.3 1802.50   2
  -6  -5  -4 61691.9 2125.19   4
  11  -6  -4 60804.6 2423.95   4
 -11   5  -4 61899.2 1585.64   1
  -5  11  -4 62058.4 2317.11   3
   6 -11  -4 58791.9 2294.70   2
   6 -11  -4 58859.1 1804.66   1
  -6  -5  -4 65453.4 1125.42   1
  11  -6  -4 62027.5 2553.22   2
   6 -11  -4 55538.9 2327.72   4
  -6  -5  -1 146646. 3086.21   3
  11  -6  -1 143964. 2740.17   3
   5   6  -1 148119. 1778.47   4
   6 -11  -1 142347. 2401.79   4
 -11   5  -1 140457. 1975.43   1
  11  -6  -1 145305. 2646.56   4
  -5  11  -1 147968. 2545.51   1
   5   6  -1 144972. 2695.14   3
  11  -6  -1 144334. 2403.19   1
   6 -11  -1 145429. 2117.36   2
   6 -11  -1 140329. 2326.32   1
 -11   5  -1 145923. 3236.90   3
  11  -6  -1 148723. 2604.08   2
   5   6   2 99314.4 2337.21   2
 -11   5   2 103268. 2179.44   2
 -11   5   2 99538.9 2143.30   4
  11  -6   2 102564. 2115.41   2
   6 -11   2 100384. 1754.57   4
  11  -6   2 101875. 1986.42   1
  -5  11   2 99658.0 2140.18   1
   6 -11   2 99373.8 2476.78   1
 -11   5   2 98093.7 2076.44   3
  11  -6   2 100772. 2870.02   3
   5   6   2 104878. 1106.17   1
  -5  11   2 100990. 2348.68   2
   5   6   2 100768. 2326.07   4
  -5  11   2 100570. 2140.22   4
   6 -11   2 89396.6 1037.12   2
   5   6   2 104223. 2858.23   3
 -11   5   2 101765. 2594.59   1
   6 -11   5 62075.2 2066.20   2
   6 -11   5 60241.7 2246.49   4
   6 -11   5 63592.1 2424.78   3
   5   6   5 62436.8 2648.31   3
  -5  11   5 58373.4 2164.54   3
  -6  -5   5 58263.7 1975.75   4
  11  -6   5 59165.5 2678.76   3
  -5  11   5 61003.3 2366.73   1
   6 -11   8 69042.1 2843.79   3
  -5  11   8 78885.6 2998.83   3
   5   6   8 80596.8 3506.74   3
  11  -6   8 72718.0 3362.71   3
  -5  11  11 34109.8 2234.23   3
  11  -6  11 32132.6 2634.76   3
   5   6  11 34206.4 2698.14   3
   6 -11  11 25751.1 2060.44   3
 -11   6 -11 34568.3 2475.65   2
   5 -11 -11 31807.4 2882.20   2
 -11   6 -11 31303.8 2178.44   1
  -6  11 -11 34136.3 2673.22   1
 -11   6 -11 32414.3 2526.25   4
   6   5 -11 35386.9 2826.93   4
   5 -11 -11 38827.6 3236.11   4
  -6  11 -11 37367.8 2564.19   4
  -5  -6 -11 34449.3 2714.27   4
   6   5 -11 33273.9 3044.02   2
  -6  11 -11 32552.0 2499.62   2
  11  -5 -11 39696.1 3443.25   2
  11  -5 -11 31278.7 2943.96   4
  -5  -6 -11 32321.9 2619.60   2
  -6  11  -8 76320.6 2908.11   4
   5 -11  -8 72183.3 3470.22   2
 -11   6  -8 68122.8 2863.67   4
  -5  -6  -8 74303.7 3289.54   4
   6   5  -8 77941.3 3379.61   4
  11  -5  -8 71874.9 3611.48   4
   6   5  -8 78686.4 3744.79   2
  11  -5  -8 72846.4 3773.47   2
   5 -11  -8 77426.5 3695.24   4
  -6  11  -8 75780.8 3234.66   1
 -11   6  -8 77396.3 2950.45   2
  -6  11  -8 73720.4 3006.23   2
 -11   6  -8 75131.0 2695.21   1
  -5  -6  -8 62996.4 2907.56   2
 -11   6  -5 63316.8 2124.92   2
   6   5  -5 53159.0 2199.68   4
  -6  11  -5 62879.3 1989.70   4
   5 -11  -5 63969.0 2601.45   2
  -6  11  -5 67281.7 2459.38   1
  -6  11  -5 67817.6 2134.36   2
   6   5  -5 65647.2 2675.21   2
  11  -5  -5 65404.1 2773.39   4
   6   5  -5 67189.3 1468.45   3
  11  -5  -5 66219.4 2901.47   2
 -11   6  -5 64349.1 1942.58   1
  -5  -6  -5 69306.5 2453.40   2
  -5  -6  -5 66283.0 2481.80   4
   5 -11  -5 49623.9 2422.66   4
  -6  11  -5 63222.2 2470.70   3
  -5  -6  -5 64558.9 1480.18   1
  11  -5  -2 103136. 2031.66   3
  -6  11  -2 100236. 2733.81   3
  11  -5  -2 95302.5 2394.69   4
   6   5  -2 95614.0 2248.69   2
   6   5  -2 97918.3 1900.08   4
  -5  -6  -2 92538.5 1060.70   1
   6   5  -2 96763.9 2024.06   3
   5 -11  -2 97901.4 2325.39   4
   5 -11  -2 103813. 2006.11   1
   5 -11  -2 95882.2 2188.57   2
  11  -5  -2 98605.8 2478.29   2
  -5  -6  -2 105562. 2845.82   3
  11  -5  -2 98319.1 2274.59   1
 -11   6  -2 100681. 2867.86   3
 -11   6  -2 94340.7 1686.12   1
  11  -5   1 154028. 3327.32   3
  -6  11   1 157293. 2088.88   4
 -11   6   1 149864. 2710.33   1
   6   5   1 157266. 2425.20   4
  -6  11   1 161305. 2592.81   1
   5 -11   1 156438. 2820.31   1
 -11   6   1 157820. 2892.17   3
   6   5   1 156855. 1359.47   1
   6   5   1 157487. 3256.75   3
  11  -5   1 162468. 2186.15   1
  -6  11   1 153732. 2257.58   2
   6   5   4 71427.3 2696.16   3
  -5  -6   4 73234.6 1896.73   4
  -6  11   4 68820.8 2571.87   2
 -11   6   4 75218.5 1448.27   3
   6   5   4 73236.6 2629.97   4
  11  -5   4 69411.3 2731.13   3
   5 -11   4 73730.0 2154.69   4
  -6  11   4 71090.5 2197.27   3
  -6  11   4 73526.9 2366.33   1
  -6  11   4 74327.6 2456.78   4
   5 -11   4 73846.1 1931.48   2
  -5  -6   4 72996.9 2081.68   2
  11  -5   4 67924.1 2308.83   2
 -11   6   4 71813.4 2662.47   1
  -6  11   7 68303.2 2575.37   3
   6   5   7 61638.1 2952.39   3
  11  -5   7 68956.2 3129.86   3
   5 -11   7 61500.7 2513.98   3
   5 -11  10 17075.4 1602.03   3
  11  -5  10 19167.4 2075.11   3
  -6  11  10 21712.8 1699.94   3
   6   5  10 20393.5 2038.50   3
  -7  11 -12 1900.09 1057.33   2
 -11   7 -12 3441.71 1154.28   2
  -7  11 -12 1595.63 1175.09   1
  11  -4 -12 1069.53 1172.41   4
  -4  -7 -12 1458.80 1163.78   4
   7   4 -12 1338.15 1142.02   4
  -7  11 -12 2397.72 1062.29   4
   4 -11 -12 2552.52 1170.16   4
   7   4 -12 1808.42 1441.05   2
  11  -4 -12 4329.93 1687.97   2
 -11   7 -12 2094.10 960.514   1
 -11   7 -12 4077.29 1201.03   4
   4 -11 -12 1877.14 1355.56   2
  -4  -7 -12 1146.85 1055.53   2
  -7  11  -9 39086.8 2459.84   1
  11  -4  -9 32906.9 2721.51   4
  -4  -7  -9 36317.2 2590.89   4
   7   4  -9 37561.9 2851.99   2
 -11   7  -9 38491.2 2163.28   1
   7   4  -9 36990.9 2634.14   4
   4 -11  -9 38260.6 2801.54   4
  -7  11  -9 38520.8 2264.39   4
 -11   7  -9 34318.8 2245.71   4
  -7  11  -9 33907.3 2271.15   2
  11  -4  -9 37284.0 2970.94   2
   4 -11  -9 35383.4 2633.41   2
  -4  -7  -9 34029.2 2379.01   2
 -11   7  -9 37160.6 2278.29   2
 -11   7  -6 6035.44 822.006   2
  -4  -7  -6 4026.21 762.744   2
  -4  -7  -6 5306.36 919.672   4
  11  -4  -6 5401.17 1271.64   2
  -7  11  -6 4318.93 764.206   1
  -7  11  -6 4507.89 758.708   4
   4 -11  -6 4890.22 929.820   2
   7   4  -6 4889.88 934.069   4
   7   4  -6 5396.27 1115.69   2
   4 -11  -6 4567.49 1007.12   4
  11  -4  -6 3472.93 902.782   4
  -7  11  -6 3221.08 646.510   2
 -11   7  -6 4131.20 637.612   1
  -4  -7  -6 4447.65 537.186   1
  11  -4  -3 48776.2 1146.95   3
   4 -11  -3 48789.4 1451.29   1
  11  -4  -3 44274.2 1754.07   1
   7   4  -3 43369.5 1778.74   2
  -4  -7  -3 45026.4 1627.12   4
  -4  -7  -3 45663.8 1962.99   3
  -7  11  -3 47991.4 1136.15   2
  11  -4  -3 41949.7 1900.63   2
  -7  11  -3 43533.1 1676.67   1
   4 -11  -3 45641.6 1812.25   4
   4 -11  -3 48804.3 1780.98   2
   7   4  -3 46471.2 1266.08   3
 -11   7  -3 46133.0 2085.78   3
   7   4  -3 44276.7 1611.62   4
  -4  -7  -3 46628.6 1656.03   2
 -11   7  -3 46712.3 1376.82   1
  -4  -7  -3 48566.2 885.659   1
  11  -4  -3 43550.5 1823.36   4
  -7  11  -3 41878.5 1925.94   3
  -7  11   0 20758.4 1207.46   3
   4 -11   0 21702.4 697.537   4
  11  -4   0 21110.3 825.756   1
   7   4   0 21199.0 1169.36   3
 -11   7   0 19809.7 894.888   1
   4 -11   0 22423.4 1010.61   1
 -11   7   0 21314.6 1241.40   3
  -7  11   0 19082.6 472.667   2
  11  -4   0 19805.8 1164.98   3
  -7  11   0 19527.1 908.243   1
  -7  11   3 34635.2 1507.02   1
 -11   7   3 34878.4 1537.14   2
   7   4   3 36565.7 1664.23   4
  -4  -7   3 37783.6 1297.84   2
   7   4   3 34083.0 1811.48   3
   4 -11   3 39503.6 1299.53   4
  11  -4   3 35280.0 1556.23   4
  -7  11   3 34803.5 1482.96   4
  -7  11   3 35068.9 1622.55   2
  -4  -7   3 36748.3 1085.51   4
  11  -4   3 34366.1 1538.91   2
 -11   7   3 34048.1 1453.25   4
   7   4   3 37145.4 1664.10   2
 -11   7   3 37075.0 1230.84   3
  11  -4   3 36769.7 1234.41   1
  11  -4   3 37345.0 1951.27   3
 -11   7   3 33176.6 1690.39   1
   4 -11   3 38225.4 1033.33   2
  11  -4   6 1901.61 799.854   3
   4 -11   6 1566.19 627.957   4
  -7  11   6 1356.01 586.381   3
 -11   7   6 1072.63 259.142   3
   4 -11   6 2031.64 652.586   2
   7   4   6 345.985 629.340   3
  -7  11   6 2353.54 743.880   1
 -11   7   6 1526.68 254.421   3
  -7  11   9 20725.1 1559.10   3
   7   4   9 19723.7 1949.35   3
  11  -4   9 21376.4 2025.37   3
  11  -4  12 1654.04 1278.08   3
   7   4  12 2565.15 1299.16   3
  11  -3 -10 31849.8 2824.78   4
   8   3 -10 28798.4 2491.83   4
  11  -3 -10 32747.4 2955.46   2
 -11   8 -10 33688.2 2190.52   1
  -3  -8 -10 31681.0 2518.40   4
   3 -11 -10 28644.6 2550.68   2
 -11   8 -10 34288.3 2348.93   4
  -8  11 -10 28046.6 2218.08   2
   3 -11 -10 26696.0 2565.36   4
 -11   8 -10 31008.9 2227.31   2
  -8  11 -10 32576.6 2259.16   4
  -8  11 -10 28127.7 2234.81   1
   8   3 -10 31184.5 2831.21   2
  -3  -8 -10 28980.1 2353.47   2
 -11   8  -7 10267.2 1082.73   2
  -3  -8  -7 10151.9 1225.13   2
   8   3  -7 8716.64 1245.65   4
  11  -3  -7 10417.3 1455.20   4
 -11   8  -7 8479.82 1099.37   4
  -8  11  -7 9386.91 1161.31   1
 -11   8  -7 10664.6 1066.98   1
  -3  -8  -7 9671.58 1243.42   4
  11  -3  -7 10573.1 1525.59   2
   8   3  -7 11230.5 1556.14   2
  -8  11  -7 9518.86 1079.61   2
  -8  11  -7 11813.2 1155.07   4
   3 -11  -7 8777.85 1307.39   2
  -3  -8  -7 8297.28 808.984   1
   3 -11  -7 8965.17 1366.88   4
  -3  -8  -4 20585.2 1312.39   4
   3 -11  -4 21542.0 1003.28   1
   3 -11  -4 18691.8 1365.23   4
   8   3  -4 18855.5 723.370   3
  11  -3  -4 19432.1 1453.75   4
   8   3  -4 22273.2 1568.58   2
  -3  -8  -4 21506.8 772.109   1
  -8  11  -4 17167.2 1369.83   3
  -8  11  -4 19343.0 935.821   2
  -3  -8  -4 19363.6 1243.08   2
 -11   8  -4 20405.6 1067.53   1
  11  -3  -4 21343.0 1565.19   2
  -8  11  -4 19271.1 1220.31   1
   8   3  -4 19659.2 1280.25   4
   3 -11  -4 20838.5 1355.44   2
   3 -11  -1 31618.2 932.907   2
  -3  -8  -1 30912.4 928.426   1
   8   3  -1 25572.4 981.046   4
  11  -3  -1 27958.9 1234.21   2
   3 -11  -1 28802.0 1010.34   4
  11  -3  -1 29764.6 1221.93   4
  -8  11  -1 28181.1 1132.10   1
   8   3  -1 27541.9 1206.72   3
  -8  11  -1 23222.6 1362.42   3
   3 -11  -1 29151.2 1050.91   1
 -11   8  -1 27707.6 1017.62   1
  11  -3  -1 28885.6 1241.90   3
 -11   8  -1 27130.8 1477.11   3
  11  -3  -1 29469.6 1118.18   1
   8   3   2 116417. 2519.07   4
 -11   8   2 115644. 2348.00   2
   3 -11   2 112356. 2778.97   1
 -11   8   2 112046. 2640.94   1
   8   3   2 114709. 3044.61   3
  -8  11   2 114459. 2464.93   2
  11  -3   2 109044. 3027.27   3
  -8  11   2 111678. 2240.63   4
  11  -3   2 115784. 1742.05   1
   8   3   2 117570. 2583.27   2
 -11   8   2 111036. 2294.43   4
   3 -11   2 113964. 1584.21   4
  -8  11   2 108555. 2409.51   1
 -11   8   2 112139. 2377.70   3
  -3  -8   5 27837.7 1437.36   2
   3 -11   5 30841.3 1438.69   2
  -8  11   5 28663.9 1419.27   3
 -11   8   5 31618.4 1094.26   3
   3 -11   5 30722.8 1562.41   4
  -3  -8   5 30373.5 1442.34   4
 -11   8   5 30779.8 1943.94   1
 -11   8   5 32104.7 1076.11   3
   8   3   5 31081.7 1948.12   3
  -8  11   5 30886.9 1817.59   1
  11  -3   5 33061.7 2046.51   3
   8   3   8 8395.48 1451.11   3
  -8  11   8 9309.28 1027.06   3
 -11   8   8 5394.50 505.253   3
 -11   8   8 6177.08 533.087   3
  11  -3   8 7365.95 1275.57   3
  11  -3  11 9622.54 1604.00   3
   8   3  11 10297.0 1737.10   3
  -9  11 -11 26437.1 2183.43   4
  -2  -9 -11 28199.8 2479.25   2
   9   2 -11 32891.0 3109.83   2
   9   2 -11 27100.3 2565.66   4
  11  -2 -11 33503.7 3223.71   2
  11  -2 -11 32643.1 2931.88   4
 -11   9 -11 28721.7 2339.95   4
   2 -11 -11 26237.9 2641.20   4
  -9  11 -11 28786.7 2313.73   1
  -2  -9 -11 24530.8 2482.81   4
   2 -11 -11 30731.3 2691.11   2
  -9  11 -11 25676.5 2194.56   2
 -11   9 -11 29849.6 2256.84   1
 -11   9 -11 26741.2 2242.38   2
  -9  11  -8 22997.6 1764.67   1
 -11   9  -8 17579.9 1564.73   4
  11  -2  -8 18963.6 2068.30   2
  11  -2  -8 20553.4 2017.40   4
  -2  -9  -8 18546.6 1835.11   4
   9   2  -8 21246.7 2009.95   4
 -11   9  -8 21456.2 1589.65   1
   2 -11  -8 19239.0 1954.25   4
   2 -11  -8 21525.9 1925.46   2
   9   2  -8 22706.7 2211.87   2
  -9  11  -8 21341.1 1632.39   4
  -9  11  -8 20985.8 1617.36   2
  -2  -9  -8 21757.9 1859.97   2
 -11   9  -8 21144.5 1596.10   2
  -2  -9  -5 77921.5 1792.68   1
   2 -11  -5 77721.7 2855.15   4
   9   2  -5 82941.5 3181.13   2
 -11   9  -5 66395.8 2039.86   2
  11  -2  -5 73357.7 2915.10   4
  -2  -9  -5 80549.8 2817.40   4
 -11   9  -5 80872.3 2335.02   1
  -9  11  -5 67645.6 2372.42   1
   9   2  -5 75948.4 2785.12   4
   2 -11  -5 77281.9 2007.43   1
  11  -2  -5 77357.2 3142.17   2
  -2  -9  -5 79569.5 2678.15   2
   2 -11  -5 75713.1 2750.86   2
  -9  11  -5 81281.1 2156.74   2
   9   2  -2 49781.3 1462.50   3
 -11   9  -2 53912.3 2182.77   3
  11  -2  -2 51153.3 1717.68   4
   9   2  -2 46520.5 1690.08   1
  -2  -9  -2 51241.6 1128.53   1
   2 -11  -2 50311.4 1596.83   4
  -9  11  -2 49447.2 1583.41   1
  -2  -9  -2 49021.4 1455.00   4
  11  -2  -2 51237.4 1722.41   1
   2 -11  -2 50744.9 1331.15   1
  11  -2  -2 52000.7 1876.21   2
 -11   9  -2 49276.5 1445.87   1
  11  -2  -2 51904.4 1474.77   3
   9   2  -2 52614.4 1840.25   2
   9   2  -2 49135.3 1539.89   4
   2 -11  -2 47900.7 1469.87   2
  -9  11  -2 49163.4 2051.58   3
  -9  11   1 142889. 2114.03   2
   2 -11   1 141039. 2798.85   1
   9   2   1 133727. 1200.32   1
 -11   9   1 137919. 2890.14   3
  -9  11   1 131582. 2528.72   1
  -9  11   1 134765. 2971.20   3
   9   2   1 133257. 3078.65   3
  11  -2   1 135517. 3131.88   3
 -11   9   1 131388. 2563.42   1
  11  -2   1 144839. 1713.05   1
 -11   9   4 95661.2 2111.38   3
  -2  -9   4 97184.3 2140.64   4
 -11   9   4 99581.1 3125.31   1
   2 -11   4 96368.5 2280.94   4
  -9  11   4 93989.9 2881.06   1
   9   2   4 96365.7 3169.98   3
   2 -11   4 97285.6 2109.54   2
  -9  11   4 96001.7 2952.05   2
  11  -2   4 94584.1 3187.59   3
  -2  -9   4 97286.8 2216.50   2
   9   2   7 69211.2 3209.34   3
  -9  11   7 75991.4 2462.52   3
 -11   9   7 72922.9 1862.51   3
  11  -2   7 72743.8 3237.62   3
   9   2  10 6885.13 1501.75   3
  -9  11  10 9923.10 1060.56   3
  11  -2  10 6064.42 1380.10   3
 -11  10 -12 1587.58 984.279   4
   1 -11 -12 1116.06 1285.94   2
  -1 -10 -12 483.019 1041.80   2
  10   1 -12 2296.04 1199.01   4
 -10  11 -12 333.828 858.684   1
   1 -11 -12 414.523 1155.55   4
 -10  11 -12 1058.56 955.891   4
 -11  10 -12 1479.14 1011.43   2
  -1 -10 -12 1651.92 1320.31   4
 -11  10 -12 996.964 882.718   1
 -10  11 -12 2833.32 1076.23   2
  10   1 -12 1846.75 1658.08   2
  11  -1 -12 2689.00 1822.20   2
  11  -1 -12 2604.55 1405.79   4
  11  -1  -9 10517.0 1849.30   2
 -10  11  -9 13174.3 1454.91   1
   1 -11  -9 13985.8 1776.00   4
  10   1  -9 12602.5 1707.75   4
   1 -11  -9 12816.3 1734.70   2
 -11  10  -9 11688.1 1432.23   4
  10   1  -9 13624.5 1912.19   2
 -11  10  -9 13536.1 1384.59   1
 -10  11  -9 11578.4 1332.04   4
  -1 -10  -9 11038.7 1612.54   4
 -10  11  -9 10577.2 1361.07   2
 -11  10  -9 12568.7 1381.03   2
  -1 -10  -9 11838.3 1550.28   2
  11  -1  -9 10107.6 1593.06   4
 -11  10  -6 7104.56 836.626   2
  11  -1  -6 6340.40 1153.11   2
   1 -11  -6 6244.86 678.479   1
 -10  11  -6 6632.85 817.803   2
 -11  10  -6 5437.99 745.203   1
  -1 -10  -6 5658.96 624.954   1
   1 -11  -6 7293.98 1082.66   4
  10   1  -6 8534.67 1152.18   4
 -10  11  -6 7526.74 921.941   1
  11  -1  -6 4899.94 1078.56   4
  10   1  -6 6390.02 1092.56   2
  -1 -10  -6 7502.34 1103.20   4
   1 -11  -6 6302.16 1120.91   2
  -1 -10  -6 7191.17 992.704   2
  11  -1  -3 47555.2 1846.04   4
  10   1  -3 46188.7 1908.88   1
  11  -1  -3 48253.3 1903.61   1
  10   1  -3 45566.2 1777.72   4
 -10  11  -3 48433.8 2201.07   3
  11  -1  -3 46137.5 2030.58   2
   1 -11  -3 48477.3 1840.23   4
  -1 -10  -3 49765.3 1797.44   4
   1 -11  -3 50423.1 1316.33   1
 -11  10  -3 50562.5 1631.90   1
  -1 -10  -3 51569.2 1236.58   1
 -10  11  -3 49552.5 1696.18   1
  10   1  -3 51415.3 1306.15   3
  -1 -10  -3 54820.7 1845.43   2
  10   1  -3 53684.3 2105.91   2
  11  -1  -3 50727.5 1253.43   3
 -11  10  -3 47684.9 2175.11   3
   1 -11  -3 49835.8 1764.46   2
  10   1   0 1548.10 267.511   1
  -1 -10   0 2043.22 393.157   1
 -10  11   0 1291.23 355.182   1
 -11  10   0 1972.89 620.308   3
   1 -11   0 1642.91 359.280   1
  11  -1   0 2053.86 300.032   1
 -11  10   0 2115.01 368.883   1
 -10  11   0 2307.20 584.118   3
  10   1   0 1871.60 535.265   3
  11  -1   0 1661.74 529.369   3
  10   1   3 34912.9 1645.20   2
  11  -1   3 35389.4 1626.66   2
 -11  10   3 37260.3 1465.50   3
   1 -11   3 38398.7 1078.18   2
   1 -11   3 35727.6 1058.06   4
 -11  10   3 37884.9 1607.97   2
 -11  10   3 36457.7 1728.93   1
  -1 -10   3 37293.1 1019.67   4
  10   1   3 32472.6 1618.32   4
 -11  10   3 33523.0 1438.08   4
  10   1   3 36470.7 1918.28   3
  11  -1   3 37480.6 1699.37   4
 -10  11   3 37370.4 1695.26   1
  11  -1   3 33765.6 1894.85   3
 -10  11   3 34821.0 1457.78   4
 -10  11   3 35290.3 1581.10   2
  10   1   6 851.433 936.464   3
   1 -11   6 351.824 504.177   4
  -1 -10   6-204.062 467.210   4
  11  -1   6 404.163 811.249   3
 -10  11   6 493.691 451.068   3
 -11  10   6 35.3333 333.650   3
 -11  10   6-243.131 571.452   1
 -10  11   6 81.7293 614.634   1
 -10  11   9 24070.4 1451.71   3
 -11  10   9 24157.5 1221.41   3
  10   1   9 24457.8 2234.28   3
  11  -1   9 23364.6 2162.26   3
  11  -1  12 1575.70 1227.74   3
  10   1  12 927.781 1153.86   3
   0 -11 -10 480.528 1044.10   2
 -11  11 -10 1731.25 845.429   4
  11   0 -10 1592.34 1044.07   4
 -11  11 -10 960.029 693.523   2
   0 -11 -10 1004.85 907.053   4
  11   0 -10 1575.10 1113.35   2
 -11  11 -10 880.554 693.143   1
 -11  11  -7 58.2328 500.268   2
 -11  11  -7 450.334 468.608   1
   0 -11  -7 787.189 740.083   2
   0 -11  -7-652.409 697.707   4
  11   0  -7-566.554 619.011   4
  11   0  -7 153.932 763.073   2
   0 -11  -4 51831.3 1418.32   1
   0 -11  -4 44382.5 1936.11   4
  11   0  -4 48601.8 2270.70   2
 -11  11  -4 49620.3 1813.04   1
  11   0  -4 45266.8 870.392   3
  11   0  -4 50319.5 2115.91   4
   0 -11  -4 49881.2 1951.89   2
 -11  11  -1 177.051 241.979   1
  11   0  -1-13.2015 276.511   4
   0 -11  -1 180.309 249.586   1
  11   0  -1 73.2401 266.579   1
   0 -11  -1 8.23671 199.629   4
 -11  11  -1-467.915 581.340   3
  11   0  -1 31.2502 406.381   3
 -11  11   2 11727.0 781.828   4
 -11  11   2 12521.9 864.467   2
  11   0   2 12394.2 421.852   1
  11   0   2 11586.0 1108.20   3
 -11  11   2 14959.7 1056.22   3
 -11  11   2 13169.6 998.481   1
  11   0   5-243.692 658.126   3
 -11  11   5-726.293 545.499   1
   0 -11   5 594.363 425.014   4
   0 -11   5 36.9489 345.589   2
  11   0   8 10044.6 1494.44   3
 -11  11   8 9675.30 913.549   3
  11   0  11 8.72131 1012.33   3
  12 -12 -12 543.596 1369.52   4
 -12   0 -12 1256.64 1146.21   4
   0  12 -12 2661.25 1423.42   1
 -12   0 -12 3921.47 1262.23   2
  12 -12 -12 4034.20 1757.64   2
   0  12 -12 153.358 940.319   4
   0  12 -12 2221.53 1284.29   2
   0  12  -9 36.4446 916.690   2
  12 -12  -9-232.011 951.907   4
 -12   0  -9-383.946 440.879   1
 -12   0  -9 67.9821 623.729   4
   0  12  -9 163.918 706.533   4
  12 -12  -9 1943.72 1110.09   2
 -12   0  -9 2106.41 835.919   2
   0  12  -9-184.064 865.319   1
   0  12  -6 23855.6 1814.30   1
   0  12  -6 25526.2 1703.37   2
   0  12  -6 19445.5 1286.78   4
  12 -12  -6 26442.2 2107.14   4
 -12   0  -6 25139.6 986.869   1
  12 -12  -6 27515.9 2090.80   2
   0  12  -6 21291.0 1493.95   3
 -12   0  -3 125.806 86.7737   1
  12 -12  -3-613.229 516.516   4
  12 -12  -3 58.5063 539.247   2
   0  12  -3-83.2802 183.458   4
   0  12  -3 250.417 367.253   2
   0  12  -3 288.068 471.272   1
 -12   0   0 4511.80 661.761   3
   0  12   0 5358.01 474.581   2
  12 -12   0 4664.20 758.059   3
   0  12   0 4526.87 498.460   1
  12 -12   0 5530.45 499.533   2
  12 -12   0 5455.13 585.675   1
  12 -12   0 5529.56 583.736   4
  12 -12   3 215.940 599.714   3
 -12   0   3-94.5205 273.332   3
  12 -12   3-124.866 339.932   4
  12 -12   3 274.818 421.847   1
   0  12   3-371.077 283.670   1
   0  12   3 247.614 544.422   3
   0  12   3 188.318 398.466   4
   0  12   3 0.67938 503.439   2
  12 -12   3 366.751 322.718   2
   0  12   6 43272.4 2407.17   3
  12 -12   6 45866.9 2559.84   3
  12 -12   9 1047.58 908.430   3
   0  12   9-927.327 996.053   3
  12 -12  12 2494.88 1315.23   3
   0  12  12 2777.08 1321.01   3
 -12   1 -10 31159.8 2356.73   2
  -1  12 -10 37257.0 2882.08   1
 -12   1 -10 32630.0 1853.30   1
  12 -11 -10 37392.1 3139.74   4
  -1  12 -10 35544.8 2409.44   4
   1  11 -10 30040.0 2308.15   4
  12 -11 -10 34461.8 3090.04   2
 -11  -1 -10 32817.2 2368.42   2
  11 -12 -10 32999.8 2991.37   4
   1  11 -10 36028.4 2717.62   2
  11 -12 -10 34678.5 2977.00   2
  -1  12 -10 33588.1 2628.47   2
 -11  -1 -10 32123.9 2425.28   4
 -12   1 -10 37521.4 2509.28   4
   1  11 -10 31250.2 2723.06   1
 -11  -1 -10 33704.7 1892.73   1
 -11  -1  -7 76011.5 2872.74   2
 -11  -1  -7 72597.1 2174.95   1
   1  11  -7 79428.0 3460.27   1
  11 -12  -7 72087.8 3558.30   4
  12 -11  -7 75312.2 3651.92   2
 -11  -1  -7 78106.2 2046.93   1
 -12   1  -7 74752.1 2059.59   1
  12 -11  -7 71454.7 3555.47   4
   1  11  -7 72507.5 2747.13   4
  -1  12  -7 73241.2 2668.22   4
  -1  12  -7 80148.5 3389.32   1
 -11  -1  -7 74299.9 2906.27   4
  -1  12  -7 78492.7 3112.91   2
  11 -12  -7 73052.9 3534.02   2
   1  11  -7 74173.4 3162.87   2
 -12   1  -7 77511.6 2871.45   2
   1  11  -7 68068.1 2499.16   3
   1  11  -4 62230.4 2469.71   1
  12 -11  -4 61487.9 2639.15   4
  -1  12  -4 63455.1 2425.20   1
   1  11  -4 66018.8 1793.69   4
  11 -12  -4 60165.8 2540.45   2
   1  11  -4 62402.8 2205.20   2
  -1  12  -4 63343.4 2093.50   2
   1  11  -4 64495.6 2177.61   3
 -11  -1  -4 53207.2 821.750   1
  12 -11  -4 62099.9 2590.30   2
  -1  12  -4 62182.1 1613.13   4
  11 -12  -4 63935.9 2643.19   4
  -1  12  -4 61051.2 2280.40   3
 -12   1  -4 61237.1 1083.75   1
  12 -11  -1 216838. 3254.16   1
  11 -12  -1 207722. 3136.09   2
  12 -11  -1 204219. 3215.09   2
  11 -12  -1 209172. 3256.41   4
  -1  12  -1 212832. 3263.39   1
   1  11  -1 213004. 3244.98   1
  12 -11  -1 216138. 3344.63   4
 -11  -1  -1 205873. 4054.08   3
 -12   1  -1 205660. 4090.29   3
 -12   1  -1 209171. 2466.93   1
  11 -12  -1 208522. 3168.29   1
  12 -11   2 98064.7 1804.50   2
  12 -11   2 101857. 3146.58   3
  11 -12   2 95590.5 2996.25   3
   1  11   2 101842. 2978.08   3
   1  11   2 98542.3 1798.95   1
  -1  12   2 98248.4 1988.24   1
  11 -12   2 98819.2 2554.68   1
  -1  12   2 101258. 2276.30   4
  -1  12   2 97967.1 2492.62   2
 -11  -1   2 102340. 2150.71   3
  -1  12   2 100302. 2853.66   3
 -12   1   2 97800.4 2119.93   3
  12 -11   2 99832.4 2458.40   1
   1  11   2 101783. 2358.55   4
   1  11   2 99071.9 2509.95   2
  11 -12   2 95450.7 1628.46   2
  11 -12   5 48742.9 2456.78   3
  -1  12   5 48321.1 1924.80   1
  -1  12   5 50017.3 2356.54   3
  12 -11   5 50378.5 2166.49   2
  12 -11   5 50858.3 2586.64   3
   1  11   5 50041.2 2425.89   3
  11 -12   5 53917.6 2132.20   2
   1  11   5 46534.6 1780.65   1
  11 -12   8 19870.6 1905.74   3
  -1  12   8 21722.2 1870.18   3
  12 -11   8 19474.9 1898.23   3
   1  11   8 22164.4 1920.64   3
  12 -11  11 49047.0 3207.00   3
  11 -12  11 44284.3 3008.19   3
  -1  12  11 58650.7 3343.50   3
   1  11  11 57863.8 3414.62   3
  10 -12 -11 11840.6 2146.46   2
 -12   2 -11 13281.6 1730.04   2
  -2  12 -11 9518.11 1800.19   1
  10 -12 -11 13627.2 2135.45   4
   2  10 -11 9986.09 1608.16   4
  12 -10 -11 13055.0 2228.25   4
  -2  12 -11 13663.7 1724.19   4
 -10  -2 -11 11770.0 1294.81   1
   2  10 -11 12888.1 2013.46   2
  12 -10 -11 13053.3 2266.74   2
  -2  12 -11 13689.9 1852.61   2
 -10  -2 -11 10250.2 1594.53   4
 -12   2 -11 10593.9 1257.07   1
 -10  -2 -11 12446.1 1707.91   2
 -12   2 -11 11862.4 1622.66   4
  10 -12  -8 6417.27 1499.41   4
  10 -12  -8 5595.57 1232.52   2
 -10  -2  -8 4204.69 957.279   2
 -10  -2  -8 4468.52 710.004   1
  -2  12  -8 7428.65 1282.99   1
   2  10  -8 3218.22 1076.05   2
  12 -10  -8 5594.79 1387.46   2
  -2  12  -8 4365.21 888.803   4
 -10  -2  -8 3648.37 966.694   4
 -12   2  -8 3301.04 896.150   4
   2  10  -8 5599.58 1065.85   4
  -2  12  -8 5324.02 1047.57   2
 -10  -2  -8 3838.78 714.382   1
 -12   2  -8 4604.67 1074.36   2
  12 -10  -8 4251.52 1173.67   4
 -12   2  -8 5141.32 731.097   1
   2  10  -8 3027.49 778.959   3
 -12   2  -5 25986.1 962.707   1
  -2  12  -5 23145.3 1489.31   3
   2  10  -5 27884.9 1729.94   2
   2  10  -5 24350.0 1351.58   3
  -2  12  -5 26266.9 1275.33   4
 -10  -2  -5 25788.7 817.381   1
  12 -10  -5 24997.0 1864.20   4
 -10  -2  -5 27868.1 945.243   1
  10 -12  -5 23913.9 1789.44   4
   2  10  -5 24706.6 1385.86   4
  12 -10  -5 26861.3 1918.93   2
  -2  12  -5 23600.1 1455.85   2
  10 -12  -5 21691.9 1702.44   2
  -2  12  -5 23650.9 1623.10   1
  -2  12  -2 12357.9 950.559   1
  10 -12  -2 11206.3 805.088   1
  12 -10  -2 10744.8 940.460   2
   2  10  -2 10208.4 708.510   2
  10 -12  -2 10593.9 884.090   2
 -12   2  -2 11742.4 509.446   1
   2  10  -2 10926.9 488.877   4
  -2  12  -2 12128.6 641.481   2
  10 -12  -2 11154.0 909.402   4
 -10  -2  -2 10044.2 1033.47   3
 -12   2  -2 9764.52 1038.87   3
  12 -10  -2 9008.22 826.280   4
  12 -10  -2 9741.17 786.120   1
   2  10  -2 11960.1 908.872   1
  -2  12   1 10065.6 653.679   1
  -2  12   1 8477.64 673.334   2
   2  10   1 10032.9 720.998   2
 -12   2   1 8637.85 759.912   3
  12 -10   1 9373.87 727.243   1
  10 -12   1 8725.16 774.632   1
   2  10   1 9822.36 943.169   3
   2  10   1 9689.13 648.238   4
  -2  12   1 9758.23 564.160   4
  12 -10   1 10004.4 1023.14   3
 -12   2   1 8644.79 746.166   1
   2  10   1 9224.09 549.909   1
  10 -12   1 8224.86 387.545   2
 -10  -2   1 9794.78 807.320   3
  12 -10   4 7530.83 1096.13   3
   2  10   4 6306.38 588.217   1
  10 -12   4 7277.48 1041.79   3
  -2  12   4 7066.88 893.965   4
 -10  -2   4 4998.72 582.443   4
   2  10   4 6764.92 914.514   4
  12 -10   4 5838.67 809.330   1
  10 -12   4 5768.71 648.988   2
  -2  12   4 5308.45 656.268   1
  -2  12   4 5707.73 860.183   3
  -2  12   4 5250.30 978.332   2
  12 -10   4 4795.23 664.152   2
  10 -12   4 5019.95 718.002   4
   2  10   4 6681.16 972.821   3
  -2  12   7 8489.58 1187.87   3
   2  10   7 9090.23 1246.51   3
  10 -12   7 10810.1 1453.14   3
  12 -10   7 8539.34 1353.08   3
  12 -10  10 3321.38 1111.74   3
  10 -12  10 3689.28 1099.11   3
   2  10  10 4960.07 1267.22   3
  -2  12  10 5473.34 1257.17   3
 -12   3 -12 8139.27 1596.77   2
   3   9 -12 6750.76 1489.78   4
 -12   3 -12 6996.05 1149.08   1
   9 -12 -12 6987.54 1829.55   4
  -3  12 -12 8316.06 1497.73   4
  12  -9 -12 7116.19 1966.75   2
  -9  -3 -12 5146.12 1381.75   4
  -3  12 -12 6369.08 1531.51   1
  -9  -3 -12 5792.08 1353.64   2
  12  -9 -12 6576.00 1874.55   4
   3   9 -12 7867.66 1797.15   2
   9 -12 -12 4346.22 1609.71   2
 -12   3 -12 7192.97 1446.14   4
  -3  12 -12 5937.45 1500.73   2
  -9  -3  -9 924.673 738.420   4
 -12   3  -9 599.471 746.631   4
  -9  -3  -9 245.431 723.485   2
 -12   3  -9 1034.76 843.864   2
   3   9  -9-175.998 988.630   2
 -12   3  -9 877.316 575.285   1
   9 -12  -9 1212.62 1034.54   4
   3   9  -9 715.081 699.561   4
  -3  12  -9-554.389 731.256   4
  12  -9  -9 447.128 893.892   4
  12  -9  -9 695.923 1101.77   2
   9 -12  -9 2407.20 1171.25   2
  -3  12  -9-464.922 769.284   2
  -3  12  -9 832.717 810.013   1
  -9  -3  -6 31610.4 1872.19   4
  -9  -3  -6 33757.8 1858.53   2
  -9  -3  -6 32754.5 1224.40   1
   3   9  -6 30373.7 1972.07   2
   9 -12  -6 33463.4 2216.13   2
  -3  12  -6 29099.8 1923.36   1
  -3  12  -6 30329.8 1561.86   4
  12  -9  -6 31943.3 2285.10   2
   3   9  -6 31200.1 1745.09   4
  -9  -3  -6 32192.1 1228.84   1
   9 -12  -6 33526.2 2229.73   4
 -12   3  -6 31918.7 1321.28   1
  -3  12  -6 30229.1 1758.37   2
   3   9  -6 29432.4 1446.27   3
  12  -9  -6 30575.7 2168.08   4
 -12   3  -6 31694.4 1744.99   2
   3   9  -3 11755.5 732.075   4
  -3  12  -3 12446.4 1110.09   3
  -3  12  -3 13597.8 1048.55   1
   3   9  -3 11054.4 998.517   1
   9 -12  -3 12380.8 1042.07   2
  12  -9  -3 12156.3 1109.71   4
  12  -9  -3 12434.6 1125.81   2
   9 -12  -3 10817.6 825.751   1
   3   9  -3 12408.0 917.523   2
  -3  12  -3 11463.9 717.834   2
   9 -12  -3 12038.3 1109.87   4
 -12   3  -3 12679.4 555.246   1
  12  -9   0 26823.6 1450.17   3
   3   9   0 28879.3 997.696   1
   3   9   0 28796.1 1432.26   3
   9 -12   0 26310.4 810.948   2
  12  -9   0 25763.3 995.110   2
   3   9   0 27872.7 792.433   4
  -9  -3   0 27826.3 1353.19   3
   9 -12   0 23146.7 1055.77   1
 -12   3   0 28992.2 1452.19   3
  -3  12   0 28241.4 1086.93   1
  -3  12   0 28658.3 861.804   2
   9 -12   0 26710.5 979.780   4
 -12   3   0 27413.9 1097.61   1
  12  -9   0 26051.5 1086.57   1
   3   9   3 977.683 268.818   1
  12  -9   3 942.899 407.635   2
 -12   3   3 287.073 291.461   4
  12  -9   3 770.411 392.987   1
   9 -12   3 547.081 543.542   3
   3   9   3 677.443 540.922   3
   9 -12   3 941.750 452.393   1
  12  -9   3 605.919 390.113   4
   9 -12   3 155.207 275.161   2
  12  -9   3 607.579 656.681   3
  -3  12   3 626.755 328.239   1
  -3  12   3 446.719 488.829   2
  -9  -3   3 1021.70 313.890   4
   9 -12   3 549.120 325.226   4
  -3  12   3 1234.83 520.537   3
 -12   3   3 825.430 288.701   3
   3   9   3 866.590 494.072   2
   3   9   3 437.571 419.842   4
  -3  12   3 323.265 343.175   4
   9 -12   6 27586.8 1873.58   3
  -3  12   6 24604.5 1601.18   1
   3   9   6 30123.1 2042.63   3
   9 -12   6 26928.0 1678.33   2
  -3  12   6 27598.3 1783.35   3
  12  -9   6 25242.5 1920.12   3
   9 -12   9-312.225 769.882   3
  12  -9   9 1063.95 970.979   3
  -3  12   9-575.990 776.009   3
   3   9   9 1664.05 947.454   3
  12  -9  12 6444.59 1535.56   3
   9 -12  12 6614.39 1441.97   3
 -12   4 -10 3565.44 1057.37   2
  -4  12 -10 5906.16 1265.87   1
  12  -8 -10 3329.11 1323.52   2
 -12   4 -10 5655.52 1178.20   4
  -4  12 -10 5452.10 1115.07   4
  -8  -4 -10 4925.49 1156.29   2
   8 -12 -10 6064.41 1449.10   2
   8 -12 -10 7087.84 1644.79   4
   4   8 -10 4791.60 1191.86   4
  -8  -4 -10 5763.53 1280.92   4
 -12   4 -10 5091.31 913.642   1
  12  -8 -10 5257.58 1507.91   4
  -4  12 -10 6419.38 1343.92   2
   4   8 -10 2652.28 1182.30   2
 -12   4  -7 61696.6 2550.19   2
  -4  12  -7 59745.6 2826.81   1
  12  -8  -7 66154.5 3449.33   2
 -12   4  -7 62800.8 2102.65   1
   8 -12  -7 62261.3 3199.62   4
  -8  -4  -7 67233.4 2810.90   2
  -4  12  -7 61709.0 2396.51   4
   4   8  -7 62942.8 2725.70   4
  -8  -4  -7 63245.5 1963.34   1
  12  -8  -7 63982.3 3291.03   4
   4   8  -7 67272.3 3159.78   2
   4   8  -7 57313.4 1956.50   3
   8 -12  -7 57113.6 2959.54   2
  -4  12  -7 65074.6 2673.78   2
  -8  -4  -7 60055.9 2725.39   4
  -4  12  -4 66789.1 2390.97   1
  -4  12  -4 68692.1 2443.02   3
  -8  -4  -4 67992.1 919.393   1
  12  -8  -4 67033.3 2639.59   4
   4   8  -4 72495.3 2483.35   2
  -8  -4  -4 68972.5 2184.80   4
  -4  12  -4 69732.4 1705.89   4
  -4  12  -4 65988.3 1889.59   2
 -12   4  -4 69011.2 1531.60   1
   8 -12  -4 65384.9 2483.00   2
  12  -8  -4 64809.5 2624.69   2
   4   8  -4 68391.2 2074.65   4
  -8  -4  -4 62913.8 982.076   1
   8 -12  -4 68821.0 2644.93   4
  12  -8  -1 276860. 4062.14   3
 -12   4  -1 271137. 4586.12   3
   4   8  -1 260803. 3603.16   1
  12  -8  -1 273072. 3472.76   1
  12  -8  -1 289193. 3815.65   4
   4   8  -1 269914. 3941.77   3
 -12   4  -1 264714. 2829.46   1
   4   8  -1 283201. 2199.28   4
   8 -12  -1 268868. 3131.15   2
   8 -12  -1 261968. 3407.72   4
  -4  12  -1 283354. 3677.56   1
  12  -8  -1 266178. 3589.65   2
  -8  -4  -1 267697. 4276.51   3
   8 -12  -1 272668. 3426.94   1
  -4  12  -1 261537. 1689.03   2
  -4  12   2 14094.0 851.619   4
   4   8   2 14226.6 529.644   1
   4   8   2 14680.5 1180.25   3
 -12   4   2 14408.1 838.738   3
 -12   4   2 13180.3 1036.72   1
  12  -8   2 14345.6 847.064   1
   4   8   2 13591.0 929.556   4
  -4  12   2 14167.7 952.082   2
  -4  12   2 13749.6 814.055   1
  12  -8   2 14388.0 809.840   2
   8 -12   2 12297.7 445.831   2
   8 -12   2 13815.3 1001.49   1
  12  -8   2 13462.4 1180.03   3
   4   8   2 14107.9 963.438   2
  12  -8   5 126142. 3486.43   2
   8 -12   5 128295. 3375.95   4
   8 -12   5 133453. 3709.63   3
  -8  -4   5 128489. 2888.66   4
  -4  12   5 135544. 3409.54   1
   8 -12   5 129808. 3019.18   2
   4   8   5 140154. 4021.10   3
  -4  12   5 138060. 3515.80   3
  12  -8   5 131129. 4009.11   3
  12  -8   8 2687.15 973.710   3
   8 -12   8 3250.65 1011.77   3
  -4  12   8 2412.54 850.404   3
   4   8   8 4593.65 1052.02   3
  12  -8  11 31599.0 2567.58   3
   8 -12  11 28607.7 2297.21   3
  -4  12  11 40479.5 2560.32   3
   4   8  11 36549.6 2813.94   3
  -7  -5 -11 36722.9 2724.89   2
 -12   5 -11 32679.7 2394.48   2
  -5  12 -11 29133.9 2588.42   1
   7 -12 -11 26734.4 2660.25   2
  12  -7 -11 35625.0 3253.10   4
   5   7 -11 29734.8 2528.68   4
  -5  12 -11 31813.8 2376.31   4
  -7  -5 -11 30993.0 2572.39   4
 -12   5 -11 30435.2 2106.22   1
   5   7 -11 29255.0 2814.79   2
  12  -7 -11 31086.4 3131.74   2
   7 -12 -11 33824.5 3033.25   4
 -12   5 -11 34029.8 2541.97   4
  -5  12 -11 30962.8 2509.64   2
  -7  -5  -8 1002.97 702.697   4
  12  -7  -8 909.384 854.261   4
  -5  12  -8 880.961 758.200   1
   7 -12  -8 1062.55 987.624   4
  -5  12  -8 1290.56 706.615   2
  -7  -5  -8 170.150 459.564   1
   5   7  -8 1392.57 705.523   4
 -12   5  -8 566.891 492.408   1
   5   7  -8 86.2175 874.312   2
  -7  -5  -8 721.363 725.161   2
  12  -7  -8 1500.68 970.257   2
  -5  12  -8 893.604 649.010   4
 -12   5  -8-69.4845 612.701   4
   5   7  -8 240.124 373.522   3
   7 -12  -8 1351.73 1011.97   2
 -12   5  -8 226.162 597.862   2
  -7  -5  -5 152117. 3603.19   2
  -5  12  -5 142536. 3676.39   1
   5   7  -5 144222. 3477.87   4
  12  -7  -5 149135. 4230.11   4
  -7  -5  -5 143884. 3569.46   4
  -5  12  -5 147572. 3192.60   2
 -12   5  -5 143601. 2620.06   1
  -5  12  -5 151162. 2962.19   4
   5   7  -5 155100. 2697.22   3
  12  -7  -5 147552. 4320.63   2
   5   7  -5 147409. 3951.85   2
   7 -12  -5 146839. 4001.67   2
  -7  -5  -5 147231. 2000.12   1
   7 -12  -5 147025. 4148.36   4
  -5  12  -5 137141. 3677.02   3
  -7  -5  -2 17244.6 1226.44   3
   7 -12  -2 17225.0 914.234   1
  -5  12  -2 16520.3 1177.39   3
 -12   5  -2 17172.9 711.185   1
   7 -12  -2 17088.8 1071.21   4
   5   7  -2 18407.1 1014.92   2
  -5  12  -2 18207.0 1055.20   1
   7 -12  -2 17560.7 1026.59   2
   5   7  -2 18599.3 1002.24   3
  12  -7  -2 18142.0 1129.08   4
  -5  12  -2 15947.3 515.223   2
  12  -7  -2 20403.2 1239.07   2
 -12   5  -2 17413.5 1325.26   3
  12  -7  -2 18101.2 988.082   3
   5   7  -2 17959.1 789.002   4
  12  -7  -2 16778.7 994.022   1
  -5  12   1 60044.0 1617.71   1
   7 -12   1 58412.0 1807.09   1
  -5  12   1 61482.3 1291.53   4
  -5  12   1 61531.3 1519.71   2
 -12   5   1 59114.1 1858.16   3
   5   7   1 60586.1 2105.56   3
  12  -7   1 57311.2 1466.59   1
   5   7   1 64015.4 1070.19   1
 -12   5   1 56293.7 1750.11   1
   5   7   1 62329.5 1557.39   4
  12  -7   1 60857.9 2213.78   3
  -5  12   4 24532.3 1648.08   2
   5   7   4 25191.1 1577.90   4
   7 -12   4 23282.6 1525.00   3
  -5  12   4 23148.6 1367.65   3
  -5  12   4 25965.2 1526.38   4
  -7  -5   4 25461.3 1133.57   4
  -5  12   4 24871.9 1383.21   1
   7 -12   4 25895.1 1153.06   2
   7 -12   4 27086.6 1388.95   4
  12  -7   4 24309.3 1431.24   2
 -12   5   4 20873.8 733.104   3
  12  -7   4 25396.8 1726.43   3
   5   7   4 23386.8 1637.85   3
  -5  12   7 54390.6 2471.20   3
   7 -12   7 56196.9 2590.22   3
   5   7   7 59978.2 2936.72   3
  12  -7   7 56718.6 2896.78   3
  12  -7  10 4619.57 1225.42   3
   7 -12  10 1724.05 867.411   3
  -5  12  10 3062.72 949.763   3
   5   7  10 5619.62 1345.95   3
  -6  -6 -12 9532.07 1745.65   4
  -6  -6 -12 9019.71 1722.83   2
  -6  12 -12 11521.8 1718.94   4
 -12   6 -12 13022.4 1751.31   4
   6 -12 -12 10953.1 2076.24   4
 -12   6 -12 10528.0 1697.90   2
 -12   6 -12 9885.88 1446.31   1
   6   6 -12 8921.23 1734.61   4
  12  -6 -12 9586.10 2076.60   4
  -6  12 -12 10466.9 1721.09   2
  12  -6 -12 8892.99 2096.35   2
  -6  12 -12 10975.4 1845.13   1
   6   6 -12 9559.23 2006.22   2
   6 -12 -12 8972.15 1891.87   2
  12  -6  -9 4045.19 1288.34   4
   6 -12  -9 678.398 909.588   4
  -6  12  -9 2352.07 854.460   1
 -12   6  -9 818.914 774.568   4
  -6  -6  -9 2006.18 853.279   4
  -6  12  -9 2544.48 835.259   4
  -6  -6  -9 2908.95 1086.12   2
 -12   6  -9 1720.20 697.331   2
  -6  12  -9 3874.47 930.899   2
  12  -6  -9 1905.25 1261.97   2
   6   6  -9 2842.48 972.731   4
   6   6  -9 3127.05 1176.42   2
   6 -12  -9 1094.63 1130.40   2
 -12   6  -9 1265.77 612.842   1
   6   6  -6 41405.9 2386.02   2
  -6  -6  -6 41842.7 2111.06   2
  -6  12  -6 41388.6 2129.41   1
  -6  -6  -6 40453.5 2141.31   4
 -12   6  -6 38184.3 1607.37   1
  12  -6  -6 40040.9 2442.84   4
  -6  12  -6 39139.3 1733.07   4
   6 -12  -6 39736.4 2361.27   4
  12  -6  -6 40291.9 2506.08   2
   6 -12  -6 38479.8 2257.95   2
  -6  12  -6 34000.7 1738.90   2
  -6  -6  -6 39399.4 1304.56   1
 -12   6  -6 38933.9 1827.42   2
   6   6  -6 37312.0 1247.88   3
   6   6  -6 37142.1 2051.33   4
  -6  12  -3 1317.51 438.005   1
  12  -6  -3 898.138 562.223   2
   6 -12  -3 1389.45 511.570   4
  12  -6  -3 1527.93 576.802   4
 -12   6  -3 2040.04 330.817   1
  -6  -6  -3 2110.00 421.062   4
  -6  -6  -3 1313.39 129.457   1
  -6  12  -3 1859.51 332.255   2
   6 -12  -3 1729.55 388.715   1
  -6  12  -3 1940.49 598.657   3
  -6  -6  -3 2597.92 668.283   3
  12  -6  -3 1490.61 493.143   1
   6   6  -3 2069.15 397.905   3
   6 -12  -3 1231.02 501.681   2
 -12   6  -3 2001.45 784.323   3
   6   6  -3 1622.37 500.958   2
   6   6  -3 1811.36 438.402   4
  12  -6   0 236939. 2902.69   1
  -6  -6   0 245515. 3858.55   3
   6 -12   0 235857. 2463.95   4
  -6  12   0 230684. 1823.36   2
   6 -12   0 239842. 3330.72   1
   6   6   0 226484. 3775.02   3
 -12   6   0 221601. 3048.99   1
 -12   6   0 236357. 4030.70   3
   6   6   0 238092. 2725.22   1
  12  -6   0 227434. 3874.13   3
  -6  12   0 231054. 3126.13   1
   6 -12   3 2073.65 397.003   4
   6   6   3 2088.34 567.003   2
   6 -12   3 3003.05 625.055   1
 -12   6   3 2261.65 435.801   3
 -12   6   3 2242.46 444.751   4
  -6  12   3 2005.56 488.603   4
 -12   6   3 2073.86 595.659   1
  12  -6   3 2482.97 420.430   1
  -6  12   3 2780.38 616.791   2
 -12   6   3 2136.86 524.558   2
   6   6   3 2815.39 586.258   4
  12  -6   3 2049.78 500.683   2
   6 -12   3 2378.69 328.449   2
  12  -6   3 1894.09 702.087   3
   6   6   3 2115.57 717.670   3
  12  -6   3 1762.97 486.116   4
  -6  -6   3 2402.81 341.133   4
  -6  12   3 2458.89 527.561   1
  -6  12   6 40097.1 1910.22   3
  12  -6   6 36510.5 2272.37   3
   6 -12   6 35348.9 1804.58   2
  -6  12   6 37571.6 2075.07   1
   6 -12   6 37064.0 1963.78   3
   6   6   6 39593.0 2336.90   3
   6   6   9 1357.19 963.874   3
   6 -12   9 1871.35 821.453   3
  12  -6   9 2413.35 1020.25   3
  -6  12   9 1754.81 861.186   3
  12  -6  12 7501.75 1678.80   3
   6   6  12 6588.33 1639.81   3
  -5  -7 -10 2114.07 1024.24   2
 -12   7 -10 2060.45 869.444   2
  12  -5 -10 3359.01 1485.34   2
   5 -12 -10 4262.69 1381.03   4
   5 -12 -10 2373.66 1245.87   2
   7   5 -10 4039.94 1175.67   4
 -12   7 -10 3393.79 832.505   1
  -7  12 -10 4444.68 1172.02   1
  -5  -7 -10 3368.83 1123.97   4
 -12   7 -10 2838.12 971.119   4
  -7  12 -10 3089.48 954.758   4
  12  -5 -10 3617.90 1453.32   4
   7   5 -10 4326.08 1537.16   2
  -7  12 -10 3871.49 1137.94   2
 -12   7  -7 53692.8 2124.80   1
   5 -12  -7 60371.4 2992.68   2
  12  -5  -7 55268.2 2985.72   4
   7   5  -7 56288.7 2768.13   4
  -7  12  -7 47681.1 2421.40   1
   5 -12  -7 55351.8 2921.81   4
  -5  -7  -7 53386.9 2637.65   4
  -7  12  -7 54530.9 2299.98   4
   7   5  -7 58998.3 3133.52   2
  12  -5  -7 48983.6 3028.83   2
 -12   7  -7 57317.8 2349.64   2
  -7  12  -7 56725.6 2392.89   2
  -5  -7  -7 51107.5 1765.19   1
  -5  -7  -7 52603.9 2562.53   2
  -5  -7  -4 25198.2 1392.70   2
  12  -5  -4 25866.5 1735.47   2
   7   5  -4 25330.8 965.887   3
  12  -5  -4 25343.7 1623.25   4
  -7  12  -4 24677.6 1418.96   1
   7   5  -4 25227.8 1389.23   4
   7   5  -4 23760.5 1524.02   2
  -5  -7  -4 25391.5 1404.73   4
   5 -12  -4 23540.8 1471.42   2
   5 -12  -4 27582.9 1668.39   4
 -12   7  -4 24641.6 1094.38   1
   5 -12  -4 25594.5 1175.50   1
  -7  12  -4 25121.0 1061.71   2
  -5  -7  -4 26741.4 740.352   1
  -7  12  -4 22185.9 1535.22   3
  -5  -7  -1 51753.6 1924.89   3
  12  -5  -1 50538.1 1669.53   2
  -7  12  -1 48704.6 1541.11   1
  12  -5  -1 49640.0 1487.99   1
   5 -12  -1 51026.0 1428.54   4
   7   5  -1 48492.6 1661.12   3
 -12   7  -1 49096.2 1321.44   1
   5 -12  -1 53036.0 1232.15   2
  -7  12  -1 49731.5 1988.40   3
   5 -12  -1 51370.7 1454.87   1
 -12   7  -1 49763.2 1996.19   3
   7   5  -1 49998.4 1254.79   4
  12  -5  -1 51346.3 1710.93   3
  12  -5  -1 47353.9 1632.63   4
   7   5   2 15467.2 999.588   2
   5 -12   2 15959.0 1093.00   1
 -12   7   2 12672.2 867.142   4
  -7  12   2 16973.9 894.799   4
 -12   7   2 13982.6 1045.39   1
  -7  12   2 14726.9 951.503   2
  12  -5   2 15510.7 767.945   1
  -7  12   2 15824.9 940.073   1
   5 -12   2 15024.6 666.089   4
   7   5   2 14011.9 1193.01   3
 -12   7   2 15272.8 929.675   3
 -12   7   2 15594.6 939.940   2
  12  -5   2 14924.2 1283.28   3
   7   5   2 15294.6 968.488   4
  -7  12   5 154916. 3873.45   1
  -5  -7   5 142826. 2996.96   4
   5 -12   5 145760. 3435.92   4
   5 -12   5 149691. 3081.57   2
  12  -5   5 148735. 4270.38   3
   7   5   5 143315. 4104.49   3
  -7  12   5 148976. 3383.66   3
 -12   7   5 145498. 2010.09   3
  -7  12   8 1496.98 640.214   3
   7   5   8 1011.06 1031.71   3
  12  -5   8-612.489 766.882   3
   7   5  11 29852.9 2618.89   3
  12  -5  11 23044.4 2323.54   3
   8   4 -11 37987.2 3372.78   2
 -12   8 -11 33663.4 2292.29   1
  -8  12 -11 36209.5 2526.96   4
  12  -4 -11 35165.1 3210.19   4
  -4  -8 -11 30594.2 2515.33   2
   4 -12 -11 35475.9 3079.91   4
  -4  -8 -11 30997.8 2615.54   4
 -12   8 -11 33419.3 2485.32   4
  12  -4 -11 37631.1 3367.07   2
  -8  12 -11 35573.3 2602.19   1
   4 -12 -11 31274.6 2834.90   2
   8   4 -11 27971.1 2703.55   4
  -8  12 -11 34570.3 2523.85   2
 -12   8 -11 32526.8 2348.62   2
  12  -4  -8 576.228 946.586   2
  -4  -8  -8 725.001 772.687   2
 -12   8  -8 350.903 554.199   2
   8   4  -8 1727.55 1038.04   2
 -12   8  -8 783.903 537.171   1
   4 -12  -8 2184.19 1069.64   4
   8   4  -8 521.433 723.821   4
  -8  12  -8 738.865 715.127   1
  -4  -8  -8 331.375 682.551   4
   4 -12  -8 460.278 793.132   2
  -8  12  -8 1807.48 832.152   2
  -8  12  -8 974.110 577.899   4
  12  -4  -8 426.906 912.141   4
   8   4  -5 126265. 1727.20   3
  12  -4  -5 120558. 3759.64   4
   4 -12  -5 125367. 3559.90   2
   8   4  -5 126236. 3808.22   2
   4 -12  -5 121222. 3638.84   4
 -12   8  -5 131397. 2805.80   1
  -4  -8  -5 127899. 3476.30   4
   8   4  -5 110642. 1616.73   3
   8   4  -5 121374. 3376.03   4
  -4  -8  -5 135470. 3435.61   2
 -12   8  -5 121316. 2812.64   2
  12  -4  -5 129196. 4026.67   2
  -8  12  -5 127744. 2727.90   2
  -4  -8  -5 131488. 2059.24   1
  -8  12  -5 124692. 3285.99   1
  -8  12  -2 9976.92 1058.84   3
   4 -12  -2 10773.0 826.974   4
  -4  -8  -2 11531.9 714.252   4
   4 -12  -2 11727.4 718.085   1
   8   4  -2 11186.7 789.181   3
  -8  12  -2 11458.0 858.050   1
  -4  -8  -2 10837.1 1000.50   3
  -4  -8  -2 10778.3 478.692   1
  12  -4  -2 9845.60 896.454   2
   8   4  -2 10649.2 883.768   2
 -12   8  -2 10837.6 1095.15   3
  12  -4  -2 11933.1 893.853   1
   4 -12  -2 11478.4 803.250   2
 -12   8  -2 10292.3 665.937   1
  12  -4  -2 12556.6 936.798   4
  12  -4  -2 11557.3 769.922   3
   8   4  -2 11459.6 733.339   4
  12  -4   1 280723. 4655.98   3
   8   4   1 274608. 1984.05   1
   4 -12   1 278193. 3958.56   1
  -8  12   1 288590. 3057.90   4
  -8  12   1 276531. 3592.77   1
  -8  12   1 287689. 3037.59   2
   4 -12   1 281912. 1784.23   4
   8   4   1 268497. 1880.03   1
 -12   8   1 268854. 3725.66   1
  12  -4   1 290735. 2812.12   1
   8   4   1 276595. 4531.25   3
 -12   8   1 270231. 4055.25   3
  -4  -8   4 60180.7 1642.96   4
 -12   8   4 60368.0 1574.73   3
   4 -12   4 64210.0 1667.88   2
  -8  12   4 63764.4 2483.54   2
   4 -12   4 64218.4 1946.39   4
 -12   8   4 63393.5 2570.37   1
   8   4   4 59108.7 2554.29   3
  12  -4   4 60876.8 2641.92   3
  -4  -8   4 63685.9 1871.56   2
  -8  12   4 64608.2 2322.26   1
 -12   8   7 62423.4 1235.55   3
  12  -4   7 58801.2 3037.62   3
   8   4   7 65900.8 3124.58   3
  12  -4  10 5941.00 1394.71   3
  -8  12  10 4606.05 932.822   3
   8   4  10 4764.10 1260.31   3
 -12   9 -12 10502.1 1640.05   2
  -9  12 -12 12569.6 1784.63   1
  -3  -9 -12 9259.43 1756.05   4
   9   3 -12 9125.27 2013.76   2
 -12   9 -12 10622.3 1537.05   1
  12  -3 -12 7943.60 2219.27   2
   9   3 -12 10214.3 1943.23   4
 -12   9 -12 12845.5 1727.63   4
   3 -12 -12 11595.9 2067.26   4
  -9  12 -12 10812.2 1604.97   4
  12  -3 -12 6313.47 1761.01   4
  -3  -9 -12 13527.4 1948.63   2
   3 -12 -12 10852.4 1930.84   2
  -9  12 -12 10734.0 1661.71   2
 -12   9  -9 200.977 588.703   1
 -12   9  -9 291.462 705.717   2
  -3  -9  -9 410.687 720.898   4
  12  -3  -9 1615.29 985.470   4
   9   3  -9-162.231 950.893   2
 -12   9  -9 1284.30 737.026   4
  -9  12  -9-550.690 724.833   1
   3 -12  -9 425.508 803.801   2
  -9  12  -9 115.976 554.529   4
  -9  12  -9 6.14177 643.911   2
   3 -12  -9 354.872 909.254   4
   9   3  -9 912.563 877.853   4
  12  -3  -9 970.646 1031.03   2
  -3  -9  -9 564.758 808.839   2
 -12   9  -6 24315.2 1405.45   1
  -9  12  -6 23421.0 1552.30   1
 -12   9  -6 24252.7 1411.68   2
   9   3  -6 25874.7 1790.87   4
   3 -12  -6 25966.4 1880.72   4
  -3  -9  -6 23303.1 1064.32   1
   9   3  -6 22975.5 1943.04   2
  12  -3  -6 23239.4 2008.24   2
  -3  -9  -6 25929.2 1786.72   4
   3 -12  -6 27263.7 1839.50   2
  12  -3  -6 25348.0 1923.38   4
  -9  12  -6 25378.2 1427.65   2
  -3  -9  -6 24357.0 1676.74   2
  -3  -9  -3 744.017 212.111   1
  -9  12  -3 522.371 382.379   1
   3 -12  -3 335.313 403.161   2
  12  -3  -3 926.812 314.454   3
  -3  -9  -3 514.587 377.157   2
  12  -3  -3 387.288 503.472   4
   3 -12  -3 953.626 300.673   1
  12  -3  -3 389.168 429.198   1
   9   3  -3 536.854 554.857   2
  -3  -9  -3 827.772 526.187   3
 -12   9  -3-91.2898 291.828   1
  12  -3  -3 979.190 587.399   2
  -3  -9  -3 547.394 370.490   4
  -9  12  -3 190.217 522.677   3
   9   3  -3 410.541 341.504   4
   9   3  -3 539.419 300.001   3
   3 -12  -3 802.552 531.003   4
  -9  12   0 25580.3 1461.50   3
  -9  12   0 24219.3 1103.25   1
   3 -12   0 24498.2 689.387   4
   9   3   0 24557.9 882.743   1
   3 -12   0 26265.0 1153.08   1
  12  -3   0 24376.4 887.728   1
 -12   9   0 24040.2 1062.00   1
   9   3   0 24063.3 1334.34   3
  12  -3   0 25561.9 1342.92   3
 -12   9   0 23473.4 1345.40   3
 -12   9   3 9428.69 752.058   3
  12  -3   3 9712.45 947.223   2
  -9  12   3 11165.0 942.878   1
  12  -3   3 11767.3 679.154   1
  -9  12   3 10511.8 932.802   2
 -12   9   3 9526.58 1000.57   1
  -3  -9   3 12651.5 591.354   4
   9   3   3 9773.93 938.153   4
 -12   9   3 10573.6 1002.42   2
 -12   9   3 9594.71 851.876   4
  -9  12   3 9794.94 835.006   4
   9   3   3 10070.7 1094.42   3
   3 -12   3 10820.9 548.367   2
  12  -3   3 9527.61 1113.06   3
   3 -12   3 10696.2 669.541   4
 -12   9   6 37937.4 1253.10   3
   3 -12   6 32979.0 1727.39   2
   3 -12   6 32348.7 1781.38   4
   9   3   6 38989.8 2340.40   3
 -12   9   6 38201.1 1243.25   3
  12  -3   6 35924.6 2276.55   3
  -9  12   6 36740.6 2182.36   1
  -3  -9   6 33464.1 1672.67   4
  -9  12   6 37043.4 1696.78   3
  -9  12   9 123.494 589.172   3
   9   3   9-616.972 870.468   3
  12  -3   9 1001.00 944.723   3
  12  -3  12 4420.34 1427.69   3
   9   3  12 7472.04 1704.58   3
   2 -12 -10 5577.58 1351.08   2
  -2 -10 -10 4922.19 1253.93   2
 -12  10 -10 2473.71 836.448   2
 -10  12 -10 4892.24 1060.96   4
  -2 -10 -10 5410.29 1314.05   4
  10   2 -10 7580.17 1684.92   2
 -10  12 -10 3523.23 938.416   2
  10   2 -10 4165.79 1234.82   4
 -10  12 -10 4040.18 1045.80   1
 -12  10 -10 4217.91 980.623   1
   2 -12 -10 5511.94 1413.75   4
  12  -2 -10 4167.57 1440.43   4
  12  -2 -10 4415.13 1490.38   2
 -12  10  -7 9062.62 1015.19   2
  10   2  -7 8533.51 1252.09   4
   2 -12  -7 5792.66 1085.17   2
  -2 -10  -7 7414.97 759.157   1
 -12  10  -7 9098.32 1007.66   1
  12  -2  -7 9141.21 1390.56   2
  10   2  -7 8137.55 1416.20   2
  -2 -10  -7 9523.57 1308.54   4
   2 -12  -7 7711.40 1242.74   4
 -10  12  -7 7124.24 1000.70   1
  12  -2  -7 7136.57 1306.70   4
 -10  12  -7 7166.84 940.247   2
  -2 -10  -7 8298.12 1155.31   2
  -2 -10  -4 6677.89 820.062   2
 -10  12  -4 6400.10 544.581   2
 -12  10  -4 6495.83 693.775   1
  -2 -10  -4 7311.03 521.923   1
  12  -2  -4 6819.66 910.488   4
  10   2  -4 7218.06 874.115   4
   2 -12  -4 6984.96 601.431   1
  10   2  -4 7724.61 946.499   2
 -10  12  -4 7141.60 803.502   1
  12  -2  -4 3961.79 268.198   3
   2 -12  -4 6626.15 847.419   4
  -2 -10  -4 6913.69 816.856   4
  10   2  -4 5353.56 442.589   3
   2 -12  -4 6401.05 838.941   2
  12  -2  -4 6761.99 1006.03   2
  12  -2  -1 15622.3 997.749   2
  12  -2  -1 14084.0 834.516   1
  12  -2  -1 15200.9 924.386   4
   2 -12  -1 15711.8 736.876   4
 -12  10  -1 13382.6 819.380   1
  10   2  -1 14064.7 855.546   1
   2 -12  -1 15288.5 833.561   1
  -2 -10  -1 12734.0 709.828   1
  10   2  -1 13861.8 807.758   4
  10   2  -1 14877.6 1001.27   3
  12  -2  -1 12109.6 909.212   3
 -10  12  -1 12302.9 1141.01   3
 -10  12  -1 14107.5 858.040   1
 -12  10  -1 14426.3 1176.30   3
   2 -12   2 11691.9 986.549   1
 -10  12   2 12678.9 992.837   3
  10   2   2 9355.99 821.934   2
 -12  10   2 11573.8 801.920   2
 -12  10   2 9271.95 756.403   4
 -12  10   2 10199.3 861.202   3
  12  -2   2 11261.8 527.802   1
 -10  12   2 11372.0 774.262   4
  10   2   2 10906.3 854.234   4
 -10  12   2 10054.1 798.160   2
  10   2   2 11283.1 1114.45   3
 -12  10   2 11375.6 946.268   1
  12  -2   2 11512.9 1135.02   3
 -10  12   2 11860.0 917.211   1
  -2 -10   5 21085.3 1178.22   4
 -12  10   5 21848.7 1095.79   3
 -10  12   5 20995.0 1598.27   1
   2 -12   5 21723.8 1278.97   4
   2 -12   5 20698.0 1132.52   2
 -10  12   5 19619.2 1168.33   3
  10   2   5 21528.3 1688.97   3
 -12  10   5 23222.2 1725.46   1
  12  -2   5 22384.8 1781.43   3
  -2 -10   5 19012.2 1165.90   2
 -12  10   8 3438.51 512.847   3
  12  -2   8 6226.46 1302.02   3
 -12  10   8 4417.52 570.792   3
 -10  12   8 3628.96 792.462   3
  10   2   8 3843.20 1114.99   3
  10   2  11 8268.57 1743.55   3
  12  -2  11 8802.28 1665.95   3
  11   1 -11 52933.8 3612.57   4
  12  -1 -11 52586.6 3902.22   2
 -11  12 -11 52880.2 3034.88   1
  12  -1 -11 50151.2 3625.47   4
   1 -12 -11 50130.8 3487.62   4
  11   1 -11 59513.0 4099.34   2
  -1 -11 -11 52710.3 3529.58   4
 -11  12 -11 52756.7 3031.21   4
  -1 -11 -11 52147.8 3343.73   2
 -12  11 -11 52614.9 2877.36   2
   1 -12 -11 50770.9 3388.81   2
 -11  12 -11 52578.3 2945.52   2
 -12  11 -11 49465.1 2875.90   1
 -12  11  -8 21200.7 1568.23   2
 -11  12  -8 20107.5 1553.85   2
   1 -12  -8 22967.5 1990.86   4
 -11  12  -8 21275.7 1652.32   1
  12  -1  -8 20674.9 2079.06   4
 -12  11  -8 23036.6 1688.88   1
  11   1  -8 21781.7 2278.58   2
  12  -1  -8 20611.4 2140.04   2
  -1 -11  -8 21405.6 1939.98   4
  11   1  -8 20877.0 2002.98   4
   1 -12  -8 22035.7 1947.02   2
  -1 -11  -8 18433.8 1793.39   2
 -12  11  -5 47518.5 1643.35   2
 -11  12  -5 46411.3 1601.11   2
   1 -12  -5 47725.8 2140.50   2
  -1 -11  -5 48293.0 2222.35   4
  12  -1  -5 47498.7 2474.55   2
   1 -12  -5 48357.7 2295.06   4
 -11  12  -5 47432.5 1950.45   1
  12  -1  -5 42892.1 2265.09   4
  11   1  -5 48495.0 2502.92   2
  -1 -11  -5 47420.8 1399.56   1
   1 -12  -5 44536.3 1507.00   1
 -12  11  -5 47856.1 1892.30   1
  -1 -11  -5 50130.5 2167.98   2
  11   1  -5 44965.8 2252.93   4
  12  -1  -2 91954.7 2388.76   1
  11   1  -2 94841.2 2192.54   3
   1 -12  -2 94406.9 2076.72   2
  11   1  -2 97260.3 2354.37   4
  12  -1  -2 91101.0 2429.37   4
  11   1  -2 97814.4 2615.97   2
 -12  11  -2 93181.2 2123.97   1
   1 -12  -2 90590.4 2117.85   4
  12  -1  -2 93947.0 2194.08   3
 -11  12  -2 92279.9 2203.05   1
  -1 -11  -2 95018.8 1799.13   1
   1 -12  -2 95327.5 1890.97   1
  -1 -11  -2 91396.7 2025.51   4
  12  -1  -2 80339.3 2414.98   2
 -12  11  -2 87915.0 2899.88   3
  11   1  -2 91054.4 2409.55   1
 -11  12  -2 86500.1 2900.29   3
 -12  11   1 200201. 3780.31   3
 -11  12   1 208332. 3928.20   3
   1 -12   1 212615. 3632.08   1
 -11  12   1 207973. 2564.18   2
  11   1   1 204527. 1733.12   1
  12  -1   1 216236. 2065.97   1
 -12  11   1 193443. 3268.57   1
  11   1   1 208939. 4102.10   3
  12  -1   1 202042. 4045.18   3
 -12  11   4 55919.9 1853.84   3
 -12  11   4 56561.7 2391.47   1
  -1 -11   4 55667.9 1540.54   4
   1 -12   4 58511.9 1566.98   2
 -11  12   4 53187.5 2214.28   2
 -11  12   4 56753.9 2347.44   1
  12  -1   4 58004.2 2605.58   3
   1 -12   4 56710.2 1621.92   4
  11   1   4 55910.7 2549.35   3
  -1 -11   4 58115.1 1644.10   2
 -12  11   7 74290.0 2127.63   3
  11   1   7 76210.6 3496.09   3
 -11  12   7 74701.4 2351.03   3
  12  -1   7 73849.7 3432.96   3
  11   1  10 37074.6 2883.23   3
  12  -1  10 33295.3 2751.26   3
 -12  12 -12 2521.58 1040.81   1
 -12  12 -12 3436.33 1133.05   2
   0 -12 -12 3399.02 1399.87   2
  12   0 -12 678.518 1172.62   4
   0 -12 -12 3346.08 1389.49   4
  12   0 -12 2279.48 1679.84   2
 -12  12  -9-923.835 629.634   2
  12   0  -9 328.980 954.936   4
 -12  12  -9-144.232 599.298   1
   0 -12  -9 837.229 901.695   4
   0 -12  -9-128.829 814.238   2
  12   0  -9 123.184 1229.26   2
   0 -12  -6 32196.5 1338.35   1
  12   0  -6 37265.1 2252.22   4
 -12  12  -6 37482.9 1651.25   2
 -12  12  -6 33335.4 1782.61   1
  12   0  -6 37396.3 2443.86   2
   0 -12  -6 40201.5 2138.16   2
   0 -12  -6 34876.5 2112.26   4
   0 -12  -3 78.3318 218.868   1
   0 -12  -3-78.3271 361.121   2
  12   0  -3 368.909 511.224   2
  12   0  -3-22.5729 403.190   4
   0 -12  -3 2.13549 351.836   4
 -12  12  -3 260.805 328.748   1
  12   0  -3-83.2453 303.798   3
  12   0  -3 214.532 400.661   1
 -12  12   0 7855.29 700.235   1
  12   0   0 7059.93 817.307   3
   0 -12   0 9069.29 750.043   1
 -12  12   0 8789.59 955.616   3
  12   0   0 7975.68 545.143   1
 -12  12   3 76.5320 379.855   3
   0 -12   3 61.5788 151.086   4
 -12  12   3 519.557 404.604   2
  12   0   3-295.788 652.911   3
 -12  12   3-385.777 474.574   1
 -12  12   6 28373.5 2042.82   1
  12   0   6 23686.2 1937.31   3
   0 -12   6 23784.3 1451.79   4
 -12  12   6 26704.6 1334.41   3
  12   0   9-786.059 991.941   3
 -12  12   9-478.879 544.287   3
  12   0  12 2094.33 1386.81   3
 -13   0 -10 128190. 4460.56   2
   0  13 -10 131608. 5034.72   2
   0  13 -10 127685. 5283.21   1
  13 -13 -10 132544. 5857.26   4
   0  13 -10 132834. 4472.94   4
 -13   0 -10 121594. 3235.70   1
 -13   0 -10 136093. 4694.77   4
  13 -13 -10 126017. 5639.36   2
   0  13  -7-731.576 722.826   2
  13 -13  -7 237.326 850.550   4
 -13   0  -7 64.6829 286.847   1
   0  13  -7 403.764 718.853   1
 -13   0  -7-221.557 367.630   1
  13 -13  -7 790.062 934.003   2
   0  13  -7 869.096 556.235   4
  13 -13  -4 221558. 5042.18   4
   0  13  -4 227401. 4065.89   2
   0  13  -4 217002. 4585.36   1
   0  13  -4 218252. 2880.11   4
   0  13  -4 217942. 4390.96   3
  13 -13  -4 219636. 4887.20   2
 -13   0  -4 205162. 1629.60   1
  13 -13  -1 12.2227 368.157   2
 -13   0  -1 359.979 495.874   3
  13 -13  -1 469.686 357.913   4
   0  13  -1-281.786 305.266   1
   0  13   2 344563. 5617.34   3
   0  13   2 342255. 3720.19   1
  13 -13   2 350918. 6043.83   3
   0  13   2 355497. 4916.31   2
 -13   0   2 353865. 4325.34   3
  13 -13   2 359913. 3337.53   2
   0  13   2 356059. 4367.66   4
  13 -13   5-76.8659 719.693   3
  13 -13   5-207.900 566.569   2
   0  13   5 440.709 441.786   1
   0  13   5-517.931 698.031   3
  13 -13   8 103842. 4187.51   3
   0  13   8 106542. 4133.43   3
  13 -13  11 455.991 1072.05   3
   0  13  11 462.020 1123.02   3
 -12  -1 -11 2948.03 1113.32   2
   1  12 -11 2922.00 1372.68   2
 -13   1 -11 4039.74 1169.30   2
  12 -13 -11 1799.11 1312.94   4
   1  12 -11 1949.94 1043.57   4
  -1  13 -11 2719.34 1166.12   1
  13 -12 -11 4498.99 1562.17   4
 -13   1 -11 2430.86 731.982   1
  -1  13 -11 2745.86 1013.80   4
 -12  -1 -11 2273.46 995.067   4
   1  12 -11 2096.17 1140.29   1
 -13   1 -11 2280.11 959.344   4
  13 -12 -11 5954.22 1816.70   2
  -1  13 -11 2992.85 1164.39   2
  12 -13 -11 2331.98 1431.42   2
   1  12  -8 2125.14 764.499   4
 -13   1  -8 3679.49 933.588   2
  -1  13  -8 2685.63 919.702   1
  13 -12  -8 2152.08 1127.23   4
   1  12  -8 2623.64 1021.93   1
  12 -13  -8 2404.00 1096.93   4
  12 -13  -8 1321.05 1021.53   2
  13 -12  -8 2175.22 1096.86   2
 -13   1  -8 2110.22 494.945   1
 -12  -1  -8 1097.11 607.611   4
  -1  13  -8 2695.15 935.568   2
 -12  -1  -8 2332.99 471.385   1
  -1  13  -8 2035.67 685.363   4
 -12  -1  -8 1725.29 745.802   2
   1  12  -8 2349.99 987.172   2
  -1  13  -5 1440.48 657.032   3
   1  12  -5 755.629 548.307   3
  -1  13  -5 1868.10 656.440   2
   1  12  -5 1461.89 479.719   4
  -1  13  -5 1088.22 596.114   1
   1  12  -5 2568.71 751.350   1
  12 -13  -5 2123.93 777.056   4
  13 -12  -5 2862.39 944.336   2
 -12  -1  -5 1230.22 205.101   1
 -12  -1  -5 1510.66 273.332   1
  13 -12  -5 1359.53 777.904   4
  -1  13  -5 1876.12 471.319   4
   1  12  -5 898.466 625.663   2
  12 -13  -5 873.528 754.497   2
 -13   1  -5 968.043 217.971   1
   1  12  -2 1829.80 386.249   2
 -13   1  -2 1654.10 243.815   1
  -1  13  -2 1720.17 354.631   2
  13 -12  -2 1679.22 499.557   4
  -1  13  -2 1860.89 495.849   1
   1  12  -2 1983.34 483.892   1
  13 -12  -2 1609.05 517.976   2
  12 -13  -2 2649.05 628.295   2
  12 -13  -2 970.703 441.199   4
  12 -13   1 34369.3 897.390   2
  13 -12   1 31589.8 1764.85   3
  12 -13   1 34188.9 1819.62   3
   1  12   1 33542.7 1101.59   4
 -13   1   1 32982.0 1464.56   3
  12 -13   1 30816.7 1394.25   1
   1  12   1 35401.8 1739.21   3
  13 -12   1 32056.9 1379.17   1
  -1  13   1 32485.7 1002.22   4
  -1  13   1 34085.8 1293.73   2
   1  12   1 34860.6 1112.92   1
  -1  13   1 34048.9 1182.63   1
 -12  -1   1 32156.4 1450.85   3
   1  12   1 37361.4 1373.71   2
  13 -12   4 8591.23 1181.01   3
  12 -13   4 8725.38 1169.28   3
   1  12   4 9288.80 1110.15   3
  -1  13   4 7732.64 940.246   4
   1  12   4 7399.23 955.769   4
  -1  13   4 7471.68 739.478   1
  -1  13   4 8517.95 1059.54   3
   1  12   4 9385.69 751.743   1
  12 -13   4 9146.31 854.524   2
  13 -12   4 8649.95 847.837   2
  12 -13   7 14169.8 1624.38   3
  13 -12   7 18748.5 1886.11   3
  -1  13   7 14636.6 1606.83   3
   1  12   7 13467.9 1559.51   3
  13 -12  10 3730.68 1206.56   3
  12 -13  10 3308.12 1222.91   3
  -1  13  10 3500.36 1180.33   3
   1  12  10 6816.80 1480.12   3
 -13   2 -12 590.711 1125.27   2
 -11  -2 -12 1868.22 1021.16   2
 -11  -2 -12 2849.18 1166.53   4
   2  11 -12-1039.77 1117.26   4
  11 -13 -12 26.2735 1357.84   4
  -2  13 -12 271.898 1111.49   1
  13 -11 -12 499.922 1214.78   4
  -2  13 -12 115.510 911.377   4
  13 -11 -12-449.839 1542.85   2
   2  11 -12 124.719 1306.89   2
  11 -13 -12 1020.11 1484.21   2
   2  11 -12 1531.42 1366.04   1
  -2  13 -12 2641.16 1302.92   2
   2  11  -9 22457.4 2152.23   2
 -13   2  -9 25613.3 1918.31   2
 -11  -2  -9 24466.7 2024.53   4
  -2  13  -9 23821.6 2144.83   1
 -13   2  -9 23442.6 1437.84   1
  11 -13  -9 22613.0 2361.65   4
   2  11  -9 25262.2 2064.40   4
  13 -11  -9 25955.0 2569.43   4
 -11  -2  -9 20574.3 1365.20   1
  -2  13  -9 22928.6 1840.25   4
  11 -13  -9 23775.4 2412.58   2
  13 -11  -9 21090.4 2355.84   2
  -2  13  -9 23066.4 1960.98   2
 -11  -2  -9 19700.3 1819.12   2
 -11  -2  -6 29822.1 1011.37   1
  -2  13  -6 28564.9 1733.40   2
 -11  -2  -6 32981.5 1187.28   1
  11 -13  -6 31408.7 2236.98   4
  -2  13  -6 24899.9 1393.14   4
  13 -11  -6 26996.5 2123.35   4
 -13   2  -6 29451.9 1125.57   1
   2  11  -6 30932.2 1968.49   2
  13 -11  -6 32081.5 2267.79   2
  11 -13  -6 28339.2 2127.56   2
   2  11  -6 30404.6 1665.20   4
  -2  13  -6 32346.6 2069.77   1
   2  11  -6 24361.8 1507.13   3
  11 -13  -3 11565.4 1114.45   4
  -2  13  -3 12403.8 1108.16   3
 -13   2  -3 10573.2 464.945   1
  13 -11  -3 11022.8 1058.43   4
   2  11  -3 11496.7 907.146   2
   2  11  -3 10232.7 615.935   4
  -2  13  -3 11291.9 998.788   1
  -2  13  -3 10482.1 776.274   2
  11 -13  -3 12951.8 1094.17   2
  13 -11  -3 8272.10 969.782   2
   2  11  -3 10321.5 966.156   1
  -2  13   0 1731.42 288.787   2
  13 -11   0 1804.01 401.041   1
  13 -11   0 1372.25 594.404   3
 -13   2   0 2494.34 417.838   1
   2  11   0 1918.12 236.685   4
 -13   2   0 2000.27 513.573   3
 -11  -2   0 2366.19 578.512   3
   2  11   0 2514.84 389.852   1
   2  11   0 1819.79 547.719   3
  13 -11   0 1935.72 437.936   4
  13 -11   0 2435.52 401.730   2
  11 -13   0 2331.31 451.001   1
  11 -13   0 1926.71 377.464   4
  -2  13   0 1870.47 364.057   1
  11 -13   0 2123.28 341.875   2
  11 -13   3 15841.2 1380.15   3
  -2  13   3 13071.5 867.459   1
  -2  13   3 13238.7 1004.29   4
  13 -11   3 14631.5 1081.63   1
  11 -13   3 13146.9 946.797   4
  13 -11   3 16206.0 1443.42   3
   2  11   3 14032.4 1113.53   4
   2  11   3 14304.6 1209.59   2
  -2  13   3 13934.2 1160.75   2
  13 -11   3 12261.2 985.946   4
  11 -13   3 14262.5 819.380   2
  -2  13   3 11718.4 1096.99   3
 -13   2   3 13769.1 755.254   3
  13 -11   3 12923.7 872.049   2
   2  11   3 13799.5 733.050   1
   2  11   3 11993.8 1200.75   3
  13 -11   6 20730.7 1819.29   3
  11 -13   6 19152.0 1695.87   3
  -2  13   6 20944.3 1466.27   1
   2  11   6 22179.5 1794.05   3
  11 -13   6 19772.5 1494.90   2
  -2  13   6 20991.1 1661.67   3
  13 -11   9 8107.81 1462.91   3
  11 -13   9 6444.35 1324.01   3
   2  11   9 7892.17 1467.28   3
  -2  13   9 9250.04 1381.55   3
  13 -11  12 1465.64 1406.81   3
  11 -13  12 1533.44 1177.55   3
  -2  13  12 2106.25 1276.31   3
   2  11  12 285.946 1189.60   3
 -13   3 -10 56826.3 3003.24   2
 -10  -3 -10 65756.3 3396.37   4
  13 -10 -10 60384.6 3937.57   4
   3  10 -10 57832.1 3142.08   4
   3  10 -10 59231.1 3595.11   2
  10 -13 -10 58772.7 3762.21   2
  10 -13 -10 57150.6 3780.53   4
  -3  13 -10 59331.4 2975.41   4
 -13   3 -10 53549.8 2967.89   4
  -3  13 -10 60412.0 3262.81   2
  13 -10 -10 58767.7 3872.66   2
  -3  13 -10 62956.8 3565.72   1
 -13   3 -10 59917.0 2543.03   1
 -10  -3 -10 56269.4 2412.57   1
 -10  -3 -10 61027.9 3209.26   2
 -10  -3  -7 737.643 619.944   2
   3  10  -7 576.764 526.168   3
  13 -10  -7-722.314 907.090   2
  -3  13  -7 675.143 603.635   1
   3  10  -7-188.867 700.333   2
  10 -13  -7 409.486 761.125   4
 -13   3  -7 500.967 371.141   1
 -10  -3  -7 725.704 376.828   1
  -3  13  -7-9.87786 619.587   2
   3  10  -7 625.072 615.950   4
 -10  -3  -7 1050.56 687.505   4
 -13   3  -7 332.312 542.817   2
  13 -10  -7-199.778 795.722   4
 -10  -3  -7 232.164 343.846   1
  10 -13  -7 283.758 752.672   2
  -3  13  -7 679.200 568.402   4
  -3  13  -4 190620. 4134.00   3
  13 -10  -4 199752. 4563.77   4
  -3  13  -4 192684. 3347.33   2
  13 -10  -4 195470. 4620.18   2
  -3  13  -4 195973. 4159.95   1
  10 -13  -4 199095. 4429.23   2
  -3  13  -4 203912. 2740.63   4
   3  10  -4 199646. 3344.89   4
  10 -13  -4 199960. 4587.39   4
 -13   3  -4 200156. 2296.81   1
   3  10  -4 204247. 4068.96   2
  13 -10  -1 21755.3 1281.09   3
  13 -10  -1 22068.6 1132.80   4
  -3  13  -1 23518.9 1133.86   1
  10 -13  -1 23105.9 1025.33   2
   3  10  -1 22578.3 551.353   4
 -13   3  -1 21638.0 883.794   1
  -3  13  -1 23356.2 648.322   2
 -10  -3  -1 23446.8 1405.24   3
  10 -13  -1 23096.6 1095.65   4
  13 -10  -1 20610.6 1057.97   1
 -13   3  -1 23226.2 1487.65   3
  10 -13  -1 20771.6 1054.78   1
  13 -10  -1 20955.0 1104.00   2
   3  10  -1 23646.2 1128.77   1
  13 -10   2 299813. 5409.67   3
  13 -10   2 301751. 3443.68   2
  10 -13   2 293109. 4503.88   1
   3  10   2 305513. 2829.91   1
   3  10   2 305766. 4128.05   4
  -3  13   2 305871. 3776.62   1
 -13   3   2 294264. 4637.57   1
 -13   3   2 294458. 3808.12   3
   3  10   2 297731. 5083.37   3
  -3  13   2 300238. 3765.88   4
  10 -13   2 303873. 5209.06   3
  -3  13   2 305387. 4437.52   2
  10 -13   2 308291. 2536.73   2
 -10  -3   2 314794. 3949.34   3
  13 -10   2 314986. 4243.11   1
   3  10   2 303524. 4371.72   2
  13 -10   5 12596.6 1217.40   2
  10 -13   5 13694.5 1390.10   3
  -3  13   5 14915.2 1309.73   3
  10 -13   5 14129.3 1131.98   2
   3  10   5 13225.3 1382.75   3
  13 -10   5 15223.3 1553.18   3
  -3  13   5 13174.4 1117.47   1
   3  10   8 66555.9 3306.93   3
  10 -13   8 54040.7 2921.41   3
  -3  13   8 66688.5 3052.98   3
  13 -10   8 53732.2 3029.08   3
  10 -13  11 905.511 1061.14   3
   3  10  11 2443.77 1180.25   3
  -3  13  11 2461.89 1118.13   3
  13 -10  11 1428.56 1223.16   3
  -9  -4 -11 1914.83 1041.20   4
  -9  -4 -11 1986.77 1100.30   2
 -13   4 -11 1537.81 851.758   2
  13  -9 -11 607.706 1253.15   4
  -4  13 -11 379.957 947.522   1
  -9  -4 -11 659.916 706.589   1
 -13   4 -11 782.097 800.454   4
   9 -13 -11 660.975 1362.27   4
 -13   4 -11 187.592 607.456   1
   4   9 -11 2473.27 1169.77   4
  13  -9 -11 2271.01 1304.41   2
   4   9 -11 1633.76 1308.30   2
   9 -13 -11 1747.38 1393.76   2
  -4  13 -11 3031.51 1317.91   2
  -4  13 -11 2050.09 931.760   4
  -9  -4  -8 12097.3 1419.44   2
  -4  13  -8 11408.7 1431.77   1
  -9  -4  -8 12461.5 1427.32   4
  13  -9  -8 12067.4 1764.87   4
  -9  -4  -8 9233.86 910.049   1
 -13   4  -8 10766.5 975.191   1
   9 -13  -8 11747.0 1684.57   4
   9 -13  -8 11906.6 1703.28   2
  13  -9  -8 11349.7 1735.79   2
  -4  13  -8 11912.9 1419.18   2
   4   9  -8 10151.3 1302.45   4
  -4  13  -8 9940.98 1135.43   4
 -13   4  -8 9643.15 1292.99   2
   4   9  -8 12566.8 1683.25   2
   4   9  -8 9918.24 946.710   3
   4   9  -5 2718.52 579.123   3
   4   9  -5 2462.22 749.889   2
  -4  13  -5 1772.54 445.618   4
  -9  -4  -5 2320.50 288.294   1
   4   9  -5 2020.12 581.248   4
   9 -13  -5 2665.22 768.435   4
  -4  13  -5 2300.03 638.212   1
 -13   4  -5 2114.71 387.532   1
  -9  -4  -5 2331.04 254.020   1
  13  -9  -5 1974.45 879.535   2
  -9  -4  -5 1455.45 605.362   4
  13  -9  -5 2084.07 823.387   4
  -4  13  -5 2209.75 570.446   2
   9 -13  -5 2612.93 780.648   2
   4   9  -2 100840. 2292.20   2
   9 -13  -2 101789. 2584.86   4
   9 -13  -2 102203. 2299.96   1
  13  -9  -2 98800.5 2665.69   4
   4   9  -2 101165. 2596.74   1
  -4  13  -2 102921. 2525.69   1
  -4  13  -2 104028. 1522.97   2
  13  -9  -2 94141.7 2315.40   1
  -9  -4  -2 105087. 2988.20   3
   9 -13  -2 98240.4 2420.93   2
 -13   4  -2 104619. 1673.64   1
   4   9  -2 104337. 1733.58   4
 -13   4  -2 99702.9 3105.00   3
  13  -9  -2 99696.7 2656.19   2
  13  -9   1 19184.8 1347.61   3
 -13   4   1 19041.2 1106.20   1
  -4  13   1 20195.2 971.800   1
   4   9   1 18290.6 978.039   2
   4   9   1 19756.3 701.749   1
  -9  -4   1 18966.9 1090.92   3
 -13   4   1 20568.9 1185.78   3
  -4  13   1 17262.0 688.924   4
   4   9   1 19139.7 1291.06   3
   4   9   1 17464.1 882.442   4
   9 -13   1 18970.4 1094.86   1
  -4  13   1 18872.0 920.660   2
  13  -9   1 18123.8 948.292   1
   4   9   4 47238.0 2187.46   4
  -4  13   4 48000.4 2072.61   3
   4   9   4 52931.3 2438.80   3
  -4  13   4 48087.2 1832.49   1
   9 -13   4 54459.3 2380.07   3
  13  -9   4 50966.4 1990.51   1
   9 -13   4 48260.9 1581.04   2
   9 -13   4 49410.8 1895.92   4
   4   9   4 50758.7 1422.17   1
  -9  -4   4 49002.6 1585.36   4
  -4  13   4 51391.3 2149.19   4
  13  -9   4 47907.4 1915.53   2
  13  -9   4 51744.6 2532.89   3
  -4  13   4 46445.8 2230.51   2
  13  -9   7 2634.46 890.405   3
  -4  13   7 2628.09 788.920   3
   9 -13   7 2855.75 978.574   3
   4   9   7 1499.84 806.718   3
  -4  13  10 27118.3 2182.89   3
   4   9  10 29975.1 2526.10   3
  13  -9  10 25372.4 2361.52   3
 -13   5 -12 7290.32 1489.51   2
  -5  13 -12 9995.69 1762.36   1
  -8  -5 -12 7981.78 1617.12   2
 -13   5 -12 9866.69 1368.10   1
   8 -13 -12 12079.6 2193.32   4
  13  -8 -12 8233.75 1970.61   4
   5   8 -12 9492.74 1739.97   4
  -8  -5 -12 9771.15 1624.50   4
  -5  13 -12 10655.8 1613.01   4
   5   8 -12 7123.04 1881.34   2
  13  -8 -12 9750.50 2157.28   2
   8 -13 -12 9616.00 1965.06   2
  -5  13 -12 8371.13 1578.28   2
  -5  13  -9 5113.27 1161.30   1
 -13   5  -9 6437.10 899.645   1
  -8  -5  -9 6421.32 1240.66   4
   8 -13  -9 7103.59 1420.57   4
  -5  13  -9 6000.57 1024.54   4
   8 -13  -9 6919.75 1450.90   2
  13  -8  -9 5461.24 1443.97   2
  -8  -5  -9 6627.68 1332.57   2
   5   8  -9 4424.16 1254.25   2
  -5  13  -9 6313.67 1196.34   2
 -13   5  -9 4602.60 999.275   2
   5   8  -9 7425.91 1364.02   4
  13  -8  -9 8332.63 1597.93   4
  -8  -5  -6 21856.5 1555.93   2
  -8  -5  -6 23023.8 947.613   1
  -5  13  -6 23498.6 1684.62   1
  13  -8  -6 22638.3 1922.13   4
  -5  13  -6 19327.3 1332.68   2
   5   8  -6 22773.0 1587.88   4
 -13   5  -6 23174.1 1185.22   1
   5   8  -6 21814.1 1764.78   2
   8 -13  -6 23098.9 1864.75   2
  -5  13  -6 24738.9 1373.72   4
   8 -13  -6 23440.0 1896.92   4
  13  -8  -6 23320.4 2015.36   2
   5   8  -6 21951.9 1157.59   3
  -8  -5  -6 20747.6 1529.73   4
  13  -8  -3 91640.1 2820.22   4
   5   8  -3 93633.7 2100.89   4
   5   8  -3 95295.2 2561.01   2
  13  -8  -3 96696.0 2944.22   2
   8 -13  -3 99368.8 2849.54   4
  -5  13  -3 97349.8 2683.78   1
  -5  13  -3 97981.6 1763.45   2
   8 -13  -3 95784.2 2643.02   2
 -13   5  -3 93771.3 1676.16   1
  -5  13  -3 92877.9 2888.70   3
   8 -13  -3 96081.9 2326.59   1
  13  -8   0 115144. 2950.01   3
  13  -8   0 119738. 2219.48   1
   5   8   0 114282. 1969.16   1
  13  -8   0 121844. 2265.28   2
  -8  -5   0 123157. 2938.77   3
  -5  13   0 117517. 1602.40   2
   5   8   0 116457. 2831.47   3
   5   8   0 116548. 1762.51   4
 -13   5   0 113185. 2274.05   1
   8 -13   0 117196. 2462.08   1
   8 -13   0 108225. 1299.05   2
 -13   5   0 118445. 2965.36   3
  -5  13   0 114918. 2277.65   1
   8 -13   0 117995. 1935.92   4
   5   8   3 23848.3 1626.76   3
  -5  13   3 23700.6 1209.56   1
 -13   5   3 24302.5 1530.01   1
   5   8   3 25975.0 1461.17   4
  -8  -5   3 24929.0 988.447   4
  13  -8   3 23227.8 1212.44   1
   8 -13   3 24996.3 847.583   2
   8 -13   3 24213.3 1139.54   4
  -5  13   3 25014.7 1503.80   2
  -5  13   3 25700.4 1340.23   4
 -13   5   3 24739.5 1034.97   3
   5   8   3 22678.1 1425.75   2
  13  -8   3 24945.4 1709.63   3
   5   8   3 25618.6 790.313   1
  13  -8   3 24188.8 1230.93   2
   5   8   6 18971.9 1697.00   3
   8 -13   6 20503.1 1640.11   3
  13  -8   6 18804.9 1766.07   3
   8 -13   6 16578.8 1304.84   2
  -5  13   6 19365.3 1499.10   1
  -5  13   6 20056.3 1499.75   3
   5   8   9 31782.6 2478.62   3
  13  -8   9 27797.8 2283.90   3
  -5  13   9 29977.0 2093.75   3
  13  -8  12 2936.83 1321.33   3
   5   8  12 6493.87 1612.99   3
  -7  -6 -10 20545.3 1987.31   2
 -13   6 -10 20745.2 1932.41   2
   7 -13 -10 20093.1 2227.90   2
  13  -7 -10 25356.3 2674.50   4
   6   7 -10 28343.0 2606.15   2
  -6  13 -10 23213.0 2132.52   1
  -6  13 -10 21164.1 1857.85   4
 -13   6 -10 21264.1 1637.70   1
  13  -7 -10 26466.6 2768.02   2
   6   7 -10 23921.0 2198.43   4
  -7  -6 -10 26682.6 2264.06   4
   7 -13 -10 22174.6 2431.82   4
  -6  13 -10 21505.1 1971.20   2
  13  -7  -7 894.986 843.563   4
  -7  -6  -7 2956.03 868.620   2
 -13   6  -7 291.575 542.268   2
  -7  -6  -7 1423.48 443.225   1
   6   7  -7 173.439 621.296   4
 -13   6  -7 1124.96 467.832   1
   7 -13  -7 1452.02 843.283   4
  -7  -6  -7 1735.80 757.696   4
  -6  13  -7 722.609 527.193   4
   6   7  -7 353.312 829.586   2
   7 -13  -7 2046.23 873.810   2
  13  -7  -7 1463.94 1071.48   2
  -6  13  -7 1111.88 598.249   2
   6   7  -7 1508.94 444.995   3
  -6  13  -7 1552.25 699.039   1
  -7  -6  -4 136050. 1285.95   1
   7 -13  -4 145398. 3770.81   4
  13  -7  -4 138735. 3812.42   4
   6   7  -4 144235. 3586.15   2
  -7  -6  -4 141469. 3183.99   4
  -6  13  -4 145299. 3458.05   1
 -13   6  -4 142576. 2402.45   1
   7 -13  -4 138937. 3503.78   2
   6   7  -4 153473. 2613.73   3
   6   7  -4 138859. 3052.62   4
  -6  13  -4 146438. 2556.73   2
  13  -7  -4 144341. 3970.53   2
  13  -7  -1 22342.7 1161.71   4
   7 -13  -1 22143.9 863.185   2
  13  -7  -1 20563.4 989.586   1
  13  -7  -1 18547.9 1091.88   2
   6   7  -1 19197.7 1123.54   3
  -7  -6  -1 21776.2 1321.91   3
   6   7  -1 21600.6 761.867   4
   7 -13  -1 21422.0 1022.95   4
  -6  13  -1 20541.0 1056.42   1
  13  -7  -1 20167.8 1182.37   3
 -13   6  -1 20843.1 895.075   1
 -13   6  -1 22072.1 1397.20   3
   7 -13  -1 23870.2 1075.95   1
  13  -7   2 90934.6 2018.23   1
   6   7   2 90416.2 2407.71   2
   7 -13   2 86538.1 2499.09   1
   7 -13   2 90693.8 1698.95   4
  -6  13   2 90747.2 2173.30   1
   6   7   2 92938.9 1058.40   1
   6   7   2 90382.5 2876.60   3
  -6  13   2 90452.9 2310.61   2
   6   7   2 92512.4 2348.52   4
  -6  13   2 91152.8 2003.89   4
 -13   6   2 91678.6 2222.86   3
  13  -7   2 91022.5 2912.08   3
 -13   6   2 90901.5 2598.84   1
   7 -13   5 39036.7 1587.26   2
  -6  13   5 41619.9 1977.52   3
  -7  -6   5 37073.7 1530.45   4
   7 -13   5 36883.7 1793.89   4
   6   7   5 38943.1 2232.53   3
  -6  13   5 43649.8 2046.78   1
  13  -7   5 40944.2 2309.02   3
   7 -13   8 50254.1 2564.39   3
  13  -7   8 53894.3 3066.54   3
  -6  13   8 56250.1 2640.11   3
   6   7   8 56838.7 3089.34   3
  13  -7  11 1204.18 1246.72   3
  -6  13  11 3832.38 1138.73   3
   6   7  11 4569.22 1449.35   3
 -13   7 -11 2513.89 1044.74   2
   7   6 -11 6280.08 1657.98   2
   7   6 -11 1968.05 1128.08   4
  -7  13 -11 739.968 806.790   4
  13  -6 -11 682.624 1286.42   2
  13  -6 -11 2636.63 1312.04   4
  -7  13 -11 1775.77 1080.62   1
   6 -13 -11 3928.11 1501.91   4
  -6  -7 -11 1558.57 931.219   4
  -6  -7 -11 2095.20 1080.96   2
   6 -13 -11 3013.80 1378.89   2
  -7  13 -11 1172.00 1029.42   2
 -13   7 -11 1714.93 755.764   1
  -6  -7  -8 48228.2 2591.34   2
 -13   7  -8 45387.8 2391.16   2
   7   6  -8 48046.1 2718.95   4
   6 -13  -8 50310.3 2937.81   2
  13  -6  -8 47938.5 3077.94   4
 -13   7  -8 46031.7 2082.07   1
   6 -13  -8 40221.0 2720.68   4
  -6  -7  -8 44663.8 2610.21   4
   7   6  -8 46605.6 2972.42   2
  13  -6  -8 49994.4 3281.68   2
  -7  13  -8 48369.8 2304.99   4
  -7  13  -8 51697.7 2686.21   1
  -7  13  -8 55147.3 2532.97   2
  -6  -7  -5 42376.3 1052.07   1
   7   6  -5 41788.3 1968.62   4
   7   6  -5 41813.1 1300.28   3
  -6  -7  -5 40655.9 1919.20   2
   6 -13  -5 42844.7 2270.30   4
  -6  -7  -5 43010.0 1997.78   4
 -13   7  -5 41535.3 1511.94   1
   7   6  -5 45427.2 1337.86   3
  -7  13  -5 38494.3 1918.79   1
  13  -6  -5 45440.5 2457.70   2
   6 -13  -5 42344.0 2150.51   2
   7   6  -5 42413.0 2213.17   2
  -7  13  -5 41548.2 1603.84   2
  13  -6  -5 40835.2 2331.60   4
  13  -6  -2 94102.8 2223.50   3
 -13   7  -2 88854.5 1779.93   1
   6 -13  -2 90964.4 2351.71   4
   7   6  -2 89562.3 1863.12   4
   7   6  -2 89946.5 2167.78   3
  13  -6  -2 91782.2 2500.68   4
  -7  13  -2 87777.0 2821.04   3
  -6  -7  -2 96309.4 2870.64   3
  -7  13  -2 97858.1 2413.84   1
  13  -6  -2 89485.2 2288.04   1
   6 -13  -2 94813.9 2188.77   2
 -13   7  -2 87730.6 2889.82   3
   7   6  -2 95663.2 2373.28   2
  13  -6  -2 90347.9 2501.57   2
   6 -13  -2 97216.7 2101.05   1
  -7  13   1 20053.5 1035.48   1
   6 -13   1 20600.9 1145.85   1
 -13   7   1 20333.4 1121.54   1
  -7  13   1 20364.4 859.728   2
   7   6   1 19322.1 556.261   1
   7   6   1 18871.2 944.874   4
  -7  13   1 20158.1 798.314   4
  13  -6   1 20325.3 1370.18   3
 -13   7   1 21672.9 1223.71   3
  13  -6   1 20798.2 892.001   1
   7   6   1 19578.1 1334.81   3
   6 -13   1 20087.6 619.141   4
 -13   7   4 148068. 3958.16   1
  -6  -7   4 147183. 2555.71   4
  -6  -7   4 130433. 2846.92   2
   6 -13   4 147691. 2459.17   2
   7   6   4 143218. 4001.68   3
   6 -13   4 142623. 2982.99   4
 -13   7   4 148569. 2349.99   3
  -7  13   4 138579. 3387.11   4
  -7  13   4 143051. 3368.89   1
  13  -6   4 128734. 3237.52   2
  13  -6   4 144528. 4093.11   3
  -7  13   4 139079. 3748.39   2
  13  -6   7 2091.55 915.798   3
  -7  13   7 2152.62 778.606   1
  -7  13   7 2964.47 799.719   3
   7   6   7 3502.89 1178.72   3
   7   6  10 23107.1 2254.56   3
  -7  13  10 22333.1 1867.02   3
  13  -6  10 19395.1 2099.11   3
  -8  13 -12 6355.43 1274.47   4
  -5  -8 -12 6330.03 1485.87   2
  -8  13 -12 6681.60 1389.91   2
  -5  -8 -12 6476.77 1475.20   4
   8   5 -12 7589.18 1863.61   2
  13  -5 -12 4538.42 1664.38   4
   8   5 -12 7370.88 1829.71   4
 -13   8 -12 4626.21 1074.43   1
  -8  13 -12 4351.94 1277.50   1
   5 -13 -12 6367.53 1704.44   2
 -13   8 -12 5926.09 1328.12   2
  13  -5 -12 5406.41 1890.34   2
   5 -13 -12 5247.08 1585.49   4
 -13   8  -9 27142.2 1919.92   2
  -5  -8  -9 27771.8 2137.05   2
   5 -13  -9 28094.2 2484.99   4
   8   5  -9 24988.6 2246.80   4
  -8  13  -9 25615.7 1829.19   4
   8   5  -9 26933.7 2488.70   2
  13  -5  -9 22572.1 2455.54   2
   5 -13  -9 27010.1 2328.22   2
  13  -5  -9 27167.6 2563.18   4
  -8  13  -9 25000.6 2019.55   1
 -13   8  -9 24079.5 1703.77   1
  -8  13  -9 25757.7 1932.30   2
  -5  -8  -9 23861.0 2113.76   4
  -5  -8  -6 19890.2 930.269   1
  -5  -8  -6 17915.8 1458.11   2
   8   5  -6 19243.0 1577.72   4
 -13   8  -6 19977.1 1319.94   2
  -5  -8  -6 19927.1 1559.68   4
   8   5  -6 20426.5 1778.07   2
  13  -5  -6 18319.9 1680.86   4
  -8  13  -6 21759.8 1547.46   1
 -13   8  -6 19390.8 1203.94   1
  13  -5  -6 19035.5 1815.68   2
   5 -13  -6 18161.7 1601.81   2
   5 -13  -6 18937.3 1653.70   4
  -8  13  -6 19248.2 1288.91   2
   8   5  -6 14734.3 608.706   3
  -8  13  -3 21442.8 1531.33   3
  -8  13  -3 22911.4 690.831   2
  -5  -8  -3 22714.7 623.062   1
  13  -5  -3 23185.6 973.775   3
   5 -13  -3 21395.9 1025.74   1
  13  -5  -3 25612.0 1482.76   4
   8   5  -3 23403.9 1387.81   2
  13  -5  -3 19514.5 1424.32   2
   8   5  -3 21962.5 1159.67   4
  -8  13  -3 24293.8 1313.80   1
  -5  -8  -3 22668.3 1175.54   4
   5 -13  -3 23250.6 1363.37   4
 -13   8  -3 20730.2 956.901   1
  13  -5  -3 21828.9 1287.11   1
   5 -13  -3 23816.9 1326.80   2
   8   5  -3 21985.6 1033.16   3
  -8  13   0 114126. 2336.96   1
  13  -5   0 118670. 2074.81   1
   5 -13   0 118838. 1757.37   4
 -13   8   0 112859. 2922.75   3
  -8  13   0 114848. 3007.04   3
   5 -13   0 117989. 2445.35   1
 -13   8   0 112733. 2288.73   1
   8   5   0 115785. 2836.50   3
  13  -5   0 111312. 2842.27   3
  -5  -8   3 100847. 1682.47   4
 -13   8   3 95574.4 2940.59   1
  13  -5   3 104113. 2630.43   2
 -13   8   3 102591. 2601.78   2
  -8  13   3 97849.5 2453.10   4
   5 -13   3 103931. 2088.51   4
   5 -13   3 101740. 1442.30   2
   8   5   3 101902. 2849.99   4
  13  -5   3 99771.3 2083.66   1
  -8  13   3 95955.7 2679.02   2
  13  -5   3 99435.0 3291.78   3
 -13   8   3 98373.4 2180.37   3
  -8  13   3 101904. 2623.80   1
   5 -13   6 24328.4 1613.60   4
  -8  13   6 24917.6 1510.60   3
   8   5   6 24550.5 1934.23   3
  -8  13   6 23595.9 1777.08   1
   5 -13   6 21488.5 1352.18   2
 -13   8   6 23190.7 803.088   3
  13  -5   6 21341.7 1821.99   3
  13  -5   9 5951.18 1385.94   3
  -8  13   9 7084.66 1093.21   3
   8   5   9 9094.02 1602.91   3
  13  -5  12 5633.26 1684.88   3
   8   5  12 8564.50 1889.30   3
 -13   9 -10 23150.7 1866.60   2
   9   4 -10 23955.7 2608.26   2
   9   4 -10 21873.7 2234.83   4
 -13   9 -10 21483.3 1749.70   1
  13  -4 -10 25895.2 2586.23   4
  -4  -9 -10 22745.5 2209.90   4
  -9  13 -10 23468.5 1915.38   4
   4 -13 -10 23820.9 2440.20   4
   4 -13 -10 23998.2 2431.69   2
  13  -4 -10 22429.9 2540.34   2
  -9  13 -10 22621.2 1914.58   2
  -9  13 -10 22291.2 1990.50   1
  -4  -9 -10 21768.2 2046.20   2
  -4  -9  -7 2018.63 705.072   2
 -13   9  -7 2068.18 669.208   2
  13  -4  -7 2149.71 952.127   2
   4 -13  -7 3649.66 999.347   4
   4 -13  -7 1842.88 819.109   2
  -9  13  -7 2215.04 611.410   4
  13  -4  -7 2417.93 956.571   4
  -4  -9  -7 1892.23 669.800   4
   9   4  -7 1499.06 790.652   4
  -9  13  -7 2114.62 655.978   1
   9   4  -7 2988.85 996.035   2
  -4  -9  -7 2386.39 496.096   1
  -9  13  -7 2324.90 698.876   2
 -13   9  -7 3141.50 668.164   1
   9   4  -4 46320.6 1982.53   4
  -4  -9  -4 51274.5 1987.40   2
   4 -13  -4 48562.5 1592.35   1
  -9  13  -4 47666.8 1936.88   1
   9   4  -4 49554.8 1359.10   3
  -4  -9  -4 47222.3 1917.06   4
  13  -4  -4 48923.7 2340.47   2
   9   4  -4 51161.1 2296.33   2
  13  -4  -4 48938.6 2217.99   4
 -13   9  -4 45353.8 1561.72   1
   4 -13  -4 48599.1 2159.96   4
   4 -13  -4 48080.9 2023.25   2
  -9  13  -4 47323.7 1300.62   2
  -4  -9  -4 50198.2 1091.61   1
   9   4  -1 20935.6 933.989   4
  -9  13  -1 23365.3 1484.17   3
   4 -13  -1 22884.7 806.292   2
 -13   9  -1 22523.2 1430.42   3
  13  -4  -1 20653.4 1013.47   1
  -4  -9  -1 21597.6 882.258   1
  13  -4  -1 22503.8 1222.43   2
   4 -13  -1 21387.6 942.738   4
  13  -4  -1 22995.2 1168.07   4
   4 -13  -1 24937.1 1068.21   1
 -13   9  -1 23468.3 1013.19   1
   9   4  -1 22618.1 1235.28   3
  -9  13  -1 20211.1 1040.04   1
  13  -4  -1 22707.2 1262.29   3
   4 -13   2 100226. 2756.68   1
   9   4   2 91726.7 2444.61   2
  13  -4   2 101499. 1814.15   1
 -13   9   2 96718.9 2202.39   2
   9   4   2 89570.8 2883.08   3
 -13   9   2 89033.2 2528.05   1
   4 -13   2 98564.5 1492.45   4
   9   4   2 96581.1 2418.10   4
  -9  13   2 92792.2 2260.70   2
  -9  13   2 92751.7 2371.74   1
  -9  13   2 94837.5 2083.91   4
  13  -4   2 98861.0 3049.10   3
 -13   9   2 97592.7 2413.88   3
 -13   9   5 1699.32 391.294   3
   4 -13   5 2333.33 586.619   4
  -9  13   5 2692.43 729.767   1
 -13   9   5 2973.20 827.606   1
  -9  13   5 1018.96 456.037   3
  -4  -9   5 1624.62 429.097   4
  13  -4   5 1596.85 796.966   3
   4 -13   5 1765.75 483.098   2
   9   4   5 1903.61 794.458   3
  -9  13   8 10166.9 1160.53   3
   9   4   8 10536.3 1588.79   3
  13  -4   8 11531.5 1663.23   3
  13  -4  11 1452.41 1215.05   3
   9   4  11 2064.75 1271.81   3
   3 -13 -11 1089.90 1128.55   2
 -10  13 -11 926.461 914.764   2
  -3 -10 -11 408.272 1081.22   2
 -13  10 -11 2411.92 992.139   2
  10   3 -11 3265.27 1297.67   4
  13  -3 -11 2261.22 1313.09   4
   3 -13 -11 1619.37 1075.16   4
 -13  10 -11 1054.09 756.233   1
  -3 -10 -11 1848.46 1141.27   4
  13  -3 -11 1546.50 1532.71   2
 -10  13 -11 1713.01 925.849   1
  10   3 -11 2462.99 1466.78   2
 -10  13 -11 496.112 742.799   4
 -13  10  -8 53124.5 2392.55   2
  10   3  -8 59021.7 3123.14   4
   3 -13  -8 56126.8 3159.75   4
  13  -3  -8 53546.8 3215.78   4
 -10  13  -8 56352.9 2692.58   1
  -3 -10  -8 49562.8 2783.41   4
  10   3  -8 53659.1 3277.37   2
  13  -3  -8 53056.0 3287.65   2
 -13  10  -8 55171.8 2388.37   1
   3 -13  -8 55562.7 2980.10   2
 -10  13  -8 51883.9 2337.86   2
  -3 -10  -8 56421.5 2810.82   2
  -3 -10  -5 14564.5 1222.42   2
  10   3  -5 10366.3 459.665   3
  13  -3  -5 11734.5 1337.24   4
   3 -13  -5 12407.9 858.023   1
   3 -13  -5 13137.4 1287.25   4
  10   3  -5 14998.2 1504.23   2
  13  -3  -5 14153.5 1462.68   2
 -10  13  -5 16020.5 1228.75   1
 -13  10  -5 14838.0 1045.26   1
  -3 -10  -5 15274.3 1423.77   4
  10   3  -5 13433.4 1228.86   4
  10   3  -5 9782.87 466.787   3
   3 -13  -5 15000.6 1325.43   2
  -3 -10  -5 13349.5 721.948   1
 -10  13  -5 13416.7 881.213   2
 -10  13  -2 282247. 5200.65   3
   3 -13  -2 300951. 3713.91   2
  13  -3  -2 285889. 4182.68   1
  10   3  -2 306266. 4555.84   2
  13  -3  -2 322277. 4631.51   4
  -3 -10  -2 308165. 2942.40   1
   3 -13  -2 290822. 4035.18   4
  10   3  -2 291415. 4366.66   1
 -13  10  -2 287372. 5292.54   3
  10   3  -2 310087. 3955.33   4
 -10  13  -2 290590. 4064.00   1
  -3 -10  -2 303332. 3549.88   4
   3 -13  -2 302726. 3549.93   1
  13  -3  -2 304147. 3965.55   3
  10   3  -2 303369. 4025.67   3
  13  -3  -2 302527. 4663.82   2
 -13  10  -2 282511. 3540.58   1
   3 -13   1 23805.3 1258.04   1
 -10  13   1 23393.8 1395.93   3
 -10  13   1 23551.7 1164.69   1
 -13  10   1 24748.1 1232.33   1
  10   3   1 22488.8 559.023   1
  10   3   1 21735.5 1399.33   3
 -10  13   1 24578.8 907.039   2
  13  -3   1 22419.2 1475.64   3
  13  -3   1 23002.8 806.989   1
 -13  10   1 22070.2 1310.73   3
 -13  10   4 194608. 3223.24   3
  -3 -10   4 198739. 3154.20   2
   3 -13   4 201071. 3201.09   4
  10   3   4 196812. 4773.45   3
 -10  13   4 194500. 4294.45   2
 -10  13   4 193677. 4163.99   1
   3 -13   4 196401. 2721.06   2
  -3 -10   4 198038. 2777.09   4
  13  -3   4 197509. 4847.85   3
 -13  10   7 592.691 331.058   3
 -10  13   7 835.915 585.612   3
  13  -3   7 952.859 822.815   3
 -10  13   7-67.3768 658.319   1
 -13  10   7 919.911 398.154   3
  10   3   7 1341.07 831.038   3
 -10  13  10 62922.8 2564.28   3
  10   3  10 62674.7 3671.46   3
  13  -3  10 56775.8 3478.58   3
   2 -13 -12 694.605 1144.57   4
   2 -13 -12 499.603 1099.32   2
  -2 -11 -12 2050.49 1306.69   2
 -11  13 -12 2208.60 998.748   2
  11   2 -12 292.621 1156.14   4
 -13  11 -12 1207.65 963.419   2
 -13  11 -12 774.481 792.953   1
 -11  13 -12 2571.93 1050.54   1
  -2 -11 -12 1736.30 1271.47   4
  11   2 -12 1067.41 1434.31   2
  13  -2 -12 4326.25 1907.34   2
  13  -2 -12 1771.62 1354.91   4
   2 -13  -9 6776.62 1335.48   2
 -13  11  -9 9572.32 1208.78   2
 -13  11  -9 9439.19 1233.91   1
 -11  13  -9 8556.78 1238.05   1
  13  -2  -9 10927.9 1804.81   2
  13  -2  -9 4830.15 1262.08   4
   2 -13  -9 7965.93 1420.53   4
  -2 -11  -9 9452.11 1492.48   4
  11   2  -9 7736.96 1680.23   2
  11   2  -9 8756.62 1455.10   4
 -11  13  -9 8179.60 1151.96   2
  -2 -11  -9 8521.62 1360.29   2
 -11  13  -6 18791.4 1176.45   2
 -13  11  -6 17756.0 1167.44   2
   2 -13  -6 20459.3 1667.57   2
  -2 -11  -6 19482.1 1612.50   4
  -2 -11  -6 14176.0 896.411   1
  -2 -11  -6 18668.4 1503.83   2
  13  -2  -6 18331.8 1852.14   2
 -11  13  -6 17233.7 1340.33   1
  11   2  -6 19258.1 1628.60   4
 -13  11  -6 17347.7 1231.88   1
  13  -2  -6 16870.8 1593.40   4
   2 -13  -6 17478.5 1568.70   4
  11   2  -6 17398.6 1705.91   2
  11   2  -3 11163.0 1060.01   2
  11   2  -3 12564.7 801.584   3
  -2 -11  -3 11684.2 891.716   4
  11   2  -3 10506.5 1005.09   1
  11   2  -3 9227.47 872.983   4
  -2 -11  -3 11277.4 599.493   1
   2 -13  -3 9205.36 913.685   4
  -2 -11  -3 11009.4 863.592   2
  13  -2  -3 10710.8 1007.35   4
  13  -2  -3 10993.8 985.598   1
   2 -13  -3 10544.8 880.539   2
 -11  13  -3 10823.6 894.410   1
 -13  11  -3 10306.8 783.876   1
  13  -2  -3 9519.77 1048.58   2
   2 -13  -3 10325.0 690.356   1
  13  -2  -3 11803.7 755.051   3
 -13  11   0 482.543 496.207   3
 -11  13   0 802.748 467.278   3
  -2 -11   0 1985.24 453.449   1
  11   2   0 1279.93 285.790   1
 -11  13   0 1879.78 431.592   1
  11   2   0 922.208 498.105   3
   2 -13   0 1527.88 412.254   1
 -13  11   0 1362.49 386.288   1
  13  -2   0 719.403 248.835   1
  13  -2   0 1496.20 598.531   3
 -11  13   3 9227.78 834.543   4
 -13  11   3 9118.04 846.203   3
 -11  13   3 9832.10 972.646   1
  13  -2   3 9365.18 572.829   1
   2 -13   3 10573.7 552.950   4
 -13  11   3 8622.27 972.324   1
  -2 -11   3 11005.5 484.678   4
 -13  11   3 10539.9 905.974   2
  13  -2   3 11273.2 1239.16   3
  11   2   3 9019.11 1188.27   3
 -11  13   3 10134.9 908.323   2
 -13  11   6 32297.4 1313.06   3
   2 -13   6 31776.6 1554.06   2
   2 -13   6 30201.5 1673.42   4
 -11  13   6 35131.6 2178.14   1
 -13  11   6 34002.4 1397.18   3
 -13  11   6 30738.3 2103.59   1
 -11  13   6 32103.3 1624.14   3
  -2 -11   6 28086.7 1514.14   4
  11   2   6 32721.1 2245.40   3
  13  -2   6 32464.4 2268.43   3
 -11  13   9 21747.7 1512.01   3
  11   2   9 22603.3 2282.12   3
 -13  11   9 18374.5 992.022   3
  13  -2   9 17199.5 1989.11   3
  13  -2  12 1405.07 1244.24   3
  11   2  12 1638.01 1436.63   3
  13  -1 -10 5330.10 1519.30   4
  -1 -12 -10 3860.47 1112.32   2
 -12  13 -10 3662.85 984.665   2
 -13  12 -10 4893.85 1015.04   2
  12   1 -10 5089.02 1292.57   4
   1 -13 -10 7032.28 1462.22   4
 -12  13 -10 2845.55 911.938   1
  -1 -12 -10 3581.32 1275.88   4
 -13  12 -10 3757.26 972.313   1
   1 -13 -10 2746.82 1203.63   2
  13  -1 -10 6088.45 1774.12   2
  12   1 -10 7147.96 1720.97   2
 -12  13  -7 17471.5 1249.76   2
   1 -13  -7 14507.8 1575.47   4
 -13  12  -7 16185.4 1222.84   2
 -12  13  -7 17391.9 1415.07   1
  12   1  -7 16811.7 1672.87   4
  -1 -12  -7 18436.5 1755.87   4
  13  -1  -7 18187.3 1920.06   2
   1 -13  -7 14221.0 1487.61   2
  13  -1  -7 16530.3 1750.69   4
  -1 -12  -7 15480.1 1512.45   2
 -13  12  -7 17233.2 1384.16   1
  12   1  -7 17734.7 1966.07   2
  -1 -12  -4 9727.11 959.824   2
  12   1  -4 9627.41 1039.76   4
  13  -1  -4 9798.98 530.950   3
   1 -13  -4 8011.71 649.857   1
   1 -13  -4 9662.00 1008.26   4
  -1 -12  -4 9740.10 973.474   4
  13  -1  -4 9651.72 1179.16   2
 -13  12  -4 8655.96 836.232   1
  13  -1  -4 8668.47 1057.16   4
  12   1  -4 9894.31 593.342   3
  12   1  -4 8986.68 1191.05   2
 -12  13  -4 9794.29 877.775   1
  -1 -12  -4 8450.48 604.370   1
   1 -13  -4 8621.44 891.384   2
 -12  13  -1 37518.2 1934.93   3
 -12  13  -1 32535.8 1308.07   1
 -13  12  -1 34311.6 1353.88   1
  13  -1  -1 37026.5 1372.02   1
  13  -1  -1 38587.2 1646.36   2
   1 -13  -1 36632.7 1306.32   1
  12   1  -1 28382.5 1249.18   4
  13  -1  -1 30055.9 1333.87   4
  -1 -12  -1 31743.8 1254.90   1
  12   1  -1 36132.2 1591.35   3
   1 -13  -1 35528.7 1040.71   4
  -1 -12  -1 36266.2 954.531   4
  12   1  -1 35029.0 1348.27   1
  13  -1  -1 35160.3 1592.59   3
 -13  12  -1 33428.2 1835.01   3
 -13  12   2 1661.76 573.434   3
 -12  13   2 1394.34 563.282   3
 -12  13   2 1184.59 379.515   4
 -13  12   2 888.103 359.571   2
 -13  12   2 351.129 363.786   1
 -12  13   2 1373.29 457.290   1
  13  -1   2 1734.55 232.597   1
  12   1   2 1148.87 631.126   3
 -13  12   2 723.037 370.418   4
  12   1   2 1268.80 440.113   4
  13  -1   2 1452.48 689.544   3
 -12  13   2 1140.78 385.625   2
 -13  12   5-661.632 694.025   1
 -12  13   5 757.742 673.545   1
   1 -13   5 440.854 373.036   4
  -1 -12   5 890.561 398.746   2
 -13  12   5 311.985 430.623   3
  12   1   5 625.120 756.516   3
   1 -13   5 1046.40 453.178   2
  -1 -12   5 972.878 400.159   4
  13  -1   5 72.4988 736.170   3
 -12  13   8 2001.18 677.598   3
 -13  12   8 1962.88 546.476   3
  12   1   8 1530.02 1059.58   3
  13  -1   8 2235.14 1062.87   3
  13  -1  11 5259.44 1597.34   3
  12   1  11 4489.56 1597.36   3
   0 -13 -11 926.444 1083.74   2
 -13  13 -11 226.831 707.955   1
 -13  13 -11 692.181 799.757   2
  13   0 -11 1239.15 1179.83   4
   0 -13 -11 893.830 1073.80   4
  13   0 -11 678.725 1231.30   2
 -13  13  -8 114509. 3363.50   2
  13   0  -8 116671. 4521.43   4
  13   0  -8 117528. 4832.45   2
   0 -13  -8 114942. 4337.12   4
 -13  13  -8 120073. 3714.42   1
   0 -13  -8 110440. 4010.04   2
   0 -13  -5 912.126 595.787   2
  13   0  -5-121.532 635.364   2
   0 -13  -5 113.129 261.723   1
 -13  13  -5 50.6498 432.788   1
   0 -13  -5 116.024 529.789   4
  13   0  -5 436.367 567.556   4
   0 -13  -2 335761. 3762.29   1
  13   0  -2 335336. 4714.69   4
  13   0  -2 316582. 4603.07   1
  13   0  -2 332616. 4407.03   3
 -13  13  -2 322985. 4172.36   1
   0 -13  -2 327938. 3906.51   4
 -13  13   1-741.704 548.427   3
  13   0   1-126.048 163.333   1
 -13  13   1-268.146 383.434   1
   0 -13   1 287.155 403.079   1
  13   0   1 350.906 619.931   3
 -13  13   4 220855. 3995.94   3
 -13  13   4 231679. 4841.83   1
   0 -13   4 221518. 2872.40   4
 -13  13   7 169.876 470.714   3
 -13  13   7 789.240 774.866   1
  13   0   7-1139.78 964.305   3
  13   0  10 112028. 4933.08   3
   0  14 -11 1064.13 1180.25   1
  14 -14 -11 1677.83 1422.94   4
 -14   0 -11-1194.87 1017.04   2
   0  14 -11 683.123 861.529   4
  14 -14 -11 767.840 1523.65   2
   0  14 -11-264.900 1032.68   2
  14 -14  -8 667.814 923.211   4
   0  14  -8 184.932 762.389   1
   0  14  -8 817.086 563.945   4
 -14   0  -8 316.440 306.038   1
   0  14  -8 331.258 851.768   2
  14 -14  -8 1621.82 1289.36   2
   0  14  -5 135.410 315.829   4
  14 -14  -5-36.5145 628.750   4
   0  14  -5 1082.30 670.568   2
  14 -14  -5 745.915 780.563   2
 -14   0  -5 169.189 122.430   1
   0  14  -5 164.219 551.372   1
   0  14  -2 10105.6 716.902   2
  14 -14  -2 10880.6 991.621   4
  14 -14  -2 10338.6 986.173   2
   0  14  -2 11155.1 926.788   1
   0  14   1-0.26511 226.467   4
   0  14   1-52.8309 336.915   2
   0  14   1 640.014 598.892   3
  14 -14   1-220.527 688.570   3
   0  14   1 284.513 243.964   1
 -14   0   1-268.169 485.299   3
  14 -14   1-96.0972 219.304   2
  14 -14   4 3478.16 922.542   3
   0  14   4 3548.84 795.573   4
   0  14   4 4009.38 931.216   3
   0  14   4 3691.16 538.313   1
  14 -14   4 4471.23 687.866   2
  14 -14   7 193.555 829.061   3
   0  14   7-326.017 921.126   3
   0  14  10 11849.9 1813.72   3
  14 -14  10 9995.84 1750.34   3
  13 -14  -9 22361.5 2465.56   2
   1  13  -9 20064.3 2143.64   1
 -13  -1  -9 18646.8 1793.58   2
 -14   1  -9 19903.8 1766.74   2
   1  13  -9 24067.1 1864.86   4
   1  13  -9 18752.0 1943.68   2
  -1  14  -9 20473.5 1721.85   4
  14 -13  -9 21162.6 2331.70   2
  -1  14  -9 18279.8 2010.88   1
  14 -13  -9 18275.0 2196.91   4
  -1  14  -9 19330.8 1899.81   2
  13 -14  -9 17879.2 2189.42   4
 -13  -1  -9 17253.8 1136.05   1
 -14   1  -9 18736.1 1198.36   1
   1  13  -6 5574.34 922.900   3
  13 -14  -6 4923.29 1055.25   4
 -13  -1  -6 5174.31 508.831   1
  -1  14  -6 6131.64 928.288   2
   1  13  -6 4009.24 913.339   1
  -1  14  -6 4021.80 972.859   1
  14 -13  -6 5236.06 1118.49   4
 -13  -1  -6 5343.61 403.237   1
   1  13  -6 4317.91 709.196   4
  -1  14  -6 5004.03 713.169   4
  14 -13  -6 6020.50 1312.91   2
 -14   1  -6 4715.73 430.142   1
   1  13  -6 3754.05 876.585   2
  13 -14  -6 5353.25 1204.62   2
   1  13  -3 29832.6 807.005   4
  13 -14  -3 30897.0 1750.13   4
  -1  14  -3 33045.8 1687.38   1
  13 -14  -3 32884.4 1758.95   2
  -1  14  -3 32838.1 1337.14   2
   1  13  -3 34840.6 1448.55   2
  14 -13  -3 31631.1 1754.40   2
   1  13  -3 31443.8 1654.56   1
  14 -13  -3 28234.8 1707.89   4
 -14   1  -3 32010.6 763.892   1
  -1  14   0 7344.33 562.601   2
   1  13   0 5660.62 523.470   2
  14 -13   0 6289.66 910.113   3
  14 -13   0 6577.36 674.363   4
 -14   1   0 5547.81 790.582   3
  13 -14   0 6110.51 620.034   4
  13 -14   0 6159.69 574.765   2
   1  13   0 5690.93 549.958   1
 -13  -1   0 5944.38 817.123   3
  14 -13   0 6139.42 577.181   2
  -1  14   0 6519.03 627.127   1
  13 -14   3 10820.4 926.252   4
  13 -14   3 11368.7 1364.73   3
  -1  14   3 13039.1 858.543   1
  14 -13   3 12854.9 1324.09   3
   1  13   3 13014.5 1077.66   4
  -1  14   3 12924.6 1040.26   4
   1  13   3 13040.1 1247.73   3
 -13  -1   3 13962.3 864.311   3
  -1  14   3 12501.8 1208.22   3
 -14   1   3 11533.3 766.699   3
  -1  14   3 11111.5 1115.08   2
   1  13   3 13582.7 802.775   1
  13 -14   3 12932.5 820.640   2
   1  13   3 13429.4 1227.54   2
  14 -13   3 13561.2 879.431   2
  -1  14   6 2436.49 686.583   1
  14 -13   6 3808.33 1057.66   3
  13 -14   6 3501.25 1041.21   3
  13 -14   6 2903.87 827.734   2
  -1  14   6 2635.55 814.539   3
   1  13   6 3346.04 1049.65   3
   1  13   9 10228.9 1561.62   3
  13 -14   9 7609.76 1415.48   3
  -1  14   9 11596.0 1680.74   3
  14 -13   9 6723.74 1445.35   3
 -12  -2 -10 14904.7 1175.82   1
 -12  -2 -10 16096.7 1789.07   2
 -14   2 -10 16601.4 1766.76   2
  -2  14 -10 19836.3 1823.25   4
  14 -12 -10 17599.0 2357.94   4
 -14   2 -10 17814.8 1338.67   1
   2  12 -10 22540.6 2500.26   1
  -2  14 -10 16830.1 1960.58   1
   2  12 -10 17190.2 1762.43   4
   2  12 -10 23196.5 2366.38   2
  14 -12 -10 15637.4 2301.33   2
  12 -14 -10 17737.6 2255.09   2
  -2  14 -10 17640.0 1914.48   2
  12 -14 -10 18090.1 2350.65   4
 -12  -2 -10 19645.1 1913.13   4
   2  12  -7 49267.8 2828.19   1
   2  12  -7 47357.0 2139.01   3
  14 -12  -7 52916.9 3158.15   4
  12 -14  -7 50021.3 2979.06   2
  12 -14  -7 54538.2 3172.92   4
  -2  14  -7 53587.7 2188.47   4
  14 -12  -7 54477.6 3206.58   2
   2  12  -7 54993.6 2813.29   2
   2  12  -7 52226.7 2355.80   4
  -2  14  -7 54084.6 2561.13   2
 -12  -2  -7 51556.5 1447.54   1
 -12  -2  -7 52943.1 1648.60   1
 -14   2  -7 54248.2 1646.76   1
 -14   2  -4 29494.3 805.441   1
  -2  14  -4 27978.9 1662.87   1
  14 -12  -4 31304.2 1930.13   4
  12 -14  -4 28748.6 1897.00   4
   2  12  -4 31236.2 1649.67   2
   2  12  -4 26821.5 1683.17   1
   2  12  -4 30835.8 1230.19   4
  14 -12  -4 30247.6 1923.17   2
  -2  14  -4 29480.6 1004.83   4
  12 -14  -4 29291.9 1872.86   2
  -2  14  -4 28965.2 1404.85   2
 -12  -2  -1 111531. 3148.41   3
   2  12  -1 117380. 2548.73   1
  14 -12  -1 113065. 2573.64   2
  12 -14  -1 109473. 2347.02   2
  -2  14  -1 111095. 2485.75   1
  14 -12  -1 112897. 2625.88   4
  12 -14  -1 108457. 2523.27   4
 -14   2  -1 113609. 3281.56   3
 -14   2  -1 111007. 2031.32   1
  12 -14   2 64640.3 2582.67   3
   2  12   2 66627.0 1565.21   1
   2  12   2 74799.8 2099.89   4
   2  12   2 69526.2 2595.90   3
  -2  14   2 76622.6 2296.22   2
  -2  14   2 74995.1 1952.05   4
  14 -12   2 72255.5 2213.38   1
 -12  -2   2 76368.5 2103.01   3
  14 -12   2 72067.1 1693.68   2
 -14   2   2 68649.6 1978.62   3
  14 -12   2 79362.1 2920.50   3
  -2  14   2 72581.4 1848.03   1
  12 -14   2 73768.4 1410.88   2
   2  12   2 73775.1 2298.99   2
  12 -14   5 102821. 3704.44   3
  -2  14   5 102638. 3393.85   3
  12 -14   5 108482. 2923.10   2
  14 -12   5 102366. 3762.38   3
   2  12   5 95263.9 3567.04   3
  14 -12   5 100044. 3064.40   2
   2  12   5 101855. 2540.95   1
  -2  14   5 105301. 2906.70   1
  14 -12   8 49851.9 2995.98   3
  12 -14   8 53824.1 3031.99   3
  -2  14   8 55368.9 2944.75   3
   2  12   8 54928.6 3104.46   3
  14 -12  11 28812.3 2681.83   3
  -2  14  11 43685.3 2991.73   3
   2  12  11 42444.0 3076.51   3
  12 -14  11 31233.1 2658.22   3
   3  11 -11 3997.03 1368.85   1
 -11  -3 -11 2084.17 979.062   2
 -14   3 -11 3726.55 1136.87   2
  -3  14 -11 2733.27 1118.96   1
  14 -11 -11 5120.76 1670.07   2
  11 -14 -11 3363.26 1575.51   4
  14 -11 -11 6029.72 1665.26   4
   3  11 -11 3177.84 1135.16   4
 -14   3 -11 4039.37 854.795   1
 -11  -3 -11 2628.82 1086.55   4
  -3  14 -11 4442.60 1163.63   4
   3  11 -11 3896.26 1462.19   2
  11 -14 -11 1711.39 1395.66   2
  -3  14 -11 4239.51 1278.17   2
  -3  14  -8 9996.64 1162.82   4
  14 -11  -8 7996.17 1462.39   4
  -3  14  -8 9528.15 1355.60   2
  14 -11  -8 12336.4 1784.72   2
 -11  -3  -8 8385.15 1213.84   2
  11 -14  -8 8190.01 1519.28   2
 -11  -3  -8 10123.8 846.048   1
 -14   3  -8 10850.5 1270.41   2
   3  11  -8 8838.10 1222.07   4
  11 -14  -8 8153.75 1437.11   4
 -14   3  -8 10180.2 894.131   1
   3  11  -8 10677.2 1675.86   2
 -11  -3  -8 8580.82 1263.37   4
  -3  14  -8 6857.79 1260.74   1
   3  11  -5 14233.1 1152.94   3
  14 -11  -5 14072.1 1506.91   2
  11 -14  -5 15213.1 1560.38   4
  14 -11  -5 15346.1 1503.64   4
 -11  -3  -5 12379.6 421.807   1
   3  11  -5 13816.3 1357.76   1
  -3  14  -5 13990.7 1275.26   1
  -3  14  -5 13524.4 878.946   4
 -11  -3  -5 11822.6 378.083   1
  11 -14  -5 15770.0 1525.99   2
 -14   3  -5 14702.9 721.348   1
   3  11  -5 13900.0 1340.61   2
   3  11  -5 15100.4 1077.62   4
  -3  14  -5 13125.0 1073.62   2
  14 -11  -2 29380.8 1543.48   4
  11 -14  -2 31983.1 1545.09   4
  11 -14  -2 30069.4 1423.60   2
  -3  14  -2 31530.5 982.912   2
   3  11  -2 31310.1 1484.13   1
   3  11  -2 30173.8 817.172   4
  -3  14  -2 31104.5 1475.34   1
 -14   3  -2 30794.4 953.152   1
   3  11  -2 30938.3 1261.74   2
  14 -11  -2 29233.7 1536.46   2
  -3  14   1 11213.8 751.098   1
  14 -11   1 9020.70 1056.80   3
   3  11   1 9841.64 775.076   2
  11 -14   1 8893.31 423.375   2
 -11  -3   1 10516.4 870.154   3
  -3  14   1 8772.63 712.232   2
   3  11   1 9824.91 672.642   4
   3  11   1 10369.9 584.955   1
   3  11   1 11491.6 1131.10   3
 -14   3   1 10137.6 910.857   3
  11 -14   1 6910.19 319.955   2
  14 -11   1 9722.92 795.126   1
 -14   3   1 10032.0 875.313   1
  -3  14   1 9252.96 515.164   4
  14 -11   4 13789.1 1487.90   3
  11 -14   4 12295.6 1322.62   3
 -11  -3   4 13501.0 902.537   4
   3  11   4 13526.6 1258.80   4
  11 -14   4 12788.0 1028.55   4
  14 -11   4 12213.0 1035.22   2
 -14   3   4 11156.2 588.832   3
  11 -14   4 15556.9 964.256   2
  -3  14   4 13631.2 1281.07   3
   3  11   4 15429.5 1395.73   3
  -3  14   4 14410.0 1031.99   1
  -3  14   4 13207.1 1187.37   4
   3  11   4 12858.8 803.939   1
  14 -11   7 17220.7 1800.80   3
  11 -14   7 14115.4 1585.61   3
   3  11   7 18689.2 1771.36   3
  -3  14   7 18539.3 1705.89   3
  14 -11  10 14539.8 1880.28   3
  -3  14  10 17488.8 1934.21   3
   3  11  10 19173.3 2242.83   3
 -10  -4 -12 1120.49 999.476   2
  14 -10 -12 327.203 1436.63   4
  -4  14 -12 1815.30 1182.71   1
  -4  14 -12-116.332 897.320   4
 -10  -4 -12-1505.74 1196.45   4
  14 -10 -12-195.683 1357.25   2
 -14   4 -12-418.397 965.317   2
   4  10 -12-145.245 978.047   4
   4  10 -12-339.746 1292.07   2
  10 -14 -12 364.677 1345.92   4
  10 -14 -12 624.882 1401.30   2
  -4  14 -12 336.129 1074.37   2
 -10  -4  -9 15825.6 1657.78   2
 -14   4  -9 18333.8 1650.54   2
 -14   4  -9 17021.2 1286.31   1
  10 -14  -9 16662.2 2008.80   2
  -4  14  -9 18170.0 1584.47   4
  10 -14  -9 20613.9 2347.28   4
   4  10  -9 18304.9 1786.98   4
  14 -10  -9 15954.1 2109.43   4
 -10  -4  -9 17376.1 1817.28   4
   4  10  -9 17865.1 2035.96   2
  -4  14  -9 16012.2 1795.45   1
  -4  14  -9 13854.7 1639.89   2
  14 -10  -9 17204.0 2120.95   2
 -10  -4  -9 15441.1 1180.93   1
   4  10  -6 4998.55 750.576   3
 -10  -4  -6 4069.19 433.015   1
  10 -14  -6 3918.26 1014.83   2
 -10  -4  -6 3676.19 785.914   2
  14 -10  -6 3672.23 984.057   4
  -4  14  -6 4107.08 741.299   2
  -4  14  -6 3268.01 786.854   1
  14 -10  -6 4802.83 1172.80   2
   4  10  -6 4393.40 803.850   4
 -14   4  -6 4289.29 531.866   1
   4  10  -6 4843.17 979.070   2
 -10  -4  -6 5251.76 846.238   4
 -10  -4  -6 4269.23 416.088   1
  -4  14  -6 4178.52 620.741   4
  10 -14  -6 5498.06 1211.48   4
 -14   4  -3 58509.1 1275.26   1
  14 -10  -3 57612.6 2301.58   4
  10 -14  -3 61554.1 2364.18   4
  14 -10  -3 56038.4 2311.80   2
   4  10  -3 58005.7 1965.73   2
   4  10  -3 53902.3 2166.89   1
  -4  14  -3 58802.4 1493.15   2
  10 -14  -3 56136.5 2155.82   2
  -4  14  -3 52905.3 2228.69   3
   4  10  -3 58005.0 1566.19   4
  -4  14  -3 60300.1 2162.51   1
  14 -10   0 5664.43 808.845   3
  10 -14   0 6675.38 676.514   1
   4  10   0 6536.01 448.452   4
  -4  14   0 6702.94 470.331   2
  10 -14   0 6868.57 560.946   4
   4  10   0 6891.47 547.842   1
 -14   4   0 5580.15 602.068   1
  10 -14   0 6390.83 422.159   2
   4  10   0 6090.17 762.495   3
 -10  -4   0 6549.70 779.582   3
  -4  14   0 6039.38 619.025   1
  14 -10   0 5661.92 598.676   2
 -14   4   0 7355.17 867.351   3
  14 -10   0 6290.97 616.784   1
 -14   4   3 34185.6 1221.43   3
   4  10   3 37540.7 1068.33   1
   4  10   3 34272.3 1667.43   4
  10 -14   3 34428.5 1946.73   3
   4  10   3 37170.3 1986.05   3
  -4  14   3 36090.2 1587.78   4
  14 -10   3 32622.1 1539.87   1
  -4  14   3 31484.7 1676.45   3
  10 -14   3 33988.7 1382.07   4
  -4  14   3 34991.4 1751.04   2
  -4  14   3 34574.3 1459.17   1
  10 -14   3 33525.7 1037.18   2
  14 -10   3 32104.5 1391.10   2
  14 -10   3 34955.0 2070.17   3
  14 -10   6 1477.95 863.266   3
  -4  14   6 1590.28 636.871   3
  10 -14   6 1799.63 753.494   3
  -4  14   6 1364.42 572.868   1
  10 -14   6 814.486 637.772   2
   4  10   6 1894.83 872.357   3
  14 -10   9 23223.6 2266.26   3
  10 -14   9 25117.6 2124.47   3
   4  10   9 28055.9 2384.07   3
  14 -10  12 186.904 1232.36   3
  10 -14  12 256.215 1039.37   3
   4  10  12 1470.61 1225.66   3
  -9  -5 -10 8852.43 1422.85   2
 -14   5 -10 11053.5 1418.54   2
  -9  -5 -10 7832.94 1040.91   1
   5   9 -10 9647.45 1533.06   4
  -5  14 -10 10517.0 1577.05   1
 -14   5 -10 9217.95 1097.21   1
   5   9 -10 9721.88 1793.18   2
   9 -14 -10 6919.05 1541.23   4
  -5  14 -10 10430.6 1332.80   4
  -9  -5 -10 11489.1 1619.83   4
  14  -9 -10 7294.66 1590.20   4
  14  -9 -10 9326.80 1875.61   2
  -5  14 -10 11148.2 1625.75   2
   9 -14 -10 9985.63 1739.53   2
  -5  14  -7 51626.9 2652.48   1
  -9  -5  -7 53853.5 2538.05   2
  14  -9  -7 51907.1 3083.66   2
   5   9  -7 46514.5 2342.20   4
   9 -14  -7 51187.8 2980.45   4
  -9  -5  -7 48926.4 1514.53   1
  -5  14  -7 49805.2 2076.36   4
  -9  -5  -7 52235.4 2539.48   4
   5   9  -7 53130.7 2904.39   2
  -5  14  -7 46407.5 2219.05   2
  14  -9  -7 50603.8 3035.72   4
   9 -14  -7 51340.1 2883.65   2
   5   9  -7 47875.9 1783.18   3
 -14   5  -7 51234.1 1831.96   1
   9 -14  -4 10808.8 1160.93   2
  14  -9  -4 11086.4 1183.74   4
   5   9  -4 11834.9 1085.07   2
   9 -14  -4 12919.4 1240.11   4
  14  -9  -4 10096.1 1201.24   2
  -5  14  -4 10039.3 1038.63   1
   5   9  -4 10372.8 873.941   4
  -5  14  -4 10902.3 776.184   2
 -14   5  -4 11367.3 650.253   1
  14  -9  -1 145842. 2896.81   2
  14  -9  -1 149605. 3247.22   3
  14  -9  -1 141501. 3019.43   4
   9 -14  -1 144616. 2698.38   4
  14  -9  -1 150816. 2763.72   1
   5   9  -1 146854. 1750.75   4
   5   9  -1 143360. 2779.46   1
  -9  -5  -1 139422. 3363.37   3
   9 -14  -1 146060. 2320.86   2
  -5  14  -1 147734. 2838.05   1
   5   9  -1 152479. 3242.02   3
 -14   5  -1 143140. 2368.25   1
 -14   5  -1 140386. 3578.16   3
   9 -14  -1 140353. 2725.75   1
   5   9   2 89238.7 2468.57   2
   5   9   2 95284.4 1364.94   1
  -5  14   2 93538.3 2237.89   1
   5   9   2 96240.2 2433.41   4
  14  -9   2 93893.0 2285.03   1
  -5  14   2 90573.4 2391.30   2
  -5  14   2 88123.7 2013.73   4
   5   9   2 96830.0 3011.05   3
 -14   5   2 90398.6 2278.42   3
 -14   5   2 88367.5 2626.77   1
  14  -9   2 95598.6 3143.06   3
   5   9   5 66629.5 2949.18   3
   9 -14   5 65393.2 2728.52   3
  -5  14   5 63600.5 2505.43   3
  -5  14   5 66800.5 2482.13   1
   9 -14   5 63487.8 2425.72   4
   9 -14   5 63874.2 2049.11   2
  14  -9   5 66232.0 2987.99   3
   9 -14   8 33453.4 2269.47   3
  14  -9   8 28422.0 2311.29   3
  -5  14   8 37748.0 2338.90   3
   5   9   8 34359.2 2537.85   3
  14  -9  11 26282.1 2585.37   3
  -5  14  11 32570.3 2414.73   3
   5   9  11 35089.5 2887.13   3
 -14   6 -11 18050.4 1571.67   1
  -8  -6 -11 14341.7 1950.42   2
   8 -14 -11 22839.6 2529.12   2
 -14   6 -11 22629.8 2014.80   2
  -8  -6 -11 17646.1 2156.55   4
   8 -14 -11 23607.9 2659.12   4
   6   8 -11 19781.3 2194.23   4
  -6  14 -11 18295.3 1869.39   4
  14  -8 -11 17796.0 2427.95   4
  14  -8 -11 18272.2 2547.73   2
  -6  14 -11 20060.7 2142.87   1
  -6  14 -11 21448.8 2094.64   2
   6   8 -11 15707.5 2447.58   2
  14  -8  -8 10666.5 1678.36   4
 -14   6  -8 10490.4 1241.20   2
  -8  -6  -8 13747.6 1486.18   4
 -14   6  -8 13222.4 1106.29   1
   6   8  -8 11445.5 1372.06   4
  -6  14  -8 13657.0 1491.93   1
  -8  -6  -8 9967.26 862.069   1
  14  -8  -8 10317.4 1781.17   2
   6   8  -8 11101.4 1613.34   2
  -6  14  -8 12319.5 1207.54   4
   8 -14  -8 14009.9 1712.73   2
   8 -14  -8 14102.9 1824.09   4
  -6  14  -8 12169.0 1315.45   2
  -8  -6  -8 12836.5 1435.03   2
   6   8  -5 63552.2 2715.83   2
   6   8  -5 62075.6 1853.39   3
  -8  -6  -5 62563.8 1042.06   1
  -6  14  -5 62510.4 2524.42   1
  -8  -6  -5 61938.6 2354.59   4
   6   8  -5 59340.1 2259.42   4
   8 -14  -5 59527.8 2619.34   2
   8 -14  -5 65652.7 2897.39   4
  14  -8  -5 62054.6 2925.81   2
 -14   6  -5 62272.9 1726.30   1
  14  -8  -5 62575.8 2880.47   4
  -6  14  -5 62737.7 1970.94   2
   6   8  -2 4398.24 674.799   3
  -6  14  -2 5596.86 672.796   1
  14  -8  -2 6758.54 737.195   3
  -6  14  -2 5402.91 863.068   3
   8 -14  -2 5539.81 700.601   4
  14  -8  -2 5708.24 750.095   4
 -14   6  -2 6028.70 488.021   1
   6   8  -2 5426.21 476.767   4
   6   8  -2 6421.12 707.843   2
  14  -8  -2 5482.02 642.462   1
  14  -8  -2 4004.03 705.301   2
 -14   6  -2 5376.44 879.667   3
   8 -14  -2 5801.91 652.131   2
   8 -14  -2 5536.56 606.104   1
  -6  14   1 179943. 2241.85   4
   8 -14   1 186715. 2230.65   4
   6   8   1 190384. 3992.42   3
   6   8   1 189636. 2922.31   4
  -6  14   1 182833. 2699.82   2
  -6  14   1 190602. 3104.06   1
   6   8   1 185915. 1970.00   1
   8 -14   1 179178. 3357.73   1
  14  -8   1 185812. 2837.23   1
 -14   6   1 171913. 3324.60   1
 -14   6   1 181953. 3524.02   3
  14  -8   1 171098. 3889.28   3
  14  -8   4 33243.8 1564.28   1
   8 -14   4 35166.5 1237.51   2
 -14   6   4 32072.3 1911.91   1
  -8  -6   4 35806.4 1297.14   4
   8 -14   4 35890.7 1591.33   4
  -6  14   4 33413.1 1898.43   2
   6   8   4 37084.1 2139.65   3
  -6  14   4 31246.7 1615.32   3
  -6  14   4 36095.9 1709.91   1
 -14   6   4 34659.3 1131.38   3
  14  -8   4 32722.6 1694.67   2
  14  -8   4 35821.3 2144.59   3
  -6  14   4 31310.2 1677.89   4
   8 -14   7 19534.4 1640.72   3
  -6  14   7 19488.2 1562.53   3
   6   8   7 17746.2 1840.69   3
  -6  14   7 17802.5 1589.60   1
  14  -8   7 14745.3 1729.49   3
  14  -8  10 1680.03 1150.27   3
  -6  14  10 1523.08 896.406   3
   6   8  10 1407.05 1130.99   3
  -7  -7 -12 793.272 1084.08   2
  14  -7 -12 1199.09 1258.91   4
 -14   7 -12-32.4980 901.207   2
  -7  14 -12 1965.88 1239.03   1
 -14   7 -12 1568.60 828.385   1
  -7  14 -12 1077.78 1078.91   2
  -7  -7 -12-519.084 990.170   4
   7 -14 -12 551.734 1237.83   4
  -7  14 -12 506.943 909.896   4
   7 -14 -12-2301.08 1444.71   2
  14  -7 -12-92.1068 1536.48   2
   7   7 -12 1232.78 1418.63   2
   7   7 -12 1824.18 1152.84   4
  -7  -7  -9 11897.6 1544.99   2
 -14   7  -9 12766.6 1403.95   2
   7 -14  -9 16277.9 1923.31   2
  -7  14  -9 13438.0 1621.18   1
 -14   7  -9 14666.8 1286.35   1
  -7  -7  -9 16536.5 1739.01   4
   7   7  -9 14204.7 1683.38   4
   7   7  -9 15346.7 2138.06   2
  14  -7  -9 16437.3 2237.67   2
  -7  14  -9 13559.7 1388.54   4
  14  -7  -9 10587.1 1766.73   4
  -7  14  -9 13903.5 1514.10   2
   7 -14  -9 15077.6 1897.06   4
  -7  -7  -6 1497.27 662.114   2
   7   7  -6 2159.86 418.880   3
   7   7  -6 882.127 633.248   4
  -7  -7  -6 2088.08 701.373   4
  -7  -7  -6 1544.01 295.979   1
   7   7  -6 1073.55 714.519   2
  14  -7  -6 1887.56 888.128   2
   7 -14  -6 934.352 709.640   4
   7   7  -6 1507.80 361.200   3
  14  -7  -6 1566.66 818.175   4
  -7  14  -6 1904.83 651.132   1
 -14   7  -6 2135.65 480.825   1
  -7  14  -6 1575.35 464.522   4
   7 -14  -6 1630.08 732.548   2
  -7  14  -6 1735.81 620.974   2
   7 -14  -3 106375. 2385.74   1
  14  -7  -3 108602. 2221.08   3
   7 -14  -3 102716. 2903.27   4
   7   7  -3 108523. 2894.38   2
  14  -7  -3 113536. 3205.08   2
   7   7  -3 106474. 2413.62   4
   7   7  -3 107456. 2383.54   3
  14  -7  -3 110516. 3067.09   4
  -7  14  -3 97032.4 1408.34   2
 -14   7  -3 104277. 1968.76   1
   7 -14  -3 104935. 2734.81   2
  14  -7   0 280.157 524.158   3
   7   7   0 29.9894 230.943   1
  -7  14   0-29.4936 321.857   1
   7 -14   0 255.384 225.591   4
   7   7   0 157.802 477.419   3
  -7  14   0 29.0769 114.342   2
  14  -7   0-71.3278 243.336   1
   7 -14   0-72.7990 288.204   1
 -14   7   0 74.0547 282.310   1
 -14   7   0 449.334 493.557   3
  14  -7   3 114974. 2751.49   2
  -7  14   3 108143. 2948.13   2
  14  -7   3 114885. 2472.10   1
   7   7   3 109398. 3008.42   4
   7 -14   3 110129. 2294.81   4
 -14   7   3 111412. 3235.19   1
  14  -7   3 113925. 3555.83   3
 -14   7   3 113990. 2391.05   3
   7 -14   3 109111. 1371.61   2
  -7  14   3 112976. 2649.51   4
  -7  14   3 114347. 2767.62   1
  14  -7   6 1275.32 927.819   3
  -7  14   6 1443.81 612.194   1
  -7  14   6 1221.28 626.847   3
   7 -14   6 117.614 515.238   2
   7   7   6 584.449 828.433   3
  -7  14   9 18962.7 1732.56   3
   7   7   9 17581.3 2008.84   3
  14  -7  12 914.040 1305.33   3
   7   7  12 812.313 1225.61   3
 -14   8 -10 2053.23 791.086   1
  14  -6 -10 200.275 1179.72   2
  -6  -8 -10 2425.35 959.169   2
   6 -14 -10 1641.47 1052.17   4
  14  -6 -10 1632.42 1159.42   4
 -14   8 -10 1352.47 774.686   2
  -8  14 -10 920.957 808.482   1
   8   6 -10 944.199 1031.62   2
  -6  -8 -10 1456.08 1026.25   4
  -8  14 -10 2711.66 907.097   4
   8   6 -10 3293.67 1131.02   4
   6 -14 -10 829.097 988.042   2
  -8  14 -10 2675.33 974.351   2
   6 -14  -7 24696.5 2086.88   4
  -8  14  -7 24167.4 1477.27   4
  14  -6  -7 21205.3 2022.61   4
  -8  14  -7 22995.2 1527.53   2
  -8  14  -7 20656.5 1656.87   1
  -6  -8  -7 22296.6 1079.16   1
  -6  -8  -7 26347.2 1906.16   2
 -14   8  -7 24168.8 1576.39   2
 -14   8  -7 23979.1 1412.24   1
   8   6  -7 24188.6 1856.16   4
  -6  -8  -7 20318.8 1694.38   4
   6 -14  -7 25484.3 2019.41   2
   8   6  -7 25745.3 2139.63   2
  14  -6  -7 24056.5 2159.33   2
  14  -6  -4 36863.5 2041.50   4
  -8  14  -4 34071.0 1697.00   1
   8   6  -4 35786.1 1273.34   3
   6 -14  -4 34499.3 1876.02   4
  14  -6  -4 36355.3 2082.60   2
  -6  -8  -4 38318.0 1700.53   4
   8   6  -4 33184.1 1588.14   4
 -14   8  -4 35256.7 1300.21   1
  -6  -8  -4 35839.8 767.377   1
   6 -14  -4 36214.8 1810.70   2
  -8  14  -4 36155.1 1150.42   2
   8   6  -4 36144.6 1915.14   2
  -8  14  -1 184006. 4084.75   3
  -6  -8  -1 189270. 3879.93   3
  14  -6  -1 188320. 3376.48   4
   6 -14  -1 188294. 2302.87   2
  14  -6  -1 183201. 2944.50   1
 -14   8  -1 181324. 4018.31   3
  14  -6  -1 189218. 3348.90   2
 -14   8  -1 169401. 2679.22   1
   6 -14  -1 182208. 3007.67   1
   8   6  -1 175513. 2516.44   4
  -8  14  -1 178000. 3124.46   1
   8   6  -1 183476. 3470.32   3
   6 -14  -1 180838. 2854.77   4
  14  -6  -1 179645. 3462.71   3
  14  -6   2 3509.07 448.540   1
   8   6   2 3536.36 609.247   2
  -8  14   2 4203.16 591.347   2
 -14   8   2 5565.60 768.900   1
   6 -14   2 4856.46 409.474   4
   8   6   2 4797.51 618.802   4
  -8  14   2 4232.77 571.602   1
   8   6   2 4261.97 869.890   3
  -8  14   2 3820.40 484.570   4
 -14   8   2 4537.76 675.212   3
  14  -6   2 4616.88 911.956   3
   6 -14   5 60126.3 2236.95   4
   6 -14   5 62937.8 1902.34   2
  -6  -8   5 57009.7 1808.59   4
  -8  14   5 60353.4 2254.09   3
   8   6   5 62156.4 2888.54   3
  -8  14   5 61079.9 2515.87   1
 -14   8   5 60565.9 1490.62   3
  14  -6   5 63056.7 2969.20   3
 -14   8   5 63832.6 2850.16   1
  -8  14   8 12359.2 1319.68   3
   8   6   8 16235.6 1813.23   3
  14  -6   8 11547.0 1664.11   3
   8   6  11 26796.1 2628.75   3
  14  -6  11 16419.5 2163.71   3
   5 -14 -11 29221.0 2843.12   4
 -14   9 -11 28873.9 2325.55   2
 -14   9 -11 33028.7 2220.55   1
  14  -5 -11 32325.5 3094.57   4
   9   5 -11 31933.2 2820.97   4
  -5  -9 -11 33079.1 2721.67   4
  -9  14 -11 34793.7 2364.34   4
  14  -5 -11 33940.8 3288.04   2
  -5  -9 -11 32464.7 2635.76   2
   9   5 -11 39588.8 3432.33   2
   5 -14 -11 29618.6 2760.64   2
  -9  14 -11 33489.5 2402.04   2
  -9  14 -11 32568.4 2560.02   1
  -5  -9  -8 34810.2 2288.00   2
 -14   9  -8 37346.1 2089.23   2
   9   5  -8 38958.6 2832.17   2
  14  -5  -8 35183.8 2671.52   4
  -5  -9  -8 36468.6 2373.12   4
 -14   9  -8 36091.5 1881.82   1
   5 -14  -8 38222.8 2648.39   4
  -9  14  -8 35462.1 1975.55   4
   9   5  -8 34999.3 2407.96   4
  14  -5  -8 30970.7 2581.12   2
  -9  14  -8 34573.4 2007.97   2
  -9  14  -8 37431.2 2289.08   1
   5 -14  -8 33287.8 2404.23   2
   9   5  -5 68174.0 1550.30   3
  -5  -9  -5 73964.0 1438.58   1
  -5  -9  -5 72842.2 2576.85   2
  -9  14  -5 70400.0 2567.69   1
   9   5  -5 67759.5 2548.22   4
  -9  14  -5 72368.5 1910.93   2
   9   5  -5 68112.4 2859.34   2
  -5  -9  -5 70192.7 2561.23   4
   5 -14  -5 74633.1 2931.84   4
  14  -5  -5 68596.7 3027.94   2
   9   5  -5 70211.3 1584.23   3
 -14   9  -5 70455.0 2080.30   1
   5 -14  -5 72584.8 2753.11   2
  14  -5  -5 72424.5 3052.11   4
   9   5  -2 101807. 2162.77   4
 -14   9  -2 100670. 2074.86   1
   5 -14  -2 100627. 2461.68   4
   9   5  -2 99553.0 2609.46   2
  -5  -9  -2 105300. 1621.07   1
  14  -5  -2 108329. 2853.38   4
  -9  14  -2 100399. 2471.15   1
   9   5  -2 103364. 2473.75   3
  14  -5  -2 99495.4 2803.88   2
   5 -14  -2 105264. 2241.05   1
  14  -5  -2 103250. 2510.08   1
   5 -14  -2 101879. 2195.22   2
  14  -5  -2 103454. 2430.72   3
  -9  14   1 152922. 2280.56   2
  -9  14   1 155210. 2935.17   1
   5 -14   1 154105. 1557.35   4
   5 -14   1 152966. 3179.53   1
   9   5   1 149552. 1528.66   1
   9   5   1 148744. 1668.91   1
   9   5   1 142350. 3518.72   3
 -14   9   1 145600. 3281.11   3
  14  -5   1 146889. 3591.17   3
  14  -5   1 154195. 2287.38   1
 -14   9   1 148970. 3021.34   1
  -9  14   4 10565.0 1043.15   1
  -5  -9   4 11926.9 720.245   4
 -14   9   4 11754.5 1220.63   1
   5 -14   4 13162.0 715.085   2
  -9  14   4 12304.5 1215.88   2
   5 -14   4 12546.0 911.417   4
   9   5   4 13196.8 1378.76   3
  14  -5   4 11234.7 1358.22   3
 -14   9   4 12130.7 838.384   3
 -14   9   7 39988.2 940.500   3
  -9  14   7 49106.0 2222.21   3
  -9  14   7 47181.9 2623.53   1
   9   5   7 51637.4 2937.90   3
  14  -5   7 42903.7 2745.12   3
  14  -5  10 12036.7 1806.34   3
   9   5  10 12197.0 1924.95   3
  -9  14  10 12766.4 1461.25   3
   4 -14 -12 3148.54 1416.18   2
 -10  14 -12 479.203 909.355   2
  -4 -10 -12-254.865 1119.10   2
 -14  10 -12 647.170 904.192   2
  10   4 -12 522.716 1245.41   4
 -10  14 -12 1260.77 1115.47   1
 -14  10 -12 1202.24 887.885   1
   4 -14 -12 368.876 1123.30   4
  14  -4 -12 522.072 1300.72   4
  -4 -10 -12 1316.50 1174.22   4
  14  -4 -12-725.273 1530.44   2
  10   4 -12 2461.64 1632.97   2
  -4 -10  -9 27748.3 2194.10   2
  14  -4  -9 26224.6 2469.01   4
 -14  10  -9 27114.9 1877.22   2
  -4 -10  -9 27757.1 2314.88   4
   4 -14  -9 25783.4 2362.35   4
 -10  14  -9 24260.4 1935.25   1
  10   4  -9 24069.4 2216.83   4
 -14  10  -9 28080.2 1835.57   1
  10   4  -9 23826.6 2451.15   2
   4 -14  -9 24348.7 2153.44   2
  14  -4  -9 25958.6 2739.96   2
 -10  14  -9 25247.6 1859.16   2
 -10  14  -6 651.542 429.936   2
  14  -4  -6 1518.14 783.621   4
  14  -4  -6 725.442 814.407   2
  10   4  -6 346.309 605.921   4
  -4 -10  -6 1721.18 686.562   4
 -10  14  -6 642.301 477.578   1
   4 -14  -6 1881.30 784.615   4
  10   4  -6 339.741 751.228   2
  -4 -10  -6 2409.14 765.519   2
  -4 -10  -6 1432.29 364.451   1
 -14  10  -6 1617.06 494.646   1
   4 -14  -6-9.66512 715.504   2
  14  -4  -3 31074.6 1216.24   3
  -4 -10  -3 30096.6 868.818   1
  14  -4  -3 28542.3 1699.10   2
  14  -4  -3 26933.7 1540.55   4
   4 -14  -3 30745.4 1545.51   4
 -10  14  -3 28236.4 1440.48   1
  -4 -10  -3 29832.4 1338.75   4
  10   4  -3 29159.9 1246.34   3
  10   4  -3 30584.0 1441.09   4
 -14  10  -3 27783.8 1187.40   1
   4 -14  -3 30743.3 1425.75   2
   4 -14  -3 29592.2 1209.14   1
  10   4  -3 32535.4 1721.64   2
 -10  14   0 6264.26 853.373   3
 -14  10   0 6712.79 930.021   3
 -14  10   0 5694.92 621.610   1
   4 -14   0 6880.49 695.657   1
   4 -14   0 5554.43 388.620   4
  14  -4   0 5577.29 512.048   1
  10   4   0 6415.92 527.894   1
 -10  14   0 5940.11 627.841   1
  10   4   0 7027.11 843.234   3
  14  -4   0 5477.85 822.391   3
  -4 -10   3 59621.9 1170.81   4
  10   4   3 56782.5 2187.34   4
 -10  14   3 51540.4 1836.46   4
 -10  14   3 56352.6 2057.78   2
 -14  10   3 56263.4 2267.79   1
  14  -4   3 57385.6 1513.48   1
  10   4   3 55410.5 2514.71   3
 -14  10   3 55048.9 1941.05   2
   4 -14   3 58263.5 1445.51   4
  14  -4   3 60146.1 2623.73   3
 -14  10   3 55909.3 1841.58   3
 -10  14   3 54816.7 2070.19   1
  -4 -10   6 2604.70 593.758   4
 -14  10   6 3721.79 909.037   1
 -10  14   6 3783.04 895.253   1
 -14  10   6 4396.42 520.068   3
   4 -14   6 3466.36 671.386   2
 -10  14   6 3454.33 708.688   3
  10   4   6 5309.61 1128.32   3
  14  -4   6 3766.24 1098.16   3
   4 -14   6 2191.30 630.201   4
 -14  10   6 3848.68 525.460   3
 -10  14   9 14236.3 1401.40   3
  10   4   9 17610.5 2011.78   3
  14  -4   9 17402.4 2034.13   3
  14  -4  12 467.123 1405.31   3
  10   4  12 856.561 1380.88   3
 -14  11 -10 16257.6 1561.07   1
 -14  11 -10 16168.3 1616.93   2
  11   3 -10 15095.2 2202.45   2
 -11  14 -10 14302.7 1595.27   1
  -3 -11 -10 12980.0 1765.63   4
  14  -3 -10 17008.9 2232.29   4
  11   3 -10 17060.8 2086.21   4
   3 -14 -10 14476.3 2030.42   4
  14  -3 -10 19184.0 2397.43   2
   3 -14 -10 16541.3 2041.94   2
  -3 -11 -10 16920.9 1913.76   2
 -11  14 -10 15901.1 1568.20   2
  -3 -11  -7 17543.6 1585.70   2
  -3 -11  -7 19483.7 1750.34   4
 -14  11  -7 15597.3 1229.82   2
  11   3  -7 15973.3 1601.97   4
 -11  14  -7 16393.1 1437.00   1
   3 -14  -7 18348.4 1786.72   4
  11   3  -7 19642.3 2017.98   2
  14  -3  -7 15965.2 1833.90   2
  -3 -11  -7 14711.2 976.461   1
 -14  11  -7 19124.7 1403.42   1
   3 -14  -7 20218.4 1762.38   2
  14  -3  -7 13900.1 1665.50   4
 -11  14  -7 17375.5 1245.02   2
  14  -3  -4 12103.9 592.905   3
  -3 -11  -4 15567.8 1140.57   2
  11   3  -4 14728.0 1379.80   2
   3 -14  -4 13376.6 1173.80   4
  14  -3  -4 14078.6 1261.29   4
  11   3  -4 11239.6 1074.51   4
  14  -3  -4 12772.0 1329.31   2
  -3 -11  -4 14399.9 668.543   1
 -14  11  -4 13509.9 923.757   1
  11   3  -4 15527.1 824.313   3
   3 -14  -4 13195.7 845.257   1
 -11  14  -4 11607.6 992.494   1
   3 -14  -4 15764.0 1170.34   2
  -3 -11  -4 13735.9 1084.07   4
 -14  11  -1 8529.73 697.689   1
  11   3  -1 8723.06 698.629   4
  14  -3  -1 11137.4 881.369   4
  14  -3  -1 10812.0 910.022   2
   3 -14  -1 10541.3 649.657   4
   3 -14  -1 9406.12 723.468   1
  -3 -11  -1 9767.92 701.389   1
  11   3  -1 10048.4 783.678   1
 -11  14  -1 9525.79 811.940   1
  11   3  -1 10184.9 926.221   3
  14  -3  -1 9455.88 732.393   1
  14  -3  -1 9938.39 934.552   3
 -14  11  -1 10688.1 1119.04   3
 -14  11   2 32922.2 1603.40   1
 -11  14   2 34697.3 1723.08   3
 -14  11   2 30795.9 1314.17   2
 -11  14   2 32793.1 1289.52   4
  14  -3   2 33568.0 1003.73   1
  11   3   2 33891.0 1522.94   4
 -11  14   2 36835.2 1604.41   1
  11   3   2 32001.7 1893.64   3
  14  -3   2 32741.2 1872.81   3
 -11  14   2 33457.4 1372.17   2
 -14  11   2 33297.5 1582.21   3
 -14  11   5 17617.4 1070.07   3
   3 -14   5 17466.5 986.049   2
 -14  11   5 14261.3 1415.71   1
   3 -14   5 16193.6 1108.54   4
  -3 -11   5 15368.3 950.219   4
  14  -3   5 14088.6 1522.43   3
 -11  14   5 14950.2 1414.03   1
  11   3   5 18527.5 1732.87   3
 -11  14   8 8361.00 1089.96   3
 -14  11   8 6627.97 604.492   3
  11   3   8 7252.08 1390.76   3
  14  -3  11 4768.55 1558.25   3
  11   3  11 3042.74 1388.17   3
 -12  14 -11 31410.3 2281.85   2
 -14  12 -11 37686.2 2470.75   2
  14  -2 -11 35960.1 3251.74   4
  12   2 -11 37574.5 3085.94   4
 -12  14 -11 39764.2 2671.87   1
  -2 -12 -11 39677.8 3017.12   4
   2 -14 -11 33728.8 2976.67   4
  12   2 -11 34990.3 3406.34   2
  14  -2 -11 35467.1 3358.14   2
 -14  12 -11 36373.4 2439.62   1
   2 -14 -11 36627.3 3010.61   2
  -2 -12 -11 34800.5 2721.08   2
 -12  14  -8 50448.7 2256.70   2
 -14  12  -8 51476.7 2315.47   2
 -12  14  -8 50164.9 2529.45   1
 -14  12  -8 47814.2 2345.71   1
  14  -2  -8 49626.8 3084.42   4
  14  -2  -8 50602.2 3318.39   2
  -2 -12  -8 54062.8 2954.37   4
  12   2  -8 50951.4 3299.87   2
  12   2  -8 47523.6 2956.93   4
   2 -14  -8 48657.0 2812.08   2
   2 -14  -8 49349.2 2904.59   4
  -2 -12  -8 55131.5 2829.13   2
  -2 -12  -5 112473. 3218.78   2
  -2 -12  -5 113123. 2120.95   1
  12   2  -5 103432. 3696.17   2
 -14  12  -5 114700. 2877.11   1
 -12  14  -5 116233. 2322.70   2
   2 -14  -5 103206. 2366.05   1
  -2 -12  -5 111993. 3348.07   4
  14  -2  -5 113332. 3928.80   2
 -12  14  -5 108724. 3025.79   1
   2 -14  -5 112273. 3471.94   4
  14  -2  -5 115266. 3714.28   4
   2 -14  -5 110391. 3247.46   2
  12   2  -5 110995. 3482.49   4
  12   2  -2 65977.3 2137.56   1
   2 -14  -2 72493.5 1844.83   2
  14  -2  -2 73867.8 2272.65   4
  12   2  -2 71297.1 2117.63   4
  14  -2  -2 75416.3 2512.89   2
  -2 -12  -2 75832.9 1673.08   1
  12   2  -2 74882.8 2401.88   2
  14  -2  -2 68378.3 2121.74   1
  -2 -12  -2 70450.9 1758.62   4
   2 -14  -2 71436.4 1953.64   4
   2 -14  -2 72947.9 1824.28   1
  12   2  -2 72522.9 2142.23   3
 -12  14  -2 67404.1 2004.87   1
  14  -2  -2 72144.1 2108.94   3
 -14  12  -2 67670.4 1916.31   1
  14  -2   1 103130. 1643.49   1
 -12  14   1 104409. 3029.19   3
  12   2   1 99651.2 1257.41   1
   2 -14   1 104786. 2735.94   1
 -12  14   1 98845.3 2471.15   1
 -14  12   1 107231. 2603.80   1
  12   2   1 110101. 3182.25   3
  14  -2   1 106873. 3161.55   3
 -12  14   1 109971. 1871.67   2
 -14  12   1 102840. 2945.04   3
 -14  12   4 34206.0 1551.59   3
  -2 -12   4 35229.3 1094.55   4
 -12  14   4 33047.4 1878.28   1
   2 -14   4 35633.1 1245.29   4
 -14  12   4 32616.8 1919.37   1
  12   2   4 33048.0 2128.25   3
  14  -2   4 32610.0 2113.60   3
 -12  14   7 51015.4 2105.45   3
 -14  12   7 52493.5 1759.32   3
 -12  14   7 54752.8 2965.14   1
 -14  12   7 51631.4 1745.29   3
  12   2   7 46504.5 2856.73   3
  14  -2   7 47050.2 2872.08   3
  12   2  10 17444.5 2188.25   3
  14  -2  10 14514.2 1960.42   3
 -13  14  -9 7805.19 1114.67   2
 -14  13  -9 8538.86 1159.71   2
   1 -14  -9 9647.04 1572.68   4
 -13  14  -9 10869.2 1357.69   1
  13   1  -9 8835.79 1565.51   4
  14  -1  -9 10721.2 1770.49   4
 -14  13  -9 9329.85 1244.23   1
  14  -1  -9 9094.13 1929.29   2
  13   1  -9 8286.35 1676.91   2
  -1 -13  -9 9436.40 1501.78   4
   1 -14  -9 7407.41 1409.48   2
  -1 -13  -9 7733.71 1443.15   2
  14  -1  -6 1181.86 754.067   4
   1 -14  -6 913.000 659.111   2
  -1 -13  -6 1735.50 724.687   2
 -13  14  -6 1218.33 459.798   2
  13   1  -6 1031.04 706.440   4
  -1 -13  -6 2180.95 834.346   4
  -1 -13  -6 1959.20 450.151   1
  13   1  -6 924.341 828.242   2
  14  -1  -6 1466.33 882.740   2
   1 -14  -6 2386.22 847.791   4
 -13  14  -6 2071.87 647.872   1
 -14  13  -6 2286.37 580.446   1
   1 -14  -3 10288.9 864.356   2
  13   1  -3 11655.7 1136.96   2
  13   1  -3 11738.4 1040.13   4
  14  -1  -3 9317.47 1015.53   4
   1 -14  -3 11396.9 949.215   4
  -1 -13  -3 10747.1 888.097   4
  -1 -13  -3 11287.1 680.359   1
 -13  14  -3 10052.5 881.935   1
   1 -14  -3 10700.7 703.513   1
 -14  13  -3 10986.0 891.880   1
  13   1  -3 12370.7 853.716   3
  14  -1  -3 11149.9 854.922   3
  14  -1  -3 8702.85 1074.27   2
 -13  14   0 6972.19 711.848   1
  -1 -13   0 5812.40 660.724   1
  14  -1   0 6337.64 515.237   1
 -14  13   0 6573.98 680.110   1
  13   1   0 8098.71 972.493   3
  14  -1   0 7729.46 894.391   3
   1 -14   0 6158.57 693.545   1
  13   1   0 6307.69 506.826   1
 -14  13   0 6156.89 879.538   3
 -14  13   3 28602.6 1531.14   3
 -13  14   3 29107.1 1576.61   3
 -13  14   3 30173.8 1664.00   1
  -1 -13   3 29471.2 636.818   4
   1 -14   3 30965.4 677.972   4
 -14  13   3 27937.1 1432.50   2
 -13  14   3 27459.2 1425.46   2
  13   1   3 32984.3 2002.49   3
  14  -1   3 27465.7 1862.98   3
 -14  13   6 4718.06 711.244   3
 -14  13   6 4537.37 661.886   3
   1 -14   6 4563.01 724.167   4
  -1 -13   6 3216.81 630.301   4
 -13  14   6 3946.03 934.296   1
 -13  14   6 3920.84 650.677   3
  13   1   6 3196.14 1036.27   3
 -14  13   6 5098.62 1092.93   1
  14  -1   6 4582.28 1125.15   3
 -14  13   9 18166.1 1144.42   3
  13   1   9 16246.6 2100.58   3
  14  -1   9 20705.0 2292.39   3
 -13  14   9 16492.8 1285.07   3
 -14  14 -10 9379.95 1288.35   2
  14   0 -10 11702.9 1932.21   4
  14   0 -10 8199.65 1776.18   2
 -14  14 -10 10024.3 1324.45   1
   0 -14 -10 8363.92 1513.79   4
   0 -14 -10 9068.35 1524.34   2
   0 -14  -7 541.365 641.179   2
 -14  14  -7-315.272 511.791   2
 -14  14  -7 47.3142 480.725   1
  14   0  -7 695.630 723.716   4
   0 -14  -7-180.871 764.019   4
  14   0  -7 1459.64 944.708   2
   0 -14  -4 5436.93 757.848   2
  14   0  -4 5650.60 971.840   2
   0 -14  -4 4984.51 736.601   4
 -14  14  -4 4892.31 684.126   1
   0 -14  -4 5869.12 566.599   1
  14   0  -4 5884.20 558.424   3
  14   0  -4 4988.95 820.423   4
 -14  14  -1 33.6963 326.531   1
   0 -14  -1-182.360 276.935   1
   0 -14  -1 146.915 200.606   4
  14   0  -1-203.766 280.244   1
  14   0  -1 258.472 478.055   3
  14   0  -1-318.932 350.000   4
 -14  14   2 10647.2 1061.73   3
  14   0   2 10245.1 421.710   1
 -14  14   2 11761.9 821.439   2
 -14  14   2 8435.72 899.455   1
  14   0   2 10413.4 1188.76   3
 -14  14   5-250.724 499.508   3
   0 -14   5 253.953 342.279   2
 -14  14   5 141.492 586.740   1
  14   0   5 1454.14 841.685   3
   0 -14   5 507.769 370.102   4
 -14  14   8-380.088 521.363   3
  14   0   8 2473.53 1228.43   3
  14   0  11-169.558 1272.00   3
   0  15  -9 453.246 988.567   2
   0  15  -9 123.630 903.640   1
  15 -15  -9 574.772 1116.45   4
   0  15  -9-123.623 688.160   4
  15 -15  -9 1677.94 1290.45   2
 -15   0  -9-0.90873 358.235   1
  15 -15  -6 14971.9 1662.59   4
   0  15  -6 17773.2 1490.77   2
   0  15  -6 16344.0 1096.89   4
   0  15  -6 17159.0 1603.25   1
 -15   0  -6 16411.1 786.469   1
 -15   0  -6 15234.7 574.724   1
  15 -15  -6 17587.9 1892.54   2
  15 -15  -3 555.096 581.131   4
   0  15  -3 189.941 382.917   2
   0  15  -3-802.953 498.153   1
  15 -15  -3 795.330 520.115   2
   0  15   0 54367.4 1597.90   2
  15 -15   0 53277.1 1594.45   2
 -15   0   0 47902.3 2137.24   3
   0  15   0 49234.4 1575.58   1
  15 -15   0 49454.4 1731.54   4
   0  15   3-169.264 309.569   1
 -15   0   3-3.91931 336.704   3
  15 -15   3-147.805 721.920   3
   0  15   3-233.689 580.252   3
   0  15   3 619.394 489.416   4
  15 -15   3 14.6685 316.424   2
  15 -15   6 15693.7 1732.43   3
   0  15   6 15218.4 1249.56   1
   0  15   6 18576.4 1764.94   3
  15 -15   9 2255.88 1178.33   3
   0  15   9-780.699 887.961   3
  14 -15 -10 18373.7 2433.03   4
   1  14 -10 14096.2 2016.14   1
  -1  15 -10 18917.6 2159.23   1
  -1  15 -10 19002.6 1765.34   4
   1  14 -10 19366.8 1820.87   4
   1  14 -10 17113.8 1999.30   2
  15 -14 -10 15115.2 2230.79   2
  14 -15 -10 17259.3 2291.78   2
  -1  15 -10 16824.5 2004.62   2
  15 -14 -10 16051.7 2294.94   4
  15 -14  -7 64523.1 3510.16   2
  -1  15  -7 61995.5 3068.46   1
  15 -14  -7 61024.9 3417.52   4
  14 -15  -7 59273.7 3330.18   4
   1  14  -7 60233.6 2382.10   4
 -15   1  -7 62389.6 1540.59   1
 -14  -1  -7 61820.6 1392.85   1
  14 -15  -7 62426.8 3369.22   2
   1  14  -7 64610.5 2981.71   2
  -1  15  -7 62293.2 2293.80   4
 -14  -1  -7 59758.5 1662.00   1
   1  14  -7 59133.7 3051.91   1
  -1  15  -7 61419.5 2777.98   2
   1  14  -4 82501.8 2891.56   1
  -1  15  -4 83635.1 2894.83   1
   1  14  -4 82736.5 2566.92   2
  15 -14  -4 88026.6 3238.45   2
  -1  15  -4 85161.2 2464.76   2
  14 -15  -4 84607.2 3175.19   2
   1  14  -4 87513.0 1758.72   4
  -1  15  -4 79701.4 1474.54   4
 -15   1  -4 81933.8 1183.06   1
  15 -14  -4 77872.3 3077.03   4
  14 -15  -4 78854.1 3099.25   4
  14 -15  -1 105720. 2639.35   4
  14 -15  -1 105747. 2496.83   2
 -15   1  -1 112526. 2084.80   1
  15 -14  -1 112564. 2666.79   2
   1  14  -1 113592. 2562.57   1
  -1  15  -1 113276. 2630.47   1
  15 -14  -1 105815. 2650.62   4
  15 -14   2 54250.3 1438.66   2
  15 -14   2 59219.6 2636.70   3
  14 -15   2 52283.6 2488.78   3
   1  14   2 50634.0 2034.30   2
  -1  15   2 53488.6 1661.58   1
  -1  15   2 56915.9 1748.43   4
  -1  15   2 49797.4 2239.05   3
   1  14   2 59058.6 1855.70   4
   1  14   2 45468.9 2217.79   3
 -14  -1   2 51859.9 1811.34   3
 -15   1   2 52314.8 1839.26   3
  -1  15   2 57255.8 2115.00   2
   1  14   2 48971.8 1508.28   1
  14 -15   2 54258.2 1300.77   2
  15 -14   5 137965. 4538.85   3
  14 -15   5 140890. 4503.23   3
   1  14   5 136682. 3075.50   1
   1  14   5 149596. 4442.97   3
  -1  15   5 139978. 4134.93   3
  15 -14   5 138519. 3587.89   2
  -1  15   5 136848. 3236.40   1
  14 -15   5 144272. 3478.95   2
  15 -14   8 10370.8 1603.69   3
  14 -15   8 10451.3 1603.05   3
  -1  15   8 12116.2 1602.70   3
   1  14   8 9518.10 1446.29   3
  15 -14  11 24617.1 2599.83   3
  14 -15  11 25814.2 2611.83   3
   1  14  11 35362.7 2957.90   3
  -1  15  11 38225.6 2981.38   3
 -13  -2 -11 4173.45 1171.95   2
   2  13 -11 6848.21 1690.94   1
  15 -13 -11 4351.75 1657.55   2
   2  13 -11 5793.33 1308.14   4
  -2  15 -11 5240.93 1160.13   4
  15 -13 -11 3151.61 1589.95   4
  -2  15 -11 3136.50 1170.85   1
   2  13 -11 4534.54 1425.85   2
  13 -15 -11 4440.98 1567.33   2
  -2  15 -11 5581.23 1393.39   2
  13 -15 -11 6641.87 1764.32   4
  -2  15  -8 4355.96 841.823   4
 -13  -2  -8 3015.39 481.702   1
   2  13  -8 2616.47 1048.10   1
  15 -13  -8 4956.62 1327.94   4
   2  13  -8 4760.71 956.032   4
 -15   2  -8 2679.45 505.386   1
  -2  15  -8 3109.98 906.287   1
  13 -15  -8 2261.65 1037.56   4
  15 -13  -8 4007.22 1346.40   2
  -2  15  -8 4918.89 1097.29   2
   2  13  -8 6057.85 1277.12   2
  13 -15  -8 3578.04 1310.06   2
   2  13  -5 5208.41 854.874   3
   2  13  -5 7819.35 1135.45   1
  -2  15  -5 5147.20 878.565   1
  15 -13  -5 5222.10 963.862   4
  15 -13  -5 4514.44 1073.98   2
   2  13  -5 6192.11 698.336   4
   2  13  -5 6897.23 963.800   2
  -2  15  -5 5334.64 571.999   4
 -15   2  -5 5411.12 402.135   1
  -2  15  -5 5896.41 852.120   2
  13 -15  -5 7062.28 1126.82   4
  13 -15  -5 4556.26 1070.72   2
  15 -13  -2 22692.1 1390.73   4
   2  13  -2 26053.7 1167.63   2
   2  13  -2 23818.7 1356.26   1
  13 -15  -2 24973.4 1388.07   2
  -2  15  -2 26344.5 988.180   2
  15 -13  -2 25071.0 1480.87   2
 -15   2  -2 25481.4 887.878   1
  13 -15  -2 24388.9 1428.04   4
  -2  15  -2 21301.0 1274.26   1
   2  13   1 25416.6 1238.30   2
  -2  15   1 25720.7 1144.07   1
  15 -13   1 26631.4 1025.60   2
  15 -13   1 25528.8 1704.91   3
   2  13   1 24810.0 1019.78   4
  -2  15   1 24586.2 819.062   4
 -13  -2   1 25742.7 1388.68   3
  13 -15   1 24942.5 812.669   2
 -15   2   1 26076.1 1408.81   3
  -2  15   1 25060.9 1179.15   2
   2  13   1 26187.9 1006.67   1
   2  13   1 26141.8 1614.45   3
  15 -13   4 2374.86 867.859   3
  13 -15   4 3528.79 924.389   3
  -2  15   4 3744.40 758.266   4
   2  13   4 3182.76 733.114   4
   2  13   4 3941.55 521.743   1
 -15   2   4 2816.51 381.387   3
  -2  15   4 3203.14 563.107   1
  13 -15   4 3864.76 609.194   2
   2  13   4 3565.46 821.824   3
  -2  15   4 4094.82 912.737   3
  15 -13   4 3343.42 636.711   2
  15 -13   7 28853.0 2328.93   3
  13 -15   7 24192.3 2111.61   3
  -2  15   7 25764.0 2045.14   3
   2  13   7 24907.6 2063.99   3
  15 -13  10 2486.00 1298.04   3
  13 -15  10 3498.50 1315.06   3
  -2  15  10 3550.15 1261.86   3
   2  13  10 838.865 1020.68   3
   3  12  -9 3192.11 1036.33   1
 -12  -3  -9 3526.64 999.673   2
 -12  -3  -9 3282.71 927.672   4
  -3  15  -9 868.915 901.185   1
  15 -12  -9 1262.45 1256.31   4
 -12  -3  -9 2536.41 562.645   1
   3  12  -9 2259.93 846.364   4
 -15   3  -9 2564.03 609.978   1
  -3  15  -9 2867.71 843.289   4
  12 -15  -9 3890.49 1251.51   4
   3  12  -9 2534.27 1098.72   2
  15 -12  -9 3733.51 1372.61   2
  12 -15  -9 2604.41 1269.82   2
  -3  15  -9 1259.14 876.311   2
  -3  15  -6 10842.9 1092.90   2
  15 -12  -6 10783.0 1463.70   2
   3  12  -6 9107.63 1272.88   1
 -15   3  -6 10886.1 688.207   1
  -3  15  -6 8684.50 1192.35   1
   3  12  -6 8827.13 1001.85   3
   3  12  -6 11757.9 1333.42   2
 -12  -3  -6 9793.16 493.797   1
   3  12  -6 8703.11 954.813   4
 -12  -3  -6 9344.63 433.894   1
  -3  15  -6 10904.0 888.455   4
  15 -12  -6 7778.16 1263.18   4
  12 -15  -6 11282.1 1440.02   2
  12 -15  -6 12799.7 1604.33   4
   3  12  -3 14665.5 1189.77   1
  15 -12  -3 14952.1 1357.40   2
  12 -15  -3 15494.2 1290.27   4
   3  12  -3 14615.2 728.537   4
  -3  15  -3 14580.8 843.134   2
 -15   3  -3 15553.8 649.391   1
  15 -12  -3 15090.8 1292.81   4
   3  12  -3 13658.5 1031.63   2
  12 -15  -3 14520.6 1169.73   2
  -3  15  -3 13885.6 1116.20   1
 -15   3   0 18315.7 1041.52   1
 -12  -3   0 19429.7 1313.49   3
  15 -12   0 19574.5 1448.34   3
   3  12   0 20950.9 1404.44   3
   3  12   0 17717.8 677.292   4
 -15   3   0 20844.3 1397.18   3
  12 -15   0 17621.8 788.656   2
  15 -12   0 18964.8 983.311   2
   3  12   0 17522.8 911.993   1
  12 -15   0 18374.3 954.938   4
  -3  15   0 17622.8 984.799   1
  -3  15   0 19181.9 846.575   2
  15 -12   0 15658.0 996.617   1
  15 -12   0 16691.4 1112.05   4
  15 -12   3 18406.5 1591.23   3
  12 -15   3 17757.4 1513.47   3
  -3  15   3 19937.5 1252.11   4
   3  12   3 21104.6 1374.46   4
  12 -15   3 20282.4 890.376   2
   3  12   3 22971.7 1663.90   3
  -3  15   3 20357.3 1440.82   2
  12 -15   3 19316.3 1149.65   4
  -3  15   3 17707.3 1053.08   1
 -15   3   3 19043.4 1001.37   3
  -3  15   3 17604.3 1353.95   3
   3  12   3 20805.0 902.366   1
  15 -12   3 18839.3 1061.57   2
  15 -12   6 17754.0 1843.17   3
  12 -15   6 17133.7 1755.62   3
  -3  15   6 19305.9 1630.13   3
  12 -15   6 16775.0 1346.10   2
   3  12   6 18947.1 1823.24   3
  -3  15   6 15540.8 1333.50   1
  12 -15   9 836.045 894.274   3
  -3  15   9 686.373 970.597   3
   3  12   9-96.2059 942.023   3
  15 -12   9 3437.54 1317.98   3
   4  11 -10 24789.1 2210.33   4
 -11  -4 -10 25152.0 2113.85   2
 -15   4 -10 21577.3 1961.76   2
  -4  15 -10 26314.1 2391.87   1
   4  11 -10 18303.4 2222.40   2
  11 -15 -10 23745.0 2488.69   2
  15 -11 -10 25397.6 2768.09   4
  11 -15 -10 25000.3 2675.65   4
 -15   4 -10 19261.2 1414.06   1
  -4  15 -10 25312.6 1929.96   4
 -11  -4 -10 28190.7 2311.32   4
  15 -11 -10 24237.0 2707.16   2
  -4  15 -10 24226.0 2115.31   2
 -11  -4  -7 57064.9 1511.62   1
   4  11  -7 59989.0 2604.12   4
   4  11  -7 54790.6 2949.42   2
  -4  15  -7 59021.5 2215.60   4
 -15   4  -7 53558.6 1732.84   1
  15 -11  -7 57417.1 3354.60   2
 -11  -4  -7 57057.1 2590.47   4
  11 -15  -7 55354.3 3129.65   2
  -4  15  -7 56597.3 2795.94   1
  11 -15  -7 62186.3 3338.89   4
 -11  -4  -7 58100.9 1497.77   1
  15 -11  -7 55872.0 3261.05   4
   4  11  -7 48367.8 2029.11   3
  -4  15  -7 59626.0 2553.91   2
  -4  15  -4 92725.2 2950.21   1
  15 -11  -4 90926.2 3217.56   4
  11 -15  -4 94433.2 3240.89   4
   4  11  -4 86639.8 2751.58   2
   4  11  -4 91785.1 2279.17   4
  15 -11  -4 84738.7 3168.86   2
  -4  15  -4 85810.9 2131.75   2
   4  11  -4 85429.2 3003.19   1
  11 -15  -4 88826.9 2981.35   2
 -15   4  -4 89222.5 1610.54   1
  15 -11  -1 87751.1 2705.93   3
 -15   4  -1 87315.9 1945.52   1
 -11  -4  -1 84140.4 2745.31   3
   4  11  -1 86537.4 1184.91   4
  15 -11  -1 89509.3 2437.65   4
   4  11  -1 87212.1 2213.74   1
  15 -11  -1 85557.0 2309.42   2
  -4  15  -1 86648.6 1193.09   2
  11 -15  -1 82470.7 2137.61   4
  11 -15  -1 90016.7 1992.74   2
   4  11  -1 89475.1 2658.18   3
  -4  15  -1 93117.2 2333.39   1
   4  11  -1 84968.7 1227.81   4
 -15   4  -1 88340.9 2970.33   3
  -4  15  -1 86469.9 1272.09   2
  15 -11   2 41105.0 2146.10   3
   4  11   2 40642.4 1603.92   4
 -15   4   2 41813.4 1894.86   1
  -4  15   2 42618.9 1434.48   4
   4  11   2 41822.3 2068.07   3
  -4  15   2 42391.5 1527.87   1
  15 -11   2 43964.4 1706.35   1
 -11  -4   2 47287.3 1672.53   3
  -4  15   2 45024.1 1758.81   2
   4  11   2 42289.0 1100.66   1
 -15   4   2 42581.2 1633.15   3
   4  11   2 43523.5 1776.88   2
  11 -15   5 147399. 4302.01   3
  -4  15   5 140005. 3891.08   3
  -4  15   5 141055. 3529.83   1
  11 -15   5 145206. 3139.37   2
   4  11   5 150421. 4469.25   3
  15 -11   5 147131. 4607.67   3
  11 -15   8 13444.3 1677.79   3
  -4  15   8 15132.8 1596.64   3
   4  11   8 16287.6 1912.60   3
  15 -11   8 15349.9 1787.06   3
  15 -11  11 23625.2 2498.19   3
  11 -15  11 19801.5 2103.62   3
  -4  15  11 24063.4 2267.42   3
 -10  -5 -11 7087.40 1373.99   2
 -15   5 -11 8420.23 1325.57   2
   5  10 -11 4155.87 1573.20   2
 -15   5 -11 8704.49 1116.51   1
  15 -10 -11 7376.02 1903.05   4
   5  10 -11 8518.24 1539.78   4
  10 -15 -11 8866.30 1878.18   4
  -5  15 -11 6801.06 1433.79   2
  -5  15 -11 7814.53 1301.36   4
  15 -10 -11 9706.29 1984.24   2
  -5  15 -11 7625.27 1520.84   1
  10 -15 -11 6053.18 1630.20   2
 -10  -5 -11 8998.86 1510.23   4
  -5  15  -8 4496.75 1044.01   1
 -10  -5  -8 3438.89 572.102   1
  10 -15  -8 3631.78 1182.14   4
  15 -10  -8 3763.74 1204.85   4
 -10  -5  -8 4374.69 962.300   2
 -15   5  -8 4458.11 688.064   1
   5  10  -8 4054.17 953.184   4
  -5  15  -8 2279.13 663.391   4
 -10  -5  -8 2191.77 858.642   4
   5  10  -8 4464.33 1149.81   2
  15 -10  -8 2955.32 1219.49   2
  10 -15  -8 3414.31 1123.88   2
  -5  15  -8 3411.26 899.441   2
  -5  15  -5 31502.5 1468.60   2
   5  10  -5 34584.9 1574.45   3
  10 -15  -5 31392.2 2006.82   2
  -5  15  -5 30684.3 1835.38   1
  10 -15  -5 34859.3 2197.82   4
   5  10  -5 31744.1 1630.21   4
   5  10  -5 31232.1 1932.94   2
  15 -10  -5 31664.4 2195.43   2
  15 -10  -5 31764.6 2236.74   4
 -15   5  -5 32516.4 1154.74   1
  10 -15  -2 52205.4 1945.48   4
   5  10  -2 53967.8 1946.48   3
  15 -10  -2 51054.9 1868.92   3
   5  10  -2 52473.0 1801.81   2
  15 -10  -2 54529.9 2056.87   4
   5  10  -2 50282.1 1900.91   1
   5  10  -2 51733.5 1266.48   4
 -15   5  -2 53120.0 1347.19   1
  -5  15  -2 55189.3 1950.50   1
  10 -15  -2 50044.9 1769.25   2
  -5  15  -2 46541.8 918.419   2
  15 -10  -2 54750.3 2098.37   2
  15 -10   1 113061. 3311.31   3
  -5  15   1 113287. 2269.81   2
  -5  15   1 111561. 2417.35   1
   5  10   1 109469. 2479.51   2
 -10  -5   1 118237. 2840.81   3
  10 -15   1 111138. 1995.20   4
   5  10   1 111896. 3129.71   3
   5  10   1 112849. 2278.49   4
   5  10   1 116557. 1761.51   1
  15 -10   1 112685. 2433.67   1
  -5  15   1 114164. 1734.58   4
 -15   5   1 115416. 2923.53   3
 -15   5   1 107019. 2692.32   1
  -5  15   4 44597.1 1884.08   1
  15 -10   4 42626.0 1903.57   1
  -5  15   4 38984.7 1878.18   4
  10 -15   4 42937.7 1375.02   2
 -10  -5   4 40070.9 1434.90   4
 -15   5   4 39039.9 1175.21   3
  10 -15   4 40065.7 1754.01   4
  -5  15   4 39490.4 1981.12   3
   5  10   4 44380.0 2338.33   3
   5  10   4 41474.4 1234.12   1
  15 -10   4 39277.9 1792.33   2
  15 -10   4 41291.6 2394.76   3
  10 -15   7 8092.94 1330.16   3
  -5  15   7 11281.7 1290.77   1
  -5  15   7 10828.5 1343.57   3
   5  10   7 11053.7 1494.15   3
  15 -10   7 10530.4 1580.52   3
  15 -10  10 7727.30 1591.74   3
  10 -15  10 7354.62 1386.95   3
  -5  15  10 8442.92 1451.39   3
   5  10  10 9297.55 1634.19   3
  -9  -6  -9 3773.27 991.710   2
 -15   6  -9 2309.60 805.961   2
  15  -9  -9 3313.28 1319.75   4
   9 -15  -9 2089.06 1109.89   4
   6   9  -9 3235.33 983.790   4
  -6  15  -9 2264.03 735.873   4
 -15   6  -9 3446.04 706.933   1
   6   9  -9 2053.09 1131.63   2
  -6  15  -9 1551.32 849.746   1
  15  -9  -9 3948.64 1340.33   2
  -9  -6  -9 2453.42 929.922   4
   9 -15  -9 4161.71 1319.65   2
  -6  15  -9 4416.30 1063.99   2
   6   9  -6 29155.6 1364.20   3
  -9  -6  -6 31672.2 1835.01   2
   6   9  -6 32678.5 2122.82   2
  -6  15  -6 29848.6 1912.52   1
   9 -15  -6 30481.3 2209.41   4
   6   9  -6 26023.5 1655.69   4
  -9  -6  -6 28767.7 844.941   1
  15  -9  -6 26559.0 2177.77   2
  15  -9  -6 28917.5 2224.87   4
  -9  -6  -6 31386.0 1841.14   4
 -15   6  -6 30586.7 1326.34   1
   9 -15  -6 31117.8 2111.51   2
  -6  15  -6 30167.8 1600.80   2
  -6  15  -6 26708.7 1330.19   4
 -15   6  -3 16703.6 781.926   1
   9 -15  -3 15429.8 1244.82   4
  15  -9  -3 19435.8 1394.21   4
   6   9  -3 18233.3 1223.88   2
   9 -15  -3 15626.6 1139.82   2
  -6  15  -3 18757.7 1233.79   1
   6   9  -3 17017.9 947.178   4
   6   9  -3 15230.8 1060.77   3
  -6  15  -3 15259.2 627.381   2
  15  -9  -3 17632.2 1386.49   2
  15  -9   0 29596.3 1211.33   1
 -15   6   0 34711.9 1775.88   3
 -15   6   0 30938.3 1316.57   1
   6   9   0 32082.2 1103.06   1
   6   9   0 33389.6 1056.97   4
  15  -9   0 33700.5 1350.39   2
  -9  -6   0 33757.4 1672.71   3
   6   9   0 32372.3 1645.69   3
   9 -15   0 31366.3 1114.25   4
  15  -9   0 33703.2 1757.68   3
  -6  15   0 30420.7 836.058   2
  -6  15   0 32413.9 1338.19   1
  15  -9   3 26248.3 1350.17   2
  -6  15   3 28300.0 1377.90   4
   6   9   3 29042.3 1568.04   4
  15  -9   3 28986.4 1412.69   1
   9 -15   3 28883.8 1256.13   4
  -6  15   3 28451.7 1628.84   2
   6   9   3 29128.2 806.431   1
   6   9   3 31407.2 1908.07   3
  -6  15   3 30194.1 1438.33   1
 -15   6   3 28067.0 1236.00   3
 -15   6   3 28666.7 1711.99   1
  15  -9   3 29342.4 1968.22   3
   9 -15   3 26612.1 675.454   2
   9 -15   6 15431.4 1458.94   3
  -6  15   6 14846.7 1388.14   3
  -6  15   6 15035.5 1365.06   1
   9 -15   6 12855.6 1158.82   2
   6   9   6 12034.3 1507.85   3
  15  -9   6 15254.4 1700.36   3
  15  -9   9 5324.86 1385.35   3
   9 -15   9 2053.13 850.759   3
  -6  15   9 6432.60 1165.12   3
   6   9   9 6718.14 1574.00   3
  -8  -7 -10 19167.9 1992.53   2
 -15   7 -10 19978.1 1790.66   2
  -7  15 -10 19906.8 2000.22   1
  15  -8 -10 21786.2 2576.95   4
 -15   7 -10 20208.5 1551.88   1
   8 -15 -10 23713.8 2525.38   4
   7   8 -10 20336.1 2118.75   4
  -8  -7 -10 15758.8 1857.67   4
  -7  15 -10 18177.6 1671.14   4
   7   8 -10 20592.5 2463.84   2
   8 -15 -10 20754.2 2277.32   2
  -7  15 -10 18957.4 1835.17   2
  15  -8 -10 16796.6 2328.30   2
  -7  15  -7 39601.3 2274.69   1
  -8  -7  -7 38251.4 2212.79   2
  -8  -7  -7 36477.2 2196.19   4
  15  -8  -7 34912.9 2579.86   4
   7   8  -7 38307.3 2537.71   2
  15  -8  -7 36963.9 2722.27   2
   7   8  -7 37721.3 2225.10   4
   8 -15  -7 39107.6 2635.19   4
   7   8  -7 33665.1 1230.91   3
  -8  -7  -7 33898.3 1175.60   1
   8 -15  -7 35007.3 2350.98   2
 -15   7  -7 39097.7 1690.62   1
  -7  15  -7 38138.5 1911.41   2
   7   8  -7 36170.4 1379.33   3
  -7  15  -7 37937.8 1770.02   4
  15  -8  -4 51451.2 2489.22   4
   7   8  -4 52561.3 2290.94   2
   7   8  -4 51964.5 1911.77   4
  -7  15  -4 52713.8 2203.70   1
   7   8  -4 56470.8 1781.67   3
  15  -8  -4 49544.7 2459.94   2
   8 -15  -4 56327.0 2285.90   2
   8 -15  -4 57948.0 2474.73   4
 -15   7  -4 53587.0 1510.79   1
  -7  15  -4 57662.1 1477.11   2
   7   8  -1 168388. 3069.44   1
  15  -8  -1 173851. 3603.81   3
  15  -8  -1 176544. 3353.63   2
  15  -8  -1 175946. 3414.31   4
  -8  -7  -1 177418. 3939.23   3
  15  -8  -1 170644. 2955.37   1
   8 -15  -1 181139. 2410.47   2
   8 -15  -1 170822. 2967.35   4
 -15   7  -1 178345. 2777.07   1
   7   8  -1 171584. 3501.78   3
   8 -15  -1 168301. 3060.86   1
  -7  15  -1 173619. 3144.05   1
 -15   7  -1 176436. 4124.62   3
   7   8  -1 173647. 2277.66   4
  -7  15   2 24402.0 1235.49   1
   8 -15   2 25113.6 932.948   4
   7   8   2 25256.6 574.440   1
   7   8   2 26124.6 1328.76   4
  -7  15   2 23738.5 1226.36   2
  15  -8   2 27272.3 1228.95   1
  -7  15   2 26502.6 1123.41   4
   7   8   2 24848.7 1638.99   3
 -15   7   2 23442.8 1282.17   3
 -15   7   2 23144.7 1449.22   1
  15  -8   2 23941.1 1657.78   3
  15  -8   5 78026.7 3342.39   3
  -7  15   5 83552.6 2807.66   3
  -7  15   5 75561.4 2717.96   1
   7   8   5 84328.2 3413.23   3
   8 -15   5 77364.5 2590.95   4
  -8  -7   5 76718.8 2095.69   4
   8 -15   5 80615.8 2160.78   2
  15  -8   8 4909.40 1291.35   3
  -7  15   8 3363.71 914.240   3
   7   8   8 5064.63 1260.20   3
  -7  15  11 18903.6 1919.52   3
   7   8  11 19491.9 2345.82   3
  15  -8  11 18952.9 2305.45   3
   7 -15 -11 18384.9 2306.75   2
  -7  -8 -11 18375.1 2082.57   2
 -15   8 -11 16376.0 1774.53   2
 -15   8 -11 20404.5 1718.98   1
  -7  -8 -11 17966.9 2081.86   4
   8   7 -11 19967.7 2590.11   2
   8   7 -11 22260.2 2337.44   4
   7 -15 -11 20694.6 2498.03   4
  -8  15 -11 19025.9 1841.89   4
  15  -7 -11 19643.6 2759.26   2
  -8  15 -11 16666.3 1940.14   1
  -8  15 -11 19293.3 1938.79   2
  15  -7 -11 18262.3 2486.65   4
   7 -15  -8 3287.13 1054.65   4
   8   7  -8 1795.07 1223.92   2
  -7  -8  -8 3587.44 1029.44   2
 -15   8  -8 1991.58 746.346   2
  15  -7  -8 1443.84 937.251   4
   8   7  -8 3711.06 1036.10   4
  -8  15  -8 2530.08 800.151   1
  -8  15  -8 3792.18 833.962   4
  15  -7  -8 4597.59 1509.28   2
 -15   8  -8 3287.30 694.249   1
  -8  15  -8 4841.72 931.412   2
   7 -15  -8 4209.24 1209.87   2
  -7  -8  -8 4110.78 999.165   4
  -7  -8  -5 84912.5 1285.41   1
   8   7  -5 85891.7 2802.59   4
   8   7  -5 88990.0 2053.76   3
   7 -15  -5 85169.3 3230.62   4
   8   7  -5 86908.0 3242.42   2
  15  -7  -5 85607.5 3445.45   2
  -8  15  -5 87806.6 2921.84   1
  15  -7  -5 81286.9 3302.46   4
   8   7  -5 90525.6 2014.03   3
   7 -15  -5 85439.4 3071.62   2
  -7  -8  -5 85559.8 2776.66   4
 -15   8  -5 88988.1 2166.19   1
  -8  15  -5 89084.2 2153.31   2
  15  -7  -2 22676.6 1261.48   3
 -15   8  -2 23496.2 1015.99   1
   8   7  -2 23140.4 1281.53   2
  15  -7  -2 21984.1 1380.62   2
   8   7  -2 21408.4 962.475   4
   7 -15  -2 22063.7 1273.40   4
   8   7  -2 21787.8 1202.95   3
  15  -7  -2 21666.3 1211.36   1
  -8  15  -2 21870.5 1233.97   1
  15  -7  -2 25244.5 1421.06   4
   7 -15  -2 25378.6 1187.88   2
   7 -15  -2 19574.6 1047.36   1
  -8  15   1 164507. 2341.71   4
   7 -15   1 164487. 1927.21   4
  -8  15   1 167310. 3111.70   1
   8   7   1 159678. 2819.77   4
   8   7   1 164572. 1753.10   1
 -15   8   1 159369. 3244.39   1
  -8  15   1 163127. 2426.25   2
   8   7   1 162942. 3824.97   3
  15  -7   1 169362. 2667.73   1
 -15   8   1 160261. 3505.92   3
  15  -7   1 162163. 3896.17   3
  15  -7   4 55044.9 2004.46   1
   7 -15   4 52311.7 1309.65   2
  -7  -8   4 51928.0 1469.22   4
  -8  15   4 53073.4 2170.25   1
   7 -15   4 52715.7 1842.37   4
  -8  15   4 49216.7 2275.10   2
   8   7   4 48205.7 2506.30   3
 -15   8   4 53926.9 1631.89   3
 -15   8   4 48486.4 2379.85   1
  15  -7   4 47162.3 2535.45   3
  -8  15   7 37984.9 2347.48   1
   8   7   7 45084.8 2772.79   3
  -8  15   7 37716.8 2056.27   3
  15  -7   7 42279.0 2743.92   3
  -8  15  10 21875.4 1865.16   3
   8   7  10 20637.5 2267.27   3
  15  -7  10 18784.8 2195.49   3
  -9  15  -9 4325.31 1020.27   2
 -15   9  -9 5322.85 1000.42   2
  -6  -9  -9 3593.10 971.649   2
  -9  15  -9 2829.11 940.547   1
  15  -6  -9 4925.00 1446.92   4
   6 -15  -9 4989.63 1328.15   4
  -6  -9  -9 3803.13 1145.63   4
  -9  15  -9 3706.31 882.521   4
 -15   9  -9 3936.53 767.466   1
   9   6  -9 5523.23 1454.42   2
  15  -6  -9 5427.70 1706.98   2
   6 -15  -9 3479.65 1177.02   2
   9   6  -9 1629.25 862.059   4
  -6  -9  -6 12780.9 1230.03   2
  15  -6  -6 14170.9 1563.56   4
  -6  -9  -6 11679.5 659.011   1
   9   6  -6 10259.0 1221.57   4
   6 -15  -6 14171.0 1513.33   4
   9   6  -6 10469.6 1402.77   2
  15  -6  -6 11720.1 1516.49   2
  -6  -9  -6 14896.4 1377.01   4
 -15   9  -6 13022.3 995.116   1
   9   6  -6 11150.2 644.211   3
   6 -15  -6 15223.9 1473.73   2
  -9  15  -6 12415.9 1005.48   2
  -9  15  -6 11289.3 1174.11   1
   9   6  -6 12578.7 666.801   3
  15  -6  -3 28232.3 1212.77   3
  15  -6  -3 25854.0 1550.28   4
   9   6  -3 29086.2 1369.43   4
  15  -6  -3 27218.6 1676.43   2
   6 -15  -3 27376.1 1510.70   4
  -9  15  -3 26839.9 1445.20   1
   6 -15  -3 27343.9 1395.81   2
   9   6  -3 27444.2 1582.83   2
   9   6  -3 29551.6 1333.06   3
  -6  -9  -3 26147.4 700.133   1
 -15   9  -3 26816.3 1128.48   1
   6 -15  -3 27477.7 1249.40   1
   6 -15   0 33971.0 1043.69   4
  -9  15   0 36390.7 1449.29   1
  15  -6   0 32173.0 1205.71   1
   9   6   0 37533.1 1799.07   3
 -15   9   0 37112.1 1434.51   1
 -15   9   0 36418.3 1837.88   3
  15  -6   0 34044.4 1741.77   3
   6 -15   0 34080.3 1467.73   1
  15  -6   3 14238.6 894.042   1
  -9  15   3 15807.6 1035.73   4
   6 -15   3 17693.4 894.938   4
   9   6   3 16142.0 1250.88   4
  -9  15   3 15409.8 1140.03   2
   9   6   3 16484.1 1488.10   3
  -9  15   3 14866.5 1128.41   1
  15  -6   3 16143.9 1519.64   3
 -15   9   3 14316.5 1021.38   3
 -15   9   3 14762.0 1249.24   1
   6 -15   6 24569.5 1462.06   2
  -9  15   6 30361.5 2012.38   1
   6 -15   6 28216.8 1743.72   4
  -9  15   6 29844.8 1726.74   3
   9   6   6 31338.2 2221.58   3
 -15   9   6 30077.6 998.395   3
  15  -6   6 31194.2 2290.68   3
  15  -6   9 4519.13 1250.94   3
  -9  15   9 3477.75 929.168   3
   9   6   9 3071.55 1178.94   3
 -10  15 -10 6937.12 1315.35   1
  -5 -10 -10 8171.43 1462.84   2
 -15  10 -10 7620.17 1157.09   2
 -15  10 -10 7960.55 1112.36   1
  15  -5 -10 5144.13 1737.92   2
  15  -5 -10 8408.07 1776.28   4
   5 -15 -10 9247.43 1734.26   4
  10   5 -10 7610.84 1451.08   4
  -5 -10 -10 9788.24 1589.62   4
  10   5 -10 8236.75 1836.71   2
 -10  15 -10 10438.8 1339.31   2
   5 -15 -10 4809.03 1320.54   2
  -5 -10  -7 11717.3 1374.77   2
 -10  15  -7 9286.20 1139.34   1
  15  -5  -7 10304.5 1554.42   2
  15  -5  -7 11961.0 1510.54   4
  10   5  -7 11175.3 1590.70   2
  -5 -10  -7 10210.0 1259.65   4
   5 -15  -7 10436.6 1453.84   4
  10   5  -7 12395.3 1422.80   4
 -15  10  -7 13326.0 1118.75   1
 -10  15  -7 13112.7 1099.60   2
  -5 -10  -7 9853.38 743.234   1
   5 -15  -7 12564.8 1485.81   2
 -10  15  -4 41840.0 1093.48   2
  15  -5  -4 44726.1 2322.54   2
  15  -5  -4 39408.3 2120.27   4
  10   5  -4 37351.1 1789.52   4
  -5 -10  -4 41218.0 1770.72   4
 -10  15  -4 39005.5 1824.64   1
  10   5  -4 43954.1 1463.51   3
  -5 -10  -4 41358.0 987.315   1
   5 -15  -4 40672.7 2032.16   4
 -15  10  -4 39922.0 1484.37   1
   5 -15  -4 41770.4 1889.43   2
  10   5  -4 39277.5 2102.24   2
  15  -5  -1 109721. 2681.25   4
 -15  10  -1 111494. 2347.60   1
   5 -15  -1 114002. 2209.70   4
 -15  10  -1 112281. 3309.41   3
  10   5  -1 105962. 2156.19   4
   5 -15  -1 113007. 2483.52   1
  15  -5  -1 110397. 2353.55   1
  10   5  -1 115575. 2925.20   3
  15  -5  -1 121457. 2861.74   2
 -10  15  -1 116803. 2565.07   1
  15  -5  -1 107044. 2830.98   3
 -10  15   2 49716.6 1559.36   4
 -10  15   2 52576.1 1903.13   1
 -15  10   2 46740.1 1965.08   1
 -10  15   2 50926.1 1724.07   2
   5 -15   2 49992.1 1079.15   4
  15  -5   2 52933.8 1445.35   1
  10   5   2 50627.0 1857.50   4
  10   5   2 50228.9 2295.73   3
  15  -5   2 49820.9 2331.19   3
 -15  10   2 47655.2 1890.74   3
  -5 -10   5 34846.8 1361.47   4
   5 -15   5 32164.6 1278.63   2
  10   5   5 36578.8 2334.14   3
   5 -15   5 34079.2 1618.89   4
 -10  15   5 30728.0 1605.65   3
 -10  15   5 36520.9 2065.17   1
  15  -5   5 37394.0 2392.17   3
 -15  10   5 33170.8 1314.51   3
 -15  10   5 35001.2 2190.93   1
 -10  15   8 2462.96 817.178   3
  10   5   8 2412.87 1158.12   3
  15  -5   8 2881.47 1195.35   3
  15  -5  11 6440.54 1699.49   3
  10   5  11 7331.08 1819.20   3
  -4 -11 -11 22088.1 2244.17   2
   4 -15 -11 27028.1 2786.67   4
 -15  11 -11 20018.6 1885.05   2
  -4 -11 -11 27942.1 2542.38   4
  15  -4 -11 25933.4 3023.15   2
 -11  15 -11 21743.1 2091.51   1
  11   4 -11 20762.3 2695.06   2
  15  -4 -11 30601.5 3069.65   4
  11   4 -11 22768.0 2483.88   4
 -15  11 -11 23594.1 1908.94   1
   4 -15 -11 23429.9 2420.25   2
 -11  15 -11 21881.7 1923.93   2
  -4 -11  -8 12740.9 1474.28   2
 -15  11  -8 11515.6 1206.16   2
  15  -4  -8 11133.9 1740.60   4
 -11  15  -8 11157.2 1372.87   1
 -15  11  -8 9975.54 1111.66   1
  11   4  -8 14464.4 1935.94   2
  -4 -11  -8 10150.1 1384.06   4
  15  -4  -8 9497.92 1646.18   2
  11   4  -8 11772.1 1589.55   4
   4 -15  -8 11635.2 1483.01   2
   4 -15  -8 12071.9 1657.38   4
 -11  15  -8 13061.1 1232.11   2
 -11  15  -5 156622. 2613.65   2
  -4 -11  -5 139335. 3563.47   2
 -11  15  -5 154577. 3754.68   1
  11   4  -5 159582. 4547.42   2
  11   4  -5 148991. 3909.92   4
  15  -4  -5 160508. 4738.32   2
  -4 -11  -5 157340. 3854.14   4
   4 -15  -5 153715. 4144.31   4
 -15  11  -5 157268. 3263.55   1
  11   4  -5 165367. 2335.49   3
  15  -4  -5 155618. 4436.16   4
   4 -15  -5 160197. 4017.53   2
  -4 -11  -5 164273. 2285.83   1
   4 -15  -2 38245.2 1341.12   2
  11   4  -2 38515.8 1472.80   4
 -15  11  -2 37209.7 1374.61   1
  15  -4  -2 34204.7 1642.87   4
  11   4  -2 37781.6 1608.23   3
  11   4  -2 38097.1 1740.67   2
  15  -4  -2 32988.6 1742.76   2
   4 -15  -2 34353.1 1432.71   4
  11   4  -2 34846.7 1616.92   1
  -4 -11  -2 36622.0 1118.57   1
   4 -15  -2 36954.7 1389.20   1
 -11  15  -2 37072.0 1568.88   1
  15  -4  -2 36164.8 1519.77   3
  15  -4  -2 33747.1 1502.61   1
  11   4   1 84444.8 1187.07   1
 -11  15   1 90137.6 2368.49   1
 -11  15   1 81792.7 2763.84   3
   4 -15   1 85788.8 2509.53   1
 -11  15   1 90721.1 1679.73   2
  11   4   1 88358.8 2878.24   3
 -15  11   1 81809.7 2392.66   1
  15  -4   1 88128.7 2958.70   3
  15  -4   1 86162.0 1695.73   1
 -15  11   1 83214.9 2660.51   3
 -15  11   4 87676.7 3168.11   1
   4 -15   4 85258.4 2064.97   4
  -4 -11   4 81599.6 1656.90   4
 -11  15   4 80989.5 2791.22   1
 -15  11   4 77192.4 2198.22   3
   4 -15   4 78270.9 1611.31   2
  11   4   4 82070.3 3299.09   3
  15  -4   4 80594.6 3264.40   3
 -11  15   7 59351.9 3014.85   1
 -11  15   7 60240.3 2398.39   3
 -15  11   7 50761.4 1524.55   3
  11   4   7 61080.6 3252.54   3
  15  -4   7 56643.2 3167.88   3
 -15  11   7 57116.4 1568.80   3
 -11  15  10 19861.4 1653.30   3
  11   4  10 24522.8 2527.07   3
  15  -4  10 18098.7 2226.93   3
   3 -15  -9-110.697 926.071   2
  12   3  -9 264.281 871.074   4
 -12  15  -9-75.9394 600.576   2
  -3 -12  -9 498.987 806.803   2
 -15  12  -9 1709.34 790.988   2
  -3 -12  -9 2437.56 1029.33   4
  15  -3  -9 634.790 1076.11   4
   3 -15  -9 701.438 841.910   4
 -12  15  -9 320.995 649.730   1
 -15  12  -9 719.846 555.327   1
  12   3  -9 1192.74 1096.99   2
  15  -3  -9-1593.07 1041.56   2
  -3 -12  -6 15860.5 1387.76   2
 -12  15  -6 14688.4 995.180   2
  15  -3  -6 14033.0 1705.59   2
  -3 -12  -6 12622.3 807.524   1
  12   3  -6 14039.0 1416.91   4
  12   3  -6 12972.2 1577.11   2
  -3 -12  -6 17044.9 1495.70   4
 -12  15  -6 17687.9 1399.53   1
   3 -15  -6 12309.3 1430.55   4
 -15  12  -6 15005.9 1154.99   1
  15  -3  -6 12410.3 1487.13   4
   3 -15  -6 14395.0 1431.05   2
   3 -15  -3 21281.8 1196.07   2
  15  -3  -3 19984.1 1423.33   4
  12   3  -3 18279.1 1239.84   4
  15  -3  -3 21631.8 1532.17   2
  -3 -12  -3 20577.4 837.106   1
  -3 -12  -3 18446.0 1101.17   4
 -12  15  -3 18402.4 1162.23   1
   3 -15  -3 17882.8 1206.53   4
  12   3  -3 22495.7 1168.27   3
   3 -15  -3 19789.6 1007.57   1
 -15  12  -3 19441.4 1147.10   1
  12   3  -3 19001.2 1409.19   2
  15  -3  -3 20625.1 1087.83   3
 -12  15   0 22350.8 1213.79   1
 -15  12   0 19371.8 1424.44   3
  15  -3   0 18957.8 872.325   1
 -15  12   0 18068.6 1073.22   1
  12   3   0 19419.0 875.021   1
   3 -15   0 19344.8 1139.20   1
  12   3   0 18910.5 1347.46   3
  15  -3   0 21330.4 1436.54   3
 -12  15   3 11629.5 1042.25   1
   3 -15   3 12346.8 560.237   4
 -15  12   3 13199.4 1163.10   1
  12   3   3 14723.8 1445.40   3
  15  -3   3 13437.0 702.345   1
  15  -3   3 12660.7 1374.15   3
 -12  15   3 13182.9 1090.15   2
 -15  12   3 11741.0 1014.62   3
 -15  12   6 11893.1 914.299   3
   3 -15   6 9290.80 899.009   2
  -3 -12   6 9300.06 882.803   4
   3 -15   6 9593.58 1004.85   4
 -15  12   6 9491.94 759.328   3
 -12  15   6 10985.1 1361.31   1
 -12  15   6 11327.5 1073.14   3
 -15  12   6 10720.3 1440.40   1
  12   3   6 11601.8 1564.11   3
  15  -3   6 13408.3 1667.76   3
 -12  15   9 1733.15 670.864   3
  12   3   9 3071.15 1265.35   3
  15  -3   9 2628.04 1238.14   3
   2 -15 -10 4381.09 1215.26   2
  -2 -13 -10 4299.38 1188.40   2
 -13  15 -10 1730.31 818.126   2
 -15  13 -10 2758.54 900.814   2
  15  -2 -10 1746.80 1362.38   4
  13   2 -10 2544.95 1185.40   2
   2 -15 -10 2123.72 1120.87   4
  -2 -13 -10 2391.75 1024.18   4
 -13  15 -10 3542.98 1019.39   1
 -15  13 -10 4429.51 987.954   1
  15  -2 -10 1851.96 1299.01   2
  13   2 -10 3054.33 1250.41   4
  -2 -13  -7 26419.3 1903.48   2
 -13  15  -7 28288.7 1489.91   2
  -2 -13  -7 27983.9 2045.89   4
  15  -2  -7 26832.1 2358.49   2
 -15  13  -7 26792.6 1643.12   1
  13   2  -7 27240.3 2262.18   2
   2 -15  -7 27360.9 2098.97   4
 -13  15  -7 26834.9 1813.47   1
  15  -2  -7 25754.2 2175.63   4
   2 -15  -7 31659.7 2100.56   2
  13   2  -7 30322.0 2203.11   4
   2 -15  -4 2247.70 556.014   2
   2 -15  -4 2317.17 431.209   1
  -2 -13  -4 4167.62 652.327   2
   2 -15  -4 4089.91 794.769   4
  15  -2  -4 3531.44 791.040   4
  13   2  -4 2879.30 827.744   2
  13   2  -4 1323.29 554.421   4
  15  -2  -4 3640.60 892.508   2
  -2 -13  -4 2899.39 595.192   4
  -2 -13  -4 2623.42 371.604   1
  13   2  -4 3273.65 477.811   3
 -13  15  -4 1689.94 510.905   1
 -15  13  -4 2375.55 516.830   1
  15  -2  -4 2789.08 415.354   3
  13   2  -1 19303.0 1078.77   4
 -13  15  -1 22186.5 1177.31   1
  15  -2  -1 22412.2 1230.93   4
  -2 -13  -1 25546.7 1179.32   1
  13   2  -1 24344.8 1162.31   1
   2 -15  -1 25156.8 1219.04   1
   2 -15  -1 24494.0 909.619   4
  15  -2  -1 22967.2 1364.62   2
  13   2  -1 26266.3 1487.90   3
 -15  13  -1 24039.3 1204.86   1
  15  -2  -1 23108.8 1415.24   3
  15  -2  -1 22563.0 1115.99   1
 -13  15   2 23133.9 1135.20   2
 -15  13   2 25504.8 1543.27   3
 -13  15   2 24426.0 1555.18   3
 -13  15   2 22323.5 1174.26   4
  15  -2   2 22395.3 1651.96   3
  15  -2   2 24878.4 819.997   1
 -13  15   2 23324.9 1354.43   1
  13   2   2 22654.9 1637.67   3
 -15  13   2 25306.5 1177.47   2
 -15  13   2 23280.0 1422.90   1
 -15  13   5 6016.42 799.169   3
  -2 -13   5 5571.72 577.590   4
   2 -15   5 5665.13 605.299   2
 -15  13   5 5492.81 1039.32   1
   2 -15   5 6060.49 692.452   4
  13   2   5 7129.35 1304.71   3
 -13  15   5 6083.08 1066.79   1
  15  -2   5 5288.30 1116.53   3
  15  -2   8 5265.37 1382.30   3
 -13  15   8 3781.99 791.251   3
 -15  13   8 3461.89 617.487   3
  13   2   8 3044.76 1077.25   3
  13   2  11 5588.87 1637.94   3
  15  -2  11 5404.74 1624.57   3
 -14  15 -11 37014.8 2398.29   2
 -15  14 -11 30112.5 2174.60   2
  15  -1 -11 34636.7 3214.29   4
 -14  15 -11 33738.6 2447.55   1
 -15  14 -11 33468.0 2377.23   1
   1 -15 -11 29837.3 2792.18   4
  -1 -14 -11 34446.0 2856.90   4
  14   1 -11 30070.1 3183.82   2
  15  -1 -11 35047.1 3379.95   2
  14   1 -11 33460.6 3144.45   4
   1 -15 -11 40869.8 2977.96   2
  -1 -14 -11 29876.2 2625.50   2
 -14  15  -8 12285.9 1164.40   2
 -15  14  -8 11163.1 1125.29   2
  15  -1  -8 10326.7 1575.02   4
  14   1  -8 9823.49 1519.26   4
  14   1  -8 12550.3 1819.29   2
  15  -1  -8 10968.0 1665.08   2
 -14  15  -8 11340.8 1314.77   1
  -1 -14  -8 11454.1 1523.61   4
 -15  14  -8 10657.4 1215.27   1
   1 -15  -8 11033.0 1523.51   4
   1 -15  -8 12593.6 1547.35   2
  -1 -14  -8 9501.51 1319.83   2
   1 -15  -5 129487. 3509.16   2
  -1 -14  -5 132455. 3537.09   2
   1 -15  -5 130420. 3725.46   4
  15  -1  -5 121560. 3907.27   4
  14   1  -5 125056. 3876.30   4
  14   1  -5 128124. 4270.63   2
  -1 -14  -5 128230. 3632.42   4
 -15  14  -5 130274. 3221.41   1
 -14  15  -5 129064. 3301.16   1
  15  -1  -5 120549. 4201.89   2
  -1 -14  -5 121640. 2386.61   1
   1 -15  -5 122375. 2534.67   1
  14   1  -2 57862.2 2263.48   2
  -1 -14  -2 54527.5 1580.71   1
  15  -1  -2 47661.7 1826.52   1
  15  -1  -2 49828.1 1977.04   4
   1 -15  -2 54125.2 1636.08   4
  -1 -14  -2 54617.5 1557.17   4
   1 -15  -2 56329.7 1692.09   1
  14   1  -2 49526.4 1896.81   1
  14   1  -2 54874.1 1987.01   3
  15  -1  -2 53281.0 1993.93   3
  14   1  -2 54784.1 1972.04   4
 -14  15  -2 49075.1 1790.99   1
  15  -1  -2 45708.9 2048.46   2
 -15  14  -2 43778.0 1679.17   1
  15  -1   1 103975. 1630.56   1
   1 -15   1 100219. 2843.20   1
 -14  15   1 97208.9 2629.69   1
 -15  14   1 102032. 2676.10   1
  14   1   1 99425.7 3168.07   3
  15  -1   1 102667. 3214.88   3
  14   1   1 100247. 1425.27   1
 -15  14   4 78104.9 2533.72   3
 -14  15   4 80307.3 2656.49   3
 -15  14   4 80563.7 3011.33   1
   1 -15   4 82011.9 1590.04   4
 -14  15   4 76991.2 2927.84   1
  -1 -14   4 87041.8 1523.80   4
  14   1   4 79102.7 3286.00   3
  15  -1   4 83394.3 3395.94   3
 -15  14   7 54274.1 2071.47   3
 -15  14   7 60766.6 2081.49   3
 -14  15   7 58385.7 3150.97   1
 -14  15   7 60739.8 2250.04   3
 -15  14   7 66096.7 3363.55   1
  14   1   7 63437.0 3376.88   3
  15  -1   7 61250.8 3362.90   3
  14   1  10 23306.8 2557.15   3
  15  -1  10 19047.6 2261.56   3
 -15  15  -9 1197.72 685.031   2
  15   0  -9-925.311 1223.32   2
  15   0  -9-109.806 891.191   4
   0 -15  -9 78.4406 826.940   4
 -15  15  -9-570.013 671.435   1
   0 -15  -9-842.985 819.244   2
   0 -15  -6 15104.1 1427.00   2
  15   0  -6 17895.1 1856.50   2
   0 -15  -6 16522.4 1540.19   4
 -15  15  -6 16061.0 1285.81   1
  15   0  -6 15715.0 1601.46   4
 -15  15  -3-201.448 449.758   1
  15   0  -3 485.192 538.505   4
  15   0  -3 134.900 584.349   2
   0 -15  -3-485.767 443.719   4
   0 -15  -3-215.834 293.085   1
  15   0  -3-228.872 416.805   3
   0 -15   0 55747.2 1987.40   1
 -15  15   0 49146.8 1829.73   1
  15   0   0 51010.8 1385.40   1
  15   0   0 52977.1 2247.44   3
 -15  15   3 123.197 515.208   3
 -15  15   3-98.2693 501.341   1
 -15  15   3 139.103 359.379   2
  15   0   3 163.928 684.960   3
 -15  15   6 16810.5 1290.81   3
   0 -15   6 16984.1 1152.68   4
 -15  15   6 22452.4 1927.25   1
  15   0   6 21321.2 2048.41   3
  15   0   9 775.953 1089.98   3
  16 -16 -10 47561.7 3784.65   4
   0  16 -10 54543.1 3609.77   1
   0  16 -10 50536.7 2682.27   4
   0  16 -10 46487.1 3060.91   2
  16 -16 -10 42006.9 3447.19   2
 -16   0  -7 54.0134 183.023   1
  16 -16  -7 416.703 924.244   4
   0  16  -7 531.396 682.575   1
   0  16  -7 22.6888 486.858   4
   0  16  -7 356.958 670.016   2
  16 -16  -7-751.955 951.120   2
   0  16  -4 119459. 3044.94   2
   0  16  -4 118421. 3505.40   1
  16 -16  -4 117103. 3787.46   2
  16 -16  -4 116559. 3792.23   4
  16 -16  -1-24.1128 361.557   4
  16 -16  -1-11.4832 379.492   2
   0  16  -1-106.042 347.733   1
  16 -16   2 267312. 3088.23   2
  16 -16   2 271974. 5862.79   3
   0  16   2 249873. 3582.77   1
   0  16   2 267670. 3807.41   4
 -16   0   2 267232. 4343.78   3
   0  16   2 253335. 4601.03   2
  16 -16   5 1513.73 958.653   3
   0  16   5 88.2709 736.580   3
  16 -16   5-379.184 601.375   2
   0  16   5 295.741 453.429   1
  16 -16   8 39709.9 2890.88   3
   0  16   8 48735.6 2994.96   3
  16 -16  11 1380.58 1404.60   3
   0  16  11 938.818 1216.05   3
   1  15 -11-94.7459 881.878   4
   1  15 -11 1635.50 1288.12   1
  -1  16 -11 691.305 1024.64   1
  16 -15 -11 2316.91 1451.89   4
  15 -16 -11 618.462 1256.41   4
  -1  16 -11 1423.93 911.242   4
   1  15 -11 630.895 1051.83   2
  16 -15 -11 825.967 1483.33   2
  15 -16 -11 1786.68 1523.27   2
  -1  16 -11 3935.86 1299.87   2
   1  15  -8 2665.28 1037.09   2
   1  15  -8 48.0553 727.928   1
  -1  16  -8 1594.34 810.887   1
   1  15  -8 900.754 550.251   4
  15 -16  -8-239.390 898.111   4
  16 -15  -8-1397.77 1177.90   2
  16 -15  -8-90.0939 1019.63   4
  -1  16  -8 1690.59 904.322   2
  15 -16  -8 402.360 1103.94   2
 -15  -1  -8 711.331 279.897   1
 -16   1  -8 914.064 347.632   1
  -1  16  -8 742.172 562.355   4
  15 -16  -5 1024.18 845.515   4
 -16   1  -5 1439.57 198.266   1
  16 -15  -5 2167.58 862.727   4
   1  15  -5 1844.60 750.466   1
  15 -16  -5 2544.15 967.006   2
  -1  16  -5 1383.88 680.119   1
   1  15  -5 2874.71 492.884   4
  -1  16  -5 2485.76 414.004   4
   1  15  -5 653.090 590.333   2
  -1  16  -5 571.638 530.393   2
  16 -15  -5 452.711 788.823   2
   1  15  -2 1320.24 420.388   2
 -16   1  -2 1093.24 260.888   1
  16 -15  -2 1127.30 499.932   4
  16 -15  -2 1986.25 563.964   2
  15 -16  -2 926.013 488.375   2
   1  15  -2 956.092 424.475   1
  -1  16  -2 1435.63 477.833   1
  15 -16  -2 1741.09 571.513   4
  -1  16  -2 1370.59 354.789   2
  -1  16   1 26445.0 861.687   4
  15 -16   1 24992.3 935.703   2
  16 -15   1 24083.8 1766.72   3
  16 -15   1 29243.4 1097.95   2
 -16   1   1 24898.7 1486.71   3
   1  15   1 25285.5 1650.04   3
   1  15   1 26461.5 972.462   4
 -15  -1   1 23470.7 1426.22   3
  -1  16   1 25887.1 1319.83   2
   1  15   1 26580.5 1108.29   1
   1  15   1 25619.1 1287.44   2
  -1  16   1 23030.3 1108.90   1
  16 -15   4 1421.41 847.992   3
  -1  16   4 339.317 345.662   1
  15 -16   4-595.049 762.669   3
  -1  16   4 171.260 524.360   4
  15 -16   4 439.496 456.930   2
 -16   1   4-114.990 304.111   3
  -1  16   4 118.345 664.753   3
   1  15   4 251.558 651.430   3
   1  15   4 440.272 360.774   1
  16 -15   4 423.675 468.358   2
  16 -15   7 6188.83 1317.81   3
  15 -16   7 6588.22 1404.66   3
   1  15   7 8179.91 1372.58   3
  -1  16   7 5484.02 1249.88   3
  16 -15  10 4008.38 1343.64   3
  15 -16  10 3489.03 1439.94   3
  -1  16  10 4450.88 1366.81   3
   1  15  10 5530.75 1430.82   3
  16 -14  -9 14162.4 2104.72   4
   2  14  -9 9217.15 1627.55   1
  -2  16  -9 8758.01 1125.10   4
  14 -16  -9 8979.33 1760.09   4
  16 -14  -9 11342.9 1911.21   2
   2  14  -9 9721.15 1303.91   4
   2  14  -9 9912.02 1595.36   2
 -16   2  -9 9777.43 863.435   1
  -2  16  -9 10455.2 1492.26   2
  14 -16  -9 9093.16 1887.06   2
  -2  16  -9 10612.5 1628.77   1
  -2  16  -6 5628.44 1031.87   1
  -2  16  -6 6535.70 693.966   4
  14 -16  -6 5974.21 1171.70   4
 -14  -2  -6 4367.45 246.637   1
  14 -16  -6 7554.39 1320.55   2
   2  14  -6 5615.75 1010.39   1
   2  14  -6 7093.61 861.590   4
   2  14  -6 4661.90 984.562   2
  16 -14  -6 6547.11 1331.38   2
  -2  16  -6 5988.89 969.867   2
 -16   2  -6 5615.70 437.691   1
  16 -14  -6 5419.08 1214.46   4
 -16   2  -3 15293.1 638.121   1
  -2  16  -3 14204.7 1170.09   1
  16 -14  -3 14832.8 1309.95   4
  14 -16  -3 13597.8 1270.40   4
  16 -14  -3 15133.1 1351.28   2
   2  14  -3 14376.7 1027.18   2
  -2  16  -3 15211.4 949.213   2
   2  14  -3 11328.0 466.425   4
  14 -16  -3 13752.9 1202.70   2
   2  14  -3 15855.1 1227.62   1
 -16   2   0 26039.2 1261.70   1
   2  14   0 26948.7 1191.30   2
  16 -14   0 23801.2 1631.64   3
  16 -14   0 29622.8 1418.68   4
  14 -16   0 25328.4 1045.19   2
   2  14   0 26662.4 1153.82   1
   2  14   0 24141.3 652.821   4
   2  14   0 27067.8 1645.09   3
 -14  -2   0 23559.6 1510.94   3
  16 -14   0 26331.5 1187.51   2
 -16   2   0 27608.8 1688.00   3
  14 -16   0 28523.9 1273.68   4
  -2  16   0 27255.7 1254.21   1
  -2  16   0 29271.0 1109.34   2
  16 -14   3 40609.4 2379.24   3
   2  14   3 40783.6 1889.65   4
  14 -16   3 41566.5 2362.08   3
   2  14   3 42843.4 1405.23   1
 -16   2   3 44526.4 1579.92   3
   2  14   3 42999.8 2273.32   3
  -2  16   3 44576.5 2220.62   3
 -14  -2   3 44881.5 1624.77   3
  -2  16   3 44128.2 1634.44   1
  -2  16   3 38556.1 2014.00   2
  14 -16   3 46551.8 1422.16   2
  16 -14   3 40086.1 1503.67   2
  -2  16   3 40515.7 1781.05   4
  16 -14   6 15631.9 1784.12   3
  14 -16   6 14641.2 1723.92   3
  -2  16   6 11357.3 1146.62   1
   2  14   6 16089.9 1723.74   3
  14 -16   6 12529.0 1243.98   2
  -2  16   6 12817.2 1501.92   3
  16 -14   9 8973.82 1655.27   3
  14 -16   9 5256.48 1337.49   3
   2  14   9 9042.35 1610.09   3
  -2  16   9 7458.82 1402.24   3
  16 -13 -10 55794.8 3967.83   4
  13 -16 -10 54626.1 3911.17   4
   3  13 -10 56682.2 3009.76   4
 -16   3 -10 53932.3 2096.02   1
  -3  16 -10 56094.0 2760.76   4
   3  13 -10 62275.7 3891.14   1
   3  13 -10 61670.8 3679.75   2
  16 -13 -10 55349.4 3910.46   2
  -3  16 -10 49856.6 2961.08   2
  -3  16 -10 58647.4 3493.31   1
  13 -16 -10 50760.2 3600.67   2
   3  13  -7 428.659 793.384   2
  13 -16  -7 2426.51 994.916   4
  -3  16  -7 1202.42 706.135   1
   3  13  -7 587.593 537.877   4
 -13  -3  -7 1297.60 252.954   1
 -13  -3  -7 1549.21 298.561   1
  -3  16  -7 2155.71 569.731   4
  16 -13  -7 1446.00 887.791   4
  16 -13  -7 2623.30 1003.85   2
  -3  16  -7 889.136 672.449   2
  13 -16  -7 1166.50 1031.89   2
 -16   3  -7 1556.49 355.549   1
   3  13  -7 171.945 749.564   1
   3  13  -4 201475. 4154.37   2
   3  13  -4 198079. 4550.97   1
 -16   3  -4 210581. 2308.22   1
  13 -16  -4 199887. 4846.72   4
  16 -13  -4 197300. 4892.23   2
  -3  16  -4 202490. 3457.86   2
  13 -16  -4 204269. 4690.65   2
   3  13  -4 206825. 3087.03   4
  -3  16  -4 206260. 4473.30   1
  16 -13  -4 193975. 4838.48   4
 -16   3  -1 1195.87 367.776   1
  -3  16  -1 1048.93 262.410   2
  16 -13  -1-12.4469 479.117   3
  -3  16  -1 1304.85 255.001   2
  16 -13  -1 1031.80 460.464   2
   3  13  -1 1327.22 411.493   1
  13 -16  -1 709.869 369.892   4
   3  13  -1 755.426 578.875   3
  -3  16  -1 781.440 396.033   1
  16 -13  -1 353.208 371.354   4
  13 -16  -1 1139.83 405.963   2
  16 -13   2 145142. 4150.87   3
  -3  16   2 145583. 2870.91   1
   3  13   2 137550. 2229.69   1
   3  13   2 147596. 3061.62   4
  -3  16   2 144898. 3315.22   2
 -16   3   2 147928. 3128.12   3
  13 -16   2 150487. 1860.01   2
 -13  -3   2 158177. 3235.53   3
  13 -16   2 136941. 1495.03   2
   3  13   2 143355. 3896.19   3
   3  13   2 142934. 3318.13   2
  -3  16   2 146064. 2690.14   4
  16 -13   5 1639.54 844.502   3
  13 -16   5 197.645 780.061   3
   3  13   5 1559.16 456.892   1
  -3  16   5 450.082 474.119   1
  13 -16   5 1666.58 596.531   2
  -3  16   5 1248.43 678.942   3
   3  13   5 2675.74 980.207   3
  16 -13   8 117926. 4759.45   3
  13 -16   8 121905. 4601.43   3
  -3  16   8 135368. 4617.82   3
   3  13   8 137597. 4941.88   3
  16 -13  11 946.016 1310.57   3
  13 -16  11 793.324 1185.08   3
  -3  16  11-743.292 1219.18   3
   3  13  11 829.896 1370.61   3
 -12  -4 -11 5053.14 1248.85   2
   4  12 -11 2858.56 1402.85   1
  -4  16 -11 2746.50 1174.54   1
  12 -16 -11 4759.13 1677.57   4
  16 -12 -11 4219.74 1805.37   4
   4  12 -11 4245.45 1284.77   4
  -4  16 -11 3002.61 974.612   4
 -12  -4 -11 2743.38 994.017   4
   4  12 -11 3146.32 1536.48   2
  16 -12 -11 2362.52 1439.83   2
  12 -16 -11 2125.57 1230.34   2
  -4  16 -11 2255.42 1188.64   2
  12 -16  -8 10181.2 1756.50   4
 -12  -4  -8 7062.52 594.298   1
   4  12  -8 7126.00 1080.77   4
   4  12  -8 7230.72 1464.80   2
  -4  16  -8 7460.99 967.070   4
 -16   4  -8 8152.92 793.475   1
  -4  16  -8 8061.04 1153.02   2
  -4  16  -8 6875.97 1254.19   1
  12 -16  -8 7336.64 1458.12   2
  16 -12  -8 9313.57 1736.18   2
  16 -12  -8 8992.02 1623.71   4
   4  12  -5 7935.02 951.511   3
  -4  16  -5 6732.48 1000.30   1
   4  12  -5 7784.82 1098.57   1
   4  12  -5 7653.58 774.843   4
   4  12  -5 8963.74 1127.70   2
  16 -12  -5 7567.30 1293.27   2
  -4  16  -5 7761.57 845.632   2
  12 -16  -5 6772.14 1124.12   2
  12 -16  -5 7209.47 1143.29   4
 -16   4  -5 8293.00 552.512   1
  16 -12  -5 8551.54 1286.68   4
   4  12  -2 19339.1 691.831   4
  12 -16  -2 22328.7 1372.65   4
   4  12  -2 21536.7 1149.80   2
  16 -12  -2 22818.1 1416.99   2
   4  12  -2 18309.5 1207.46   1
  12 -16  -2 21804.9 1228.51   2
  -4  16  -2 22371.6 806.660   2
  -4  16  -2 21882.1 1308.12   1
   4  12  -2 22764.5 1376.31   3
  16 -12  -2 19177.5 1315.10   4
 -16   4  -2 21803.2 902.902   1
  16 -12   1 18561.5 1505.45   3
  -4  16   1 19366.5 1048.81   1
   4  12   1 21734.7 1192.43   2
  -4  16   1 21056.9 1081.45   2
  -4  16   1 19915.0 714.731   4
   4  12   1 18846.2 1400.32   3
   4  12   1 21040.2 1009.57   4
 -16   4   1 19471.6 1213.39   1
 -12  -4   1 20243.6 1329.18   3
  12 -16   1 19216.3 959.492   4
 -16   4   1 17136.8 1245.35   3
   4  12   1 19706.9 843.031   1
  16 -12   4 16505.3 1629.19   3
  -4  16   4 16076.2 1172.48   1
  12 -16   4 16385.0 1558.00   3
  12 -16   4 17194.9 1217.76   4
   4  12   4 18855.8 1640.10   3
  12 -16   4 17890.4 953.462   2
  -4  16   4 16950.4 1461.16   3
 -16   4   4 15051.7 795.100   3
   4  12   4 17884.3 901.167   1
  16 -12   4 16818.7 1210.54   2
  16 -12   7 29130.1 2421.58   3
  12 -16   7 28729.2 2231.73   3
  -4  16   7 29475.8 1943.23   1
  -4  16   7 29032.4 2176.02   3
   4  12   7 33933.5 2491.65   3
  16 -12  10 2731.97 1246.26   3
  12 -16  10 1108.97 1080.27   3
  -4  16  10 3075.62 1127.77   3
   4  12  10 4849.37 1382.91   3
 -11  -5  -9 6031.62 1205.07   2
 -11  -5  -9 6976.58 780.143   1
  11 -16  -9 4188.71 1325.80   4
  -5  16  -9 5773.85 1152.71   1
 -16   5  -9 6311.03 848.016   1
  16 -11  -9 5161.05 1445.47   4
  -5  16  -9 7586.05 1107.06   4
 -11  -5  -9 6065.46 1159.78   4
   5  11  -9 9705.48 1398.86   4
   5  11  -9 7383.29 1559.68   2
  16 -11  -9 7645.70 1673.62   2
  11 -16  -9 7329.26 1583.73   2
  -5  16  -9 5369.43 1088.03   2
   5  11  -6 45279.9 1939.45   3
   5  11  -6 45613.8 2093.07   4
  16 -11  -6 49878.1 2864.01   4
  -5  16  -6 44813.8 2356.38   1
  16 -11  -6 48664.8 2862.74   2
   5  11  -6 45363.9 2488.03   2
 -11  -5  -6 38261.7 696.019   1
  11 -16  -6 43585.0 2536.54   2
 -16   5  -6 48277.6 1497.22   1
  -5  16  -6 45406.4 1970.17   2
  11 -16  -6 43927.1 2711.29   4
   5  11  -3 1660.23 578.022   1
  16 -11  -3 1339.37 553.374   4
   5  11  -3 1755.95 538.140   2
  16 -11  -3 2082.73 684.804   2
  -5  16  -3 1779.84 318.733   2
   5  11  -3 1917.94 365.539   4
   5  11  -3 2082.42 511.660   3
 -16   5  -3 1592.20 300.831   1
  11 -16  -3 2476.31 634.703   2
  -5  16  -3 1756.62 519.857   1
  11 -16  -3 2449.28 681.164   4
  16 -11   0 53411.5 2291.96   3
  16 -11   0 49985.0 1659.76   2
  11 -16   0 49759.6 1517.64   4
   5  11   0 53686.0 1327.26   4
   5  11   0 49239.6 1422.52   1
 -16   5   0 50181.0 1740.27   1
 -11  -5   0 50321.7 2118.54   3
   5  11   0 52238.8 2171.36   3
  11 -16   0 46444.6 1019.90   2
  -5  16   0 51325.1 1265.02   2
 -16   5   0 50464.4 2167.92   3
  -5  16   0 51942.5 1698.59   1
  16 -11   0 48076.6 1641.54   1
  16 -11   3 10256.6 875.484   2
   5  11   3 13769.8 646.900   1
  -5  16   3 12345.4 976.820   4
  16 -11   3 12114.5 1015.21   1
   5  11   3 14025.3 1142.12   4
  -5  16   3 11579.9 1099.71   2
  11 -16   3 12382.0 899.321   4
   5  11   3 11523.5 1263.08   3
  -5  16   3 13896.2 1001.82   1
 -16   5   3 13129.6 881.934   3
  11 -16   3 10924.1 492.752   2
 -16   5   3 10369.4 1131.93   1
  16 -11   3 11199.5 1340.97   3
  16 -11   6 1963.91 972.703   3
  11 -16   6 2201.76 882.427   3
  -5  16   6 1625.82 644.926   3
  11 -16   6 2642.54 689.097   2
   5  11   6 2554.47 937.599   3
  -5  16   6 2124.75 684.695   1
  16 -11   9 3764.50 1255.40   3
  11 -16   9 2836.45 1024.34   3
   5  11   9 5022.12 1306.84   3
  -5  16   9 5640.63 1306.21   3
 -16   6 -10 45848.8 2164.01   1
 -10  -6 -10 49265.3 2900.63   2
  -6  16 -10 50684.9 3132.08   1
 -10  -6 -10 45969.0 2943.42   4
  16 -10 -10 50569.4 3760.64   4
   6  10 -10 51871.4 3551.69   2
  16 -10 -10 46690.5 3619.11   2
   6  10 -10 50332.3 3065.95   4
  -6  16 -10 49110.3 2575.01   4
  10 -16 -10 48452.7 3408.68   2
  -6  16 -10 48773.2 2786.96   2
  10 -16 -10 54314.4 3728.46   4
  16 -10  -7 925.352 889.032   4
   6  10  -7-426.224 822.401   2
 -10  -6  -7 82.1130 265.233   1
   6  10  -7-240.023 534.892   4
  10 -16  -7-157.172 804.865   4
  -6  16  -7 569.422 629.924   1
 -10  -6  -7-128.652 566.698   4
  -6  16  -7-161.444 397.595   4
  16 -10  -7-315.728 839.188   2
   6  10  -7-82.6784 512.771   3
 -16   6  -7-202.984 362.449   1
  10 -16  -7-1019.01 935.572   2
  -6  16  -7 353.957 571.415   2
 -10  -6  -7 220.883 235.532   1
  10 -16  -4 135890. 3869.47   4
  16 -10  -4 135882. 4055.34   2
  16 -10  -4 136130. 4083.92   4
   6  10  -4 139851. 3652.65   2
  -6  16  -4 136608. 3546.08   1
   6  10  -4 139573. 3058.10   3
  10 -16  -4 134196. 3598.63   2
  -6  16  -4 140599. 2388.79   2
   6  10  -4 136684. 2938.29   4
 -16   6  -4 139100. 2268.10   1
  16 -10  -1 31941.8 1707.38   3
   6  10  -1 33457.5 918.330   4
  16 -10  -1 32102.2 1514.42   2
   6  10  -1 34394.7 1425.79   1
   6  10  -1 32678.3 1640.42   3
  16 -10  -1 34167.5 1592.19   4
  10 -16  -1 33204.3 1130.11   2
  -6  16  -1 34096.1 1470.90   1
  10 -16  -1 33236.6 1399.09   4
 -16   6  -1 34139.5 1288.31   1
  -6  16   2 176072. 2793.37   4
 -16   6   2 167857. 3825.15   1
   6  10   2 174043. 1902.99   1
   6  10   2 175370. 3439.93   4
   6  10   2 175887. 4297.43   3
  -6  16   2 177801. 3291.41   1
  16 -10   2 174505. 3257.48   1
  -6  16   2 178873. 3430.50   2
 -16   6   2 169980. 3421.48   3
  16 -10   2 178918. 4495.18   3
  16 -10   5 2206.82 959.752   3
  10 -16   5 1764.23 499.333   2
  -6  16   5 1610.05 564.343   1
  10 -16   5 1593.61 612.752   4
  -6  16   5 821.245 549.248   3
 -16   6   5 1190.93 215.443   3
   6  10   5 1460.65 739.112   3
  10 -16   8 61697.6 3052.19   3
  -6  16   8 68742.9 3194.40   3
   6  10   8 71252.3 3640.20   3
  16 -10   8 60671.8 3371.91   3
  16 -10  11 4308.49 1444.59   3
  -6  16  11 3803.26 1300.56   3
   6  10  11 4604.92 1589.90   3
  -9  -7 -11 2462.62 1081.94   2
 -16   7 -11 3571.04 1024.00   2
  16  -9 -11 3959.96 1712.09   2
   9 -16 -11 2760.96 1466.30   2
  16  -9 -11 4120.92 1748.47   4
  -7  16 -11 703.863 857.379   1
   9 -16 -11 3124.56 1639.46   4
  -7  16 -11 1647.47 806.441   4
   7   9 -11 2970.45 1202.34   4
 -16   7 -11 1762.15 743.282   1
   7   9 -11 3212.35 1615.73   2
  -9  -7 -11 2837.01 1165.30   4
  -7  16 -11 2049.47 1095.73   2
  -9  -7  -8 10879.2 1382.19   2
  16  -9  -8 9086.02 1555.12   4
   7   9  -8 5893.43 589.036   3
   7   9  -8 11274.2 1639.85   2
 -16   7  -8 8373.35 868.792   1
   7   9  -8 11481.5 1456.47   4
  -7  16  -8 10287.0 1055.61   4
  16  -9  -8 6801.87 1573.55   2
  -7  16  -8 9945.39 1310.72   1
  -9  -7  -8 9069.52 1292.65   4
   9 -16  -8 10522.1 1648.63   2
  -7  16  -8 9722.21 1177.62   2
   9 -16  -8 11225.9 1664.80   4
   7   9  -5 31728.5 2007.79   2
   7   9  -5 29773.9 1393.34   3
  16  -9  -5 30203.3 2135.63   2
   7   9  -5 31577.0 1690.93   4
  -7  16  -5 30598.8 1826.66   1
   9 -16  -5 33406.6 2138.59   4
   7   9  -5 32906.2 1427.09   3
   9 -16  -5 30906.4 1922.48   2
  16  -9  -5 31391.0 2132.82   4
 -16   7  -5 31716.8 1249.77   1
  -7  16  -5 33969.2 1386.78   2
  -9  -7  -5 30813.8 1683.65   4
  -7  16  -2 62988.8 2100.66   1
  16  -9  -2 58831.6 2098.02   3
   7   9  -2 55181.2 2044.29   1
  16  -9  -2 61334.7 2258.82   4
   7   9  -2 58398.9 1499.02   4
   7   9  -2 55690.0 1950.45   2
 -16   7  -2 60061.5 1567.59   1
   7   9  -2 59020.8 2079.70   3
  16  -9  -2 54152.0 2195.72   2
   9 -16  -2 60528.2 1823.32   2
   9 -16  -2 59599.2 2097.91   4
  -7  16   1 43118.2 1605.61   1
  -7  16   1 40973.2 1315.69   2
 -16   7   1 36328.6 1622.97   1
  -7  16   1 41653.4 1131.65   4
   7   9   1 42290.1 1473.50   4
   7   9   1 42026.4 1005.68   1
   7   9   1 41434.7 2044.44   3
  16  -9   1 40167.6 1443.83   1
   9 -16   1 39938.4 1114.87   4
 -16   7   1 43440.7 1927.29   3
  16  -9   1 40653.1 2078.78   3
  -9  -7   4 74696.4 1867.00   4
  -7  16   4 79679.3 2633.52   1
 -16   7   4 73296.4 2948.71   1
   9 -16   4 75736.3 2307.90   4
   7   9   4 82630.8 3281.59   3
 -16   7   4 76026.9 1871.23   3
   9 -16   4 72164.1 1520.62   2
  16  -9   4 74958.8 2408.79   1
  16  -9   4 76805.8 3274.97   3
  16  -9   7 159.007 832.613   3
   7   9   7 395.153 832.148   3
  -7  16   7 2155.09 831.282   3
  -7  16   7 1768.29 811.825   1
  -7  16  10 16950.4 1798.82   3
   7   9  10 14652.6 1996.82   3
   8   8  -9 2042.51 1208.59   2
  16  -8  -9 2298.77 1117.37   4
  -8  -8  -9 1747.38 862.402   2
   8 -16  -9 2525.08 1124.03   4
  -8  16  -9 2007.45 874.638   1
   8   8  -9 3101.46 1022.03   4
  -8  -8  -9 3273.75 1009.03   4
 -16   8  -9 1994.09 672.066   1
  16  -8  -9 2112.46 1205.57   2
  -8  16  -9 1586.90 680.498   4
   8 -16  -9 2655.06 1240.52   2
  -8  16  -9 2632.23 885.651   2
   8   8  -6 28441.4 1250.15   3
  -8  -8  -6 27807.2 814.617   1
  -8  -8  -6 30645.8 1822.78   2
   8 -16  -6 25604.6 2006.31   4
   8   8  -6 25202.5 1986.58   2
  16  -8  -6 28113.2 2163.24   4
   8   8  -6 27228.0 1789.98   4
  -8  16  -6 29200.5 1864.86   1
  16  -8  -6 27773.3 2280.21   2
   8   8  -6 28965.3 1194.60   3
 -16   8  -6 27135.7 1326.55   1
  -8  -8  -6 26541.4 1752.26   4
   8 -16  -6 25392.5 1920.38   2
  -8  16  -6 26150.5 1398.77   2
  16  -8  -3 789.025 652.735   2
  16  -8  -3 653.455 408.993   3
   8 -16  -3 1145.31 548.410   4
  16  -8  -3 132.500 456.774   4
 -16   8  -3 480.947 270.163   1
   8   8  -3 301.483 414.754   2
   8   8  -3 123.178 376.606   3
  -8  16  -3-137.184 410.350   1
   8 -16  -3 885.145 446.929   2
   8   8  -3 428.584 308.585   4
  16  -8   0-391.718 526.573   3
  -8  16   0-118.353 322.390   1
   8 -16   0 605.304 274.129   4
  -8  16   0 241.747 104.931   2
   8   8   0 368.685 258.175   1
 -16   8   0 525.852 364.434   1
 -16   8   0 8.84698 556.449   3
  16  -8   0 225.804 270.170   1
   8   8   0 754.598 577.338   3
  16  -8   3 347.757 709.239   3
  -8  16   3 360.676 313.024   4
 -16   8   3 546.530 553.615   1
  16  -8   3 427.255 363.319   1
   8   8   3 441.848 484.847   4
   8 -16   3 1136.33 379.257   4
  -8  16   3 165.042 450.672   2
  -8  16   3 577.135 398.879   1
 -16   8   3 566.211 400.637   3
   8   8   3 1438.49 730.456   3
  -8  16   6 28815.7 1941.32   1
   8   8   6 31671.7 2332.02   3
  -8  16   6 25568.2 1709.66   3
   8 -16   6 27301.1 1447.15   2
  16  -8   6 30128.6 2294.07   3
  16  -8   9 1507.06 1038.16   3
  -8  16   9 2245.00 967.464   3
   8   8   9 1785.85 1107.96   3
  -7  -9 -10 11302.3 1598.14   2
 -16   9 -10 11539.4 1499.79   2
  -9  16 -10 10963.8 1544.01   1
   7 -16 -10 11888.3 1823.59   4
   9   7 -10 12763.3 2078.07   2
   9   7 -10 11785.0 1706.63   4
 -16   9 -10 14523.3 1379.66   1
  16  -7 -10 9827.72 1877.56   4
  16  -7 -10 11161.0 2169.33   2
   7 -16 -10 14798.5 1936.48   2
  -9  16 -10 12092.9 1493.44   2
  -7  -9 -10 11962.8 1696.26   4
  -9  16  -7 1783.87 666.003   2
  -7  -9  -7 3521.40 960.090   2
  16  -7  -7 2338.45 973.738   4
   9   7  -7 1793.87 707.136   4
  -9  16  -7 993.147 721.480   1
   7 -16  -7 3004.35 998.793   4
   9   7  -7 2397.63 1001.35   2
  -7  -9  -7 2851.42 798.155   4
  -7  -9  -7 1621.62 349.698   1
 -16   9  -7 1726.47 492.426   1
   9   7  -7 831.449 251.417   3
  16  -7  -7 3156.97 1080.72   2
   7 -16  -7 1961.69 806.356   2
   9   7  -7 876.529 257.112   3
  -9  16  -4 73289.6 1383.51   2
   7 -16  -4 78809.9 2846.23   4
  -7  -9  -4 75112.3 2326.19   4
  16  -7  -4 78984.6 3042.85   4
   9   7  -4 80693.7 2978.42   2
   9   7  -4 78534.3 2428.00   4
  -9  16  -4 78173.3 2614.70   1
  16  -7  -4 78273.9 3091.10   2
   7 -16  -4 74765.4 2581.78   2
 -16   9  -4 73574.6 1906.31   1
   9   7  -4 80218.1 2106.80   3
   7 -16  -1 42217.9 1100.02   2
   9   7  -1 42033.0 1293.41   4
 -16   9  -1 38739.5 1430.48   1
  16  -7  -1 42276.7 1746.98   2
   7 -16  -1 41577.1 1473.85   4
  16  -7  -1 37834.9 1720.15   4
  16  -7  -1 38147.7 1439.58   1
   9   7  -1 43368.8 1881.33   3
  -9  16  -1 40664.9 1580.86   1
  16  -7  -1 40598.5 1834.21   3
  -9  16   2 49787.5 1507.56   4
  -9  16   2 48281.1 1687.48   2
  -9  16   2 49142.6 1845.82   1
   9   7   2 50872.6 1886.25   4
   7 -16   2 51542.0 1258.54   4
 -16   9   2 50333.8 2114.13   1
  16  -7   2 49612.1 1573.53   1
   9   7   2 54180.6 2441.35   3
 -16   9   2 53189.4 1986.09   3
  16  -7   2 52186.2 2450.41   3
  -7  -9   5 30918.5 1300.75   4
   7 -16   5 31139.9 1235.30   2
   7 -16   5 27804.4 1553.77   4
  -9  16   5 31481.6 1888.04   1
  -9  16   5 29086.0 1727.88   3
 -16   9   5 28764.3 2012.76   1
   9   7   5 29627.8 2135.90   3
 -16   9   5 30812.6 1228.16   3
  16  -7   5 31315.0 2242.71   3
  -9  16   8 9648.44 1264.92   3
   9   7   8 9174.13 1664.06   3
  16  -7   8 9182.02 1576.55   3
  16  -7  11 961.134 1243.58   3
   9   7  11 3480.03 1467.04   3
 -10  16 -11 3690.13 1111.91   2
  -6 -10 -11 5023.37 1358.99   2
 -16  10 -11 2088.13 899.242   2
  16  -6 -11 4679.87 1677.04   4
  10   6 -11 1613.03 1360.84   2
 -16  10 -11 4033.29 965.189   1
  10   6 -11 1805.60 1139.69   4
   6 -16 -11 5026.24 1711.24   4
 -10  16 -11 3677.94 1135.82   1
  16  -6 -11 2564.33 1525.43   2
  -6 -10 -11 4717.99 1386.23   4
   6 -16 -11 3155.60 1376.30   2
  -6 -10  -8 69522.7 3107.95   2
  16  -6  -8 65124.4 3686.46   4
  10   6  -8 73263.7 3404.35   4
 -10  16  -8 70286.1 3140.27   1
   6 -16  -8 65302.9 3503.42   4
  10   6  -8 68323.2 3723.97   2
 -16  10  -8 68102.1 2556.12   1
  -6 -10  -8 59185.6 2969.35   4
  16  -6  -8 69502.6 3908.08   2
 -10  16  -8 66934.3 2551.40   2
   6 -16  -8 62788.1 3245.29   2
 -10  16  -5 3270.29 765.501   1
  16  -6  -5 3316.55 914.518   4
 -10  16  -5 2235.57 412.183   2
  10   6  -5 2257.41 677.230   4
  16  -6  -5 3244.20 977.451   2
  -6 -10  -5 2490.95 607.026   4
   6 -16  -5 2954.37 794.324   4
  10   6  -5 3939.03 974.703   2
  10   6  -5 3002.74 505.409   3
 -16  10  -5 3078.53 558.844   1
  -6 -10  -5 3117.08 309.212   1
   6 -16  -5 2420.37 722.089   2
  10   6  -2 170689. 2928.72   4
 -16  10  -2 172714. 2913.71   1
  16  -6  -2 176365. 3821.42   2
   6 -16  -2 168915. 3264.60   4
  10   6  -2 174522. 3498.82   3
  16  -6  -2 155283. 3197.63   1
  10   6  -2 171970. 3624.93   2
 -10  16  -2 162188. 3268.66   1
  16  -6  -2 166410. 3742.14   4
   6 -16  -2 181928. 2908.02   2
  16  -6  -2 175998. 3480.59   3
 -16  10   1 29668.2 1501.01   1
   6 -16   1 34839.0 865.556   4
 -10  16   1 34522.5 1101.04   2
 -10  16   1 33892.8 1509.71   1
  10   6   1 34535.2 802.253   1
  10   6   1 32866.9 878.309   1
  10   6   1 35315.4 1375.20   4
  16  -6   1 34763.1 1208.08   1
 -16  10   1 34046.8 1775.63   3
  16  -6   1 33788.8 1907.59   3
  10   6   1 34973.8 1915.54   3
 -10  16   4 136472. 3616.52   1
  -6 -10   4 131505. 2189.18   4
   6 -16   4 141706. 2838.79   4
   6 -16   4 131912. 1864.81   2
 -16  10   4 128793. 3893.44   1
  10   6   4 141283. 4303.83   3
  16  -6   4 122242. 4057.82   3
 -16  10   4 136071. 2853.00   3
  16  -6   4 135959. 2866.58   1
 -10  16   7 548.938 650.746   3
 -10  16   7-228.398 669.928   1
  10   6   7 287.419 978.553   3
 -16  10   7-128.714 162.171   3
  16  -6   7-64.2334 838.060   3
 -10  16  10 50170.9 2658.76   3
  10   6  10 55115.4 3608.80   3
  16  -6  10 45372.7 3314.36   3
  16  -5  -9 5513.71 1465.93   2
  -5 -11  -9 4218.00 1035.04   2
  11   5  -9 7112.61 1415.06   4
  16  -5  -9 5047.00 1347.04   4
   5 -16  -9 4622.80 1320.69   4
 -16  11  -9 6641.43 988.989   1
  -5 -11  -9 3798.58 1108.84   4
  11   5  -9 5171.02 1376.50   2
 -11  16  -9 5644.95 1064.05   1
 -11  16  -9 5001.60 961.118   2
   5 -16  -9 4691.61 1395.65   2
  11   5  -6 589.157 184.276   3
  11   5  -6 1640.49 771.861   4
 -11  16  -6 2015.61 542.358   2
  -5 -11  -6 1047.53 299.993   1
  -5 -11  -6 1518.78 633.182   2
  16  -5  -6 539.478 702.370   4
   5 -16  -6 777.554 683.780   4
  11   5  -6 997.749 932.921   2
  16  -5  -6 410.115 870.203   2
  -5 -11  -6 719.978 666.449   4
 -11  16  -6 829.435 598.339   1
 -16  11  -6 1219.51 442.843   1
  11   5  -6 704.197 188.409   3
   5 -16  -6 586.770 648.346   2
  16  -5  -3 13614.7 925.659   3
  11   5  -3 11886.4 937.051   3
  11   5  -3 13281.2 1021.34   4
   5 -16  -3 11619.4 1054.90   4
  -5 -11  -3 14234.2 649.875   1
  16  -5  -3 14778.0 1330.75   2
  -5 -11  -3 13530.7 928.475   4
 -11  16  -3 13915.3 1062.92   1
  11   5  -3 11846.8 1119.88   2
  16  -5  -3 13109.3 1233.92   4
   5 -16  -3 13958.7 1025.58   2
 -16  11  -3 13637.0 890.790   1
  11   5   0 56352.7 2274.71   3
 -11  16   0 54227.0 1865.48   1
  16  -5   0 56284.3 1545.00   1
 -16  11   0 52130.0 1789.94   1
  11   5   0 53259.3 1462.32   1
 -16  11   0 53066.8 2300.20   3
  16  -5   0 53035.3 2221.25   3
   5 -16   0 51932.7 1210.51   4
 -16  11   3 1042.55 442.324   3
 -11  16   3 1423.39 538.173   2
  16  -5   3 1305.17 356.313   1
   5 -16   3 1334.69 310.072   4
 -11  16   3 1210.99 487.211   1
 -16  11   3 1427.74 577.561   1
  11   5   3 2460.81 834.184   3
  16  -5   3 626.048 681.764   3
 -16  11   6 39997.9 2561.76   1
   5 -16   6 42368.8 1648.41   2
  -5 -11   6 38347.3 1628.19   4
 -11  16   6 47097.2 2547.17   1
   5 -16   6 40541.2 1957.17   4
 -11  16   6 45562.2 2099.13   3
  11   5   6 50150.6 2887.18   3
  16  -5   6 43173.9 2744.87   3
 -16  11   6 45188.0 1495.61   3
  16  -5   9 8159.97 1614.62   3
 -11  16   9 8561.48 1241.45   3
  11   5   9 6166.25 1547.33   3
   4 -16 -10 3931.65 1439.60   2
  16  -4 -10 7124.14 1727.73   4
 -12  16 -10 3624.09 940.736   2
  12   4 -10 5165.88 1411.82   4
  -4 -12 -10 6491.53 1316.15   2
 -16  12 -10 4743.48 1000.68   2
 -12  16 -10 6482.01 1196.76   1
   4 -16 -10 4188.54 1215.77   4
  -4 -12 -10 5122.62 1336.01   4
  16  -4 -10 7770.80 1889.78   2
 -16  12 -10 5398.59 982.402   1
  12   4 -10 3912.72 1412.04   2
 -12  16  -7 28829.0 1500.42   2
  -4 -12  -7 30400.8 2011.62   2
  -4 -12  -7 26145.0 1185.92   1
  16  -4  -7 29382.6 2406.18   4
  12   4  -7 27031.0 2317.62   2
   4 -16  -7 27802.3 2144.89   4
  16  -4  -7 27403.5 2424.84   2
 -12  16  -7 29623.3 1914.44   1
  -4 -12  -7 28487.2 2046.99   4
  12   4  -7 26746.5 2057.36   4
 -16  12  -7 29875.5 1694.60   1
   4 -16  -7 32396.1 2162.73   2
  16  -4  -4 15807.2 812.351   3
  16  -4  -4 17167.4 1486.55   4
  16  -4  -4 17911.7 1568.79   2
   4 -16  -4 17011.1 1360.30   4
  -4 -12  -4 16634.4 1184.77   4
 -12  16  -4 16371.4 1225.19   1
  -4 -12  -4 17896.7 774.939   1
  12   4  -4 18216.5 1017.22   3
 -16  12  -4 17127.2 1061.71   1
  12   4  -4 14703.9 1185.29   4
  12   4  -4 19365.2 1613.25   2
   4 -16  -4 18023.8 1281.33   2
  16  -4  -1 16972.9 1246.01   2
  16  -4  -1 17297.3 1158.65   4
  -4 -12  -1 18100.9 988.705   1
 -16  12  -1 16643.4 986.521   1
  12   4  -1 18709.5 1061.86   1
   4 -16  -1 21293.3 942.795   4
  12   4  -1 17157.7 972.230   4
   4 -16  -1 20053.6 1139.22   1
  16  -4  -1 19736.6 1050.20   1
  12   4  -1 19307.7 1311.44   3
  16  -4  -1 17411.7 1275.70   3
 -12  16  -1 18210.6 1102.18   1
 -16  12   2 17210.6 1277.87   1
 -12  16   2 16521.5 993.916   2
  16  -4   2 16262.4 794.315   1
 -12  16   2 16072.8 1173.79   1
  12   4   2 15942.1 1470.58   3
 -12  16   2 15991.1 962.585   4
  16  -4   2 17492.0 1515.97   3
 -16  12   2 15866.3 1229.49   3
   4 -16   5 5917.76 589.327   2
  -4 -12   5 7021.01 624.008   4
   4 -16   5 6854.14 735.000   4
 -16  12   5 8286.16 1241.16   1
 -12  16   5 7142.27 1088.32   1
  12   4   5 9611.09 1372.02   3
  16  -4   5 6954.00 1251.69   3
 -16  12   5 6814.62 789.152   3
 -12  16   8 5745.45 965.275   3
 -16  12   8 3403.87 445.538   3
  12   4   8 4946.39 1378.04   3
  16  -4   8 5396.15 1351.12   3
  16  -4  11 3589.21 1471.89   3
  12   4  11 2108.70 1437.73   3
   3 -16 -11-723.833 1303.11   2
  -3 -13 -11-583.104 1179.98   2
 -13  16 -11 1181.07 845.342   2
 -16  13 -11 1459.46 945.578   2
  16  -3 -11-1262.04 1454.89   2
  16  -3 -11 41.0809 1321.68   4
  13   3 -11 365.171 1213.43   4
   3 -16 -11 676.439 1138.82   4
 -13  16 -11 714.554 781.433   1
 -16  13 -11 757.568 740.535   1
  13   3 -11 765.364 1428.60   2
  -3 -13 -11-536.607 1020.13   4
  -3 -13  -8 134369. 4349.30   2
 -13  16  -8 138386. 3485.84   2
  13   3  -8 126857. 4692.77   4
 -16  13  -8 128448. 3665.18   1
   3 -16  -8 133076. 4789.85   4
  13   3  -8 132742. 5273.38   2
  16  -3  -8 130844. 5307.16   2
  -3 -13  -8 129784. 4473.27   4
  16  -3  -8 118042. 4816.49   4
 -13  16  -8 130962. 4074.64   1
   3 -16  -8 128294. 4384.33   2
  -3 -13  -5 1855.85 355.095   1
   3 -16  -5 2893.96 717.487   2
  -3 -13  -5 2532.70 722.887   2
  16  -3  -5 1405.55 782.996   4
  13   3  -5 1035.59 612.172   4
  13   3  -5 2866.76 870.217   2
  16  -3  -5 2611.75 959.465   2
  -3 -13  -5 1816.24 660.834   4
 -13  16  -5 2416.74 622.429   1
   3 -16  -5 2464.28 727.963   4
  13   3  -5 2223.27 344.254   3
 -16  13  -5 2311.56 583.653   1
  16  -3  -2 139152. 3062.73   1
 -16  13  -2 146408. 2928.11   1
  13   3  -2 153461. 3613.61   2
  16  -3  -2 140152. 3333.79   4
  13   3  -2 146108. 3057.62   4
  -3 -13  -2 146068. 2534.43   1
   3 -16  -2 143907. 2844.13   4
  13   3  -2 154540. 3356.96   3
  13   3  -2 139886. 3221.19   1
   3 -16  -2 146609. 2876.50   1
  16  -3  -2 145503. 3667.92   2
 -13  16  -2 147458. 3101.17   1
  16  -3  -2 144651. 3264.20   3
 -16  13   1 1282.48 601.445   3
 -16  13   1 612.320 371.596   1
 -13  16   1 1356.99 309.821   2
  13   3   1 766.770 600.880   3
  16  -3   1 898.035 260.280   1
  13   3   1 1132.98 188.778   1
 -13  16   1 920.665 451.996   1
  16  -3   1 1882.21 665.737   3
 -16  13   4 183276. 3749.69   3
  -3 -13   4 200546. 2301.32   4
 -13  16   4 192156. 4451.79   1
   3 -16   4 202111. 2756.04   4
  13   3   4 197582. 5169.08   3
 -16  13   4 200739. 4803.85   1
  16  -3   4 188492. 5099.49   3
 -16  13   7 1545.97 536.516   3
 -16  13   7 922.052 415.537   3
 -13  16   7 2369.11 649.211   3
 -13  16   7 2617.01 928.751   1
  16  -3   7 881.053 980.232   3
  13   3  10 49112.2 3521.61   3
  16  -3  10 45774.4 3338.35   3
   2 -16  -9 5697.75 1354.37   4
 -14  16  -9 7198.26 1044.58   2
   2 -16  -9 5047.55 1240.31   2
  -2 -14  -9 3863.45 1105.11   2
  16  -2  -9 6375.53 1504.24   4
  16  -2  -9 5295.20 1555.17   2
 -14  16  -9 6026.81 1072.63   1
 -16  14  -9 7483.34 1131.01   1
  -2 -14  -9 5917.77 1258.78   4
  14   2  -9 4763.46 1482.68   2
  14   2  -9 4345.00 1330.76   4
  -2 -14  -6 12287.4 816.290   1
  -2 -14  -6 14539.3 1385.03   2
 -16  14  -6 13266.0 1158.16   1
  14   2  -6 12273.4 1438.97   4
  16  -2  -6 13128.7 1557.96   4
  14   2  -6 15140.2 1765.60   2
   2 -16  -6 14971.1 1478.22   4
  -2 -14  -6 15378.0 1437.73   4
 -14  16  -6 13782.5 1239.39   1
  16  -2  -6 12613.5 1707.11   2
   2 -16  -6 12825.5 1293.96   2
  16  -2  -3 37922.8 1983.13   4
  14   2  -3 41682.1 1870.33   4
   2 -16  -3 40768.6 1606.89   2
  14   2  -3 38739.3 2074.54   2
   2 -16  -3 38756.2 1481.99   1
  16  -2  -3 41551.3 1629.32   3
  -2 -14  -3 42260.1 1350.66   1
 -14  16  -3 37430.5 1673.10   1
  14   2  -3 44626.6 1717.38   3
 -16  14  -3 38848.4 1599.40   1
  16  -2  -3 44772.6 2279.90   2
   2 -16  -3 40103.2 1720.91   4
  -2 -14  -3 37574.7 1555.12   4
  14   2   0 25207.4 985.620   1
  -2 -14   0 25132.0 1370.67   1
   2 -16   0 25539.9 1378.93   1
 -14  16   0 26939.9 1372.24   1
 -16  14   0 26540.3 1332.96   1
  16  -2   0 25509.4 1024.56   1
  14   2   0 25884.0 1624.32   3
  16  -2   0 26734.4 1665.53   3
 -16  14   3 13021.1 1155.85   3
 -14  16   3 13550.2 1218.14   1
 -14  16   3 14211.5 1100.33   2
 -16  14   3 15492.3 1323.79   1
  16  -2   3 13519.8 642.450   1
  14   2   3 14530.6 1445.32   3
  16  -2   3 16346.1 1641.05   3
 -14  16   6 5180.90 1057.09   1
 -16  14   6 5148.02 793.951   3
  -2 -14   6 5084.91 687.772   4
   2 -16   6 5639.02 769.521   4
   2 -16   6 2547.68 587.001   2
 -16  14   6 5957.87 1073.15   1
  14   2   6 7307.04 1410.08   3
  16  -2   6 6055.55 1307.00   3
 -14  16   6 4914.81 777.192   3
 -14  16   9 11579.3 1213.07   3
  14   2   9 12549.1 1957.76   3
  16  -2   9 14671.8 2025.94   3
  -1 -15 -10 6535.03 1411.26   2
 -15  16 -10 6834.23 1117.50   2
   1 -16 -10 3486.55 1159.07   2
 -16  15 -10 1730.74 796.195   2
  16  -1 -10 5942.04 1547.04   4
  15   1 -10 5814.86 1556.59   4
 -15  16 -10 5896.83 1141.90   1
  16  -1 -10 4068.87 1578.11   2
   1 -16 -10 3831.54 1286.84   4
  -1 -15 -10 6243.77 1431.87   4
 -16  15 -10 4068.40 965.143   1
  15   1 -10 4420.81 1600.56   2
  -1 -15  -7 5217.90 1036.65   2
   1 -16  -7 4780.81 1028.24   2
  15   1  -7 5259.52 1160.97   4
  16  -1  -7 5339.11 1217.54   4
  15   1  -7 3128.34 1106.49   2
   1 -16  -7 3691.59 988.479   4
  16  -1  -7 5969.70 1342.31   2
  -1 -15  -7 4687.56 1062.28   4
 -15  16  -7 6215.16 967.395   1
 -16  15  -7 4915.51 853.522   1
  16  -1  -4 947.832 398.262   3
  16  -1  -4 1419.43 656.617   4
   1 -16  -4 580.015 469.109   2
  -1 -15  -4 984.312 483.641   2
  15   1  -4 443.700 528.079   4
  15   1  -4 926.103 787.889   2
  16  -1  -4 423.143 710.401   2
  -1 -15  -4 482.513 404.725   4
   1 -16  -4 1832.32 594.581   4
  -1 -15  -4 406.544 308.182   1
 -15  16  -4 900.641 452.347   1
  15   1  -4 548.207 395.929   3
   1 -16  -4 937.649 391.702   1
 -16  15  -4 338.461 365.482   1
  -1 -15  -1 23040.5 1192.93   1
  16  -1  -1 23799.4 1479.19   2
 -15  16  -1 22388.0 1284.23   1
   1 -16  -1 22923.4 1275.73   1
  16  -1  -1 22523.2 1284.74   4
 -16  15  -1 23022.7 1264.63   1
   1 -16  -1 22961.8 789.570   4
  15   1  -1 23316.6 1483.59   3
  15   1  -1 23510.0 1266.53   4
  16  -1  -1 24323.0 1535.11   3
  15   1  -1 22924.9 1161.56   1
  16  -1  -1 23712.3 1170.97   1
 -16  15   2 597.476 354.054   2
 -15  16   2-81.5754 432.513   1
 -15  16   2 1049.48 388.577   2
 -16  15   2 927.858 523.529   1
  15   1   2 641.015 122.236   1
  16  -1   2 799.797 208.787   1
  15   1   2 1827.78 712.227   3
  16  -1   2 2181.28 788.084   3
 -15  16   5 3793.51 958.206   1
 -16  15   5 1922.67 633.703   3
  -1 -15   5 2367.04 417.229   4
   1 -16   5 2085.99 448.763   4
 -16  15   5 2098.27 814.794   1
  15   1   5 2726.73 1042.21   3
  16  -1   5 1040.72 940.925   3
 -15  16   8 866.782 599.673   3
 -16  15   8 287.783 492.582   3
  15   1   8 1378.88 1170.89   3
  16  -1   8-167.682 979.722   3
  15   1  11 3719.57 1591.85   3
  16  -1  11 2146.50 1475.55   3
   0 -16 -11 1156.00 1056.01   2
 -16  16 -11 1005.98 831.079   2
  16   0 -11 1107.11 1236.62   4
   0 -16 -11-381.097 1107.40   4
  16   0 -11-430.137 1477.19   2
 -16  16 -11 557.176 891.838   1
   0 -16  -8 47224.1 2683.13   2
  16   0  -8 43461.8 2916.95   4
  16   0  -8 40241.3 3026.85   2
   0 -16  -8 48611.3 2894.49   4
 -16  16  -8 43371.4 2288.33   1
   0 -16  -5 88.7359 318.943   1
  16   0  -5 245.258 194.228   3
   0 -16  -5 692.665 538.038   2
  16   0  -5 467.017 686.444   4
  16   0  -5-238.548 821.474   2
   0 -16  -5-722.973 570.621   4
 -16  16  -5-108.196 442.821   1
 -16  16  -2 262861. 4159.85   1
  16   0  -2 250120. 4445.68   4
   0 -16  -2 265112. 3422.08   4
   0 -16  -2 261351. 3821.57   1
  16   0  -2 275391. 4696.18   3
  16   0  -2 237893. 4161.82   1
  16   0  -2 271735. 5072.87   2
  16   0   1 233.261 195.836   1
  16   0   1 179.907 688.285   3
 -16  16   1-300.898 369.766   1
 -16  16   4 108762. 3597.16   1
  16   0   4 105337. 3954.32   3
   0 -16   4 113994. 1407.57   4
 -16  16   7-291.272 836.993   1
 -16  16   7 460.613 543.619   3
  16   0   7-1153.97 988.850   3
  16   0  10 39730.8 3327.03   3
   0  17 -11 493.568 1071.41   1
  17 -17 -11 1137.40 1542.56   4
  17 -17 -11 2352.38 1518.34   2
   0  17 -11 601.576 1102.57   2
  17 -17  -8 15544.3 2106.94   4
   0  17  -8 13966.7 1251.02   4
   0  17  -8 13252.7 1676.96   1
   0  17  -8 10676.7 1484.00   2
  17 -17  -8 11432.1 1906.56   2
  17 -17  -5 724.049 733.427   2
  17 -17  -5 68.1616 728.128   4
   0  17  -5 139.272 222.724   4
   0  17  -5-78.8018 608.610   1
   0  17  -5-128.675 535.809   2
   0  17  -2 28699.0 1223.42   2
  17 -17  -2 25108.9 1567.58   4
   0  17  -2 30869.6 1604.46   1
  17 -17  -2 28803.9 1643.64   2
   0  17   1 28.1244 409.551   2
  17 -17   1 397.649 636.441   3
   0  17   1 36.4780 287.585   1
   0  17   1 4.80984 183.416   4
   0  17   1-76.3857 541.508   3
  17 -17   1 89.5004 287.356   2
  17 -17   4 685.077 763.538   3
  17 -17   4 179.234 458.703   2
   0  17   4 481.840 687.812   3
   0  17   4 497.215 377.052   1
  17 -17   7 511.758 964.145   3
   0  17   7-943.806 848.716   3
  17 -17  10 7791.54 1693.54   3
   0  17  10 8214.15 1688.85   3
  17 -16  -9 5854.28 1541.26   4
  17 -16  -9 6330.91 1771.89   2
   1  16  -9 4595.55 1273.74   1
  -1  17  -9 5587.15 1244.04   1
   1  16  -9 5708.50 1024.69   4
  -1  17  -9 6045.98 1026.51   4
   1  16  -9 5018.76 1198.57   2
  -1  17  -9 5868.56 1197.23   2
  16 -17  -9 7812.95 1689.99   2
  16 -17  -9 4361.74 1456.16   4
   1  16  -6 4002.13 972.772   1
  16 -17  -6 3885.43 1227.00   4
  -1  17  -6 1408.47 748.637   1
  -1  17  -6 2951.30 517.824   4
   1  16  -6 1588.63 683.042   2
  17 -16  -6 2873.94 1057.64   2
 -17   1  -6 2440.81 254.858   1
  -1  17  -6 4004.38 827.819   2
   1  16  -6 3948.07 598.919   4
  17 -16  -6 3067.04 1090.51   4
  16 -17  -6 3536.18 1135.20   2
  -1  17  -3 41696.3 1583.69   2
   1  16  -3 40751.0 1636.07   2
   1  16  -3 38917.5 1917.19   1
  17 -16  -3 40525.2 2165.50   4
  16 -17  -3 40321.8 2078.29   2
  -1  17  -3 43148.3 2018.96   1
  17 -16  -3 41147.1 2142.25   2
  16 -17  -3 38582.4 2135.74   4
 -17   1  -3 37306.7 919.425   1
  16 -17   0 21472.2 1213.05   4
   1  16   0 20339.0 1083.50   2
  16 -17   0 19321.8 1029.83   2
   1  16   0 20425.2 1516.18   3
   1  16   0 20437.0 1086.30   1
  -1  17   0 19466.5 1095.10   1
  17 -16   0 19895.8 1218.61   4
  17 -16   0 19529.3 1095.24   2
  -1  17   0 20113.3 1015.06   2
  17 -16   3 35789.1 2361.60   3
  16 -17   3 33257.2 2236.04   3
  -1  17   3 34708.1 1691.78   4
   1  16   3 37738.4 1760.49   4
  -1  17   3 34988.4 1465.11   1
  -1  17   3 38007.8 2217.87   3
   1  16   3 35091.1 1367.93   1
 -16  -1   3 39702.9 1631.10   3
   1  16   3 36724.6 2189.36   3
 -17   1   3 37330.1 1566.41   3
  16 -17   3 37856.2 1385.95   2
  17 -16   3 35365.1 1444.01   2
  17 -16   6 15771.4 1834.82   3
  16 -17   6 16333.9 1815.47   3
  -1  17   6 14219.5 1251.40   1
  16 -17   6 14879.5 1394.01   2
   1  16   6 16212.5 1754.86   3
   1  16   6 16103.0 1250.56   1
  -1  17   6 18080.0 1760.34   3
  17 -16   9 7490.46 1591.72   3
  16 -17   9 8224.37 1689.94   3
   1  16   9 11595.4 1763.07   3
  -1  17   9 10933.0 1692.04   3
   2  15 -10 14312.8 2118.25   1
  17 -15 -10 13259.6 2153.23   4
  -2  17 -10 17559.5 2138.95   1
  15 -17 -10 11117.3 2067.02   4
   2  15 -10 13742.5 1586.98   4
  -2  17 -10 15031.8 1549.80   4
  17 -15 -10 14356.7 2227.87   2
   2  15 -10 15615.2 2028.53   2
  15 -17 -10 15272.8 2226.44   2
  -2  17 -10 15368.7 1829.88   2
  15 -17  -7 72517.0 3631.35   2
  17 -15  -7 69573.1 3710.29   4
   2  15  -7 75396.3 2611.86   4
  -2  17  -7 73138.3 2951.93   2
   2  15  -7 75965.6 3311.68   2
  -2  17  -7 74358.5 2323.65   4
  17 -15  -7 72579.8 3837.42   2
  -2  17  -7 73485.7 3344.13   1
  15 -17  -7 72541.3 3757.06   4
   2  15  -7 70573.3 3420.60   1
 -17   2  -7 71410.7 1547.40   1
   2  15  -4 7094.13 902.341   2
   2  15  -4 7294.55 1001.43   1
  17 -15  -4 4810.85 944.984   4
  15 -17  -4 4670.92 961.911   4
  -2  17  -4 6437.90 935.226   1
  -2  17  -4 6592.24 790.474   2
  17 -15  -4 8823.17 1185.82   2
   2  15  -4 6750.63 502.155   4
  15 -17  -4 8752.48 1171.91   2
 -17   2  -4 6225.04 400.808   1
  -2  17  -1 80796.9 1671.36   2
  -2  17  -1 82042.1 1632.34   2
  15 -17  -1 77819.1 2352.49   4
  17 -15  -1 79428.1 2475.21   4
  15 -17  -1 79029.9 2216.65   2
   2  15  -1 82717.2 2288.23   1
  17 -15  -1 81494.4 2425.19   2
  -2  17  -1 79724.0 2298.54   1
 -17   2  -1 79273.5 1950.30   1
  17 -15   2 70801.8 3041.32   3
  17 -15   2 67144.7 1737.70   2
  15 -17   2 71767.5 1311.12   2
   2  15   2 58576.3 1669.63   1
   2  15   2 65955.7 2033.53   4
  -2  17   2 63255.3 1926.27   1
  -2  17   2 66872.0 1834.28   4
  -2  17   2 65933.1 2324.64   2
  -2  17   2 62448.1 2592.40   3
 -15  -2   2 64304.7 2219.80   3
   2  15   2 66559.2 2785.65   3
 -17   2   2 68568.5 2265.85   3
  15 -17   2 65774.6 1421.34   2
  17 -15   5 72569.0 3525.93   3
   2  15   5 73087.7 2208.90   1
  15 -17   5 68645.8 3285.61   3
  15 -17   5 75731.2 2453.78   2
  -2  17   5 69441.7 3053.54   3
   2  15   5 77798.9 3356.14   3
  17 -15   5 71480.8 2655.41   2
  -2  17   5 77109.3 2560.84   1
  17 -15   8 30449.2 2625.57   3
  15 -17   8 29122.8 2472.11   3
  -2  17   8 31704.6 2445.15   3
  15 -17  11 13489.0 2115.75   3
  17 -15  11 9720.38 1948.54   3
  -2  17  11 25630.5 2565.76   3
   2  15  11 21064.7 2505.81   3
   3  14 -11 566.679 1100.51   1
  14 -17 -11 763.065 1338.95   2
  17 -14 -11-209.010 1227.94   4
  -3  17 -11 1223.68 1097.20   1
  14 -17 -11 565.915 1197.88   4
   3  14 -11 985.857 946.333   4
  -3  17 -11 1131.49 862.147   4
   3  14 -11 106.382 1081.45   2
  17 -14 -11 546.878 1458.87   2
  -3  17 -11 287.201 1020.45   2
  -3  17  -8 8154.10 1274.30   1
  17 -14  -8 10576.7 1738.11   4
  14 -17  -8 14236.4 1935.13   4
   3  14  -8 11135.6 1276.67   4
  -3  17  -8 9715.49 1063.27   4
   3  14  -8 12249.0 1702.06   2
 -14  -3  -8 8966.98 533.418   1
  17 -14  -8 9533.93 1866.39   2
 -17   3  -8 9485.29 719.788   1
  -3  17  -8 9503.92 1311.24   2
  14 -17  -8 10514.1 1695.45   2
   3  14  -8 7275.79 1385.42   1
  14 -17  -5 148.406 664.347   4
   3  14  -5 44.5487 568.801   1
  14 -17  -5-779.741 779.684   2
  17 -14  -5-630.229 718.672   4
   3  14  -5 132.718 541.906   2
  -3  17  -5 349.825 654.590   1
  17 -14  -5-799.300 791.108   2
  -3  17  -5 350.646 533.008   2
   3  14  -5-37.5791 386.384   4
 -17   3  -5 151.030 205.887   1
 -17   3  -2 6117.90 530.907   1
  -3  17  -2 6488.75 545.888   2
   3  14  -2 6666.90 789.922   1
  17 -14  -2 6883.69 965.820   2
  14 -17  -2 6730.13 833.066   2
  -3  17  -2 6497.98 789.309   1
  17 -14  -2 5111.91 822.951   4
  14 -17  -2 7295.71 877.365   4
   3  14  -2 6338.12 675.254   2
   3  14   1 29663.9 1412.88   2
  -3  17   1 28661.1 1282.28   1
  17 -14   1 31229.7 1954.93   3
 -17   3   1 30000.1 1525.51   1
  17 -14   1 30111.4 1206.93   2
  -3  17   1 29152.4 833.217   4
   3  14   1 29146.6 1151.70   4
   3  14   1 27598.3 1776.47   3
 -14  -3   1 30346.0 1606.65   3
  14 -17   1 27931.5 1228.87   4
  14 -17   1 25311.1 843.209   2
 -17   3   1 29499.4 1649.97   3
  -3  17   1 28606.9 1328.16   2
   3  14   1 29114.5 1102.54   1
  -3  17   4 12955.1 1040.78   1
  17 -14   4 16324.1 1763.41   3
  14 -17   4 15737.3 1621.92   3
  -3  17   4 14411.3 1493.17   3
  14 -17   4 15220.2 935.161   2
 -17   3   4 12011.6 771.166   3
   3  14   4 11977.2 1348.81   3
   3  14   4 14335.2 870.799   1
  17 -14   4 13118.9 1106.96   2
  17 -14   7 3918.98 1221.03   3
  14 -17   7 3219.73 1032.89   3
  -3  17   7 3781.97 835.295   1
  -3  17   7 2401.43 917.789   3
   3  14   7 3829.27 1214.44   3
  17 -14  10 304.792 1055.13   3
  14 -17  10 4599.51 1398.77   3
  -3  17  10 3757.90 1288.23   3
   3  14  10 2928.09 1190.69   3
  17 -13  -9 8849.57 1741.68   4
  13 -17  -9 8359.83 1815.15   4
   4  13  -9 8111.66 1641.23   2
  -4  17  -9 5767.22 1330.28   1
   4  13  -9 7024.79 1154.54   4
  -4  17  -9 6256.16 942.478   4
 -17   4  -9 7057.32 782.380   1
   4  13  -9 7029.58 1504.22   1
  17 -13  -9 5788.54 1783.45   2
  -4  17  -9 7471.11 1253.59   2
  13 -17  -9 6759.58 1582.49   2
   4  13  -6 16520.5 1382.28   3
  17 -13  -6 19563.7 1961.15   4
   4  13  -6 18265.6 1740.81   1
   4  13  -6 19167.2 1631.10   2
  17 -13  -6 21957.3 2109.83   2
  -4  17  -6 16970.6 1293.08   2
  13 -17  -6 18716.2 1770.06   2
   4  13  -6 19155.8 1323.22   4
 -17   4  -6 19548.4 878.618   1
  13 -17  -6 18293.4 1845.92   4
  -4  17  -6 18735.3 1603.70   1
   4  13  -3 10547.2 960.001   2
   4  13  -3 10018.1 1041.20   1
  13 -17  -3 11341.4 1091.74   2
  17 -13  -3 9592.83 1140.56   4
  13 -17  -3 10658.1 1159.81   4
   4  13  -3 10206.1 619.908   4
  17 -13  -3 9816.09 1193.20   2
  -4  17  -3 10040.8 662.273   2
  -4  17  -3 9900.87 997.759   1
 -17   4  -3 11025.2 629.583   1
  17 -13   0 7059.10 1014.19   3
 -17   4   0 7770.79 758.245   1
  13 -17   0 8469.35 725.997   4
  17 -13   0 8529.84 780.375   2
   4  13   0 8476.25 556.972   4
  13 -17   0 7990.51 556.970   2
   4  13   0 9698.95 1082.62   3
 -17   4   0 9038.78 1084.05   3
  -4  17   0 9967.37 663.090   2
  -4  17   0 9028.58 777.028   1
   4  13   0 9223.04 688.172   1
  17 -13   0 9160.53 873.698   4
  17 -13   3 21985.9 1841.10   3
   4  13   3 23919.5 960.380   1
  -4  17   3 22335.9 1309.82   4
   4  13   3 20993.9 1422.69   4
  13 -17   3 23906.6 828.352   2
  13 -17   3 25780.6 1327.57   4
  -4  17   3 23634.9 1608.79   3
  -4  17   3 22440.3 1532.41   2
  -4  17   3 23721.4 1287.96   1
   4  13   3 24705.9 1812.72   3
 -17   4   3 23515.1 1203.46   3
  17 -13   3 23414.6 1228.68   2
  17 -13   6 472.609 907.266   3
  13 -17   6 1309.28 916.504   3
  -4  17   6 2130.48 669.697   1
  13 -17   6 2031.28 705.645   2
  -4  17   6 1435.22 798.580   3
   4  13   6 3659.81 1127.17   3
  17 -13   9 2572.04 1173.39   3
  13 -17   9 3018.38 1245.13   3
  -4  17   9 147.813 871.003   3
   4  13   9 3826.05 1143.88   3
   5  12 -10 2183.56 1178.38   1
  17 -12 -10 1510.12 1159.28   4
  12 -17 -10 2336.34 1311.26   4
  -5  17 -10 876.450 869.017   1
   5  12 -10 2704.13 1068.65   4
  -5  17 -10 4005.81 964.356   4
 -12  -5 -10 1629.39 895.378   4
 -17   5 -10 3774.43 721.080   1
   5  12 -10 2452.53 1371.86   2
  17 -12 -10 3275.30 1558.97   2
  12 -17 -10 3175.42 1347.58   2
  -5  17 -10 2689.74 1094.61   2
  17 -12  -7 38198.3 2788.93   4
  12 -17  -7 42129.3 2870.20   4
 -12  -5  -7 32419.2 754.973   1
  -5  17  -7 36897.8 2307.91   1
 -12  -5  -7 31315.5 770.397   1
   5  12  -7 37410.0 2480.58   2
  17 -12  -7 38917.8 2814.50   2
  -5  17  -7 42118.2 1747.10   4
 -17   5  -7 38377.9 1435.24   1
  12 -17  -7 36679.2 2562.29   2
  -5  17  -7 40447.0 2063.82   2
   5  12  -7 41170.6 2168.18   4
  17 -12  -4 20780.2 1686.59   4
 -17   5  -4 21297.9 876.160   1
   5  12  -4 17332.6 1329.47   2
  -5  17  -4 19805.9 995.896   2
  12 -17  -4 18614.3 1582.15   4
   5  12  -4 18662.4 1087.96   4
  17 -12  -4 19401.8 1689.28   2
  -5  17  -4 20019.7 1458.84   1
  12 -17  -4 20270.2 1531.01   2
   5  12  -4 16941.5 1439.10   1
  17 -12  -1 58062.0 2330.56   3
 -17   5  -1 55251.6 1699.99   1
  12 -17  -1 55632.4 1577.12   2
   5  12  -1 54915.9 1803.92   1
  17 -12  -1 57076.0 2074.50   4
  12 -17  -1 57056.9 1913.28   4
   5  12  -1 57831.6 1138.26   4
   5  12  -1 56722.4 1076.40   4
   5  12  -1 57463.7 2278.02   3
  -5  17  -1 57438.0 1940.96   1
  -5  17  -1 53158.5 1028.83   2
  17 -12  -1 51632.2 1967.06   2
  -5  17  -1 54602.0 931.448   2
  17 -12   2 17009.5 1531.78   3
 -17   5   2 18510.9 1349.34   1
   5  12   2 17944.7 1525.40   3
   5  12   2 17696.8 733.150   1
  -5  17   2 17985.1 1224.80   2
  -5  17   2 18071.3 934.986   4
  -5  17   2 19662.7 1145.33   1
   5  12   2 18190.4 1169.69   4
 -17   5   2 18373.1 1225.56   3
  12 -17   5 121051. 4052.44   3
   5  12   5 129702. 4303.15   3
  -5  17   5 118777. 3358.26   1
  -5  17   5 122678. 3791.72   3
  12 -17   5 123676. 2687.90   2
  17 -12   5 119017. 4318.90   3
  17 -12   8 20931.8 2150.43   3
  12 -17   8 22146.3 2014.65   3
  -5  17   8 24683.4 2054.99   3
   5  12   8 24801.1 2240.62   3
  -5  17  11 22774.9 2283.57   3
   5  12  11 23617.0 2665.65   3
  17 -11 -11 2515.88 1492.13   4
 -11  -6 -11 4538.64 1282.30   2
   6  11 -11 1371.06 1361.06   2
   6  11 -11 5125.43 1461.45   4
  11 -17 -11 4262.62 1531.23   4
  -6  17 -11 5457.15 1392.44   1
  -6  17 -11 3653.72 1010.07   4
 -11  -6 -11 3442.09 1149.13   4
  17 -11 -11 4852.80 2060.18   2
  11 -17 -11 1612.27 1285.17   2
  -6  17 -11 2737.36 1121.61   2
  17 -11  -8 2064.89 1118.42   4
 -11  -6  -8 1092.78 348.382   1
  11 -17  -8 268.029 929.095   4
   6  11  -8 1693.50 772.499   4
  -6  17  -8 1353.95 712.210   1
  -6  17  -8 1860.21 643.936   4
   6  11  -8 1712.64 1034.30   2
   6  11  -8 956.129 506.008   3
 -11  -6  -8-689.320 712.775   4
  17 -11  -8 2069.52 1170.27   2
 -17   6  -8 1414.18 484.373   1
  11 -17  -8 1298.51 1005.76   2
  -6  17  -8 1632.89 720.675   2
   6  11  -5 29228.2 1559.14   3
   6  11  -5 30949.8 1943.62   2
  11 -17  -5 32075.8 2142.10   4
   6  11  -5 32828.1 1670.03   4
  -6  17  -5 32570.0 1926.95   1
  17 -11  -5 30604.3 2223.42   2
  11 -17  -5 29033.4 1926.21   2
   6  11  -5 29846.1 1533.76   3
  17 -11  -5 28245.0 2089.78   4
  -6  17  -5 32059.1 1385.85   2
 -17   6  -5 31182.4 1142.01   1
   6  11  -2 7000.77 537.782   4
  17 -11  -2 6732.40 851.453   3
  11 -17  -2 6020.60 779.355   4
  17 -11  -2 7223.89 878.572   4
   6  11  -2 7517.44 821.568   1
   6  11  -2 6977.50 833.016   3
 -17   6  -2 8972.66 662.454   1
  -6  17  -2 7756.83 846.693   1
  11 -17  -2 7405.70 763.553   2
   6  11  -2 6880.74 754.238   2
  17 -11  -2 8928.80 964.071   2
  17 -11   1 127818. 3718.16   3
  -6  17   1 128368. 2801.39   1
  -6  17   1 129582. 1885.03   4
  11 -17   1 128277. 2233.64   4
   6  11   1 132965. 2627.71   4
  -6  17   1 125520. 2484.22   2
 -11  -6   1 137352. 3298.54   3
   6  11   1 128794. 3615.88   3
   6  11   1 130200. 1963.47   1
  17 -11   1 131514. 2803.65   1
 -17   6   1 129469. 3359.83   3
 -17   6   1 120268. 3023.99   1
  -6  17   4 19897.0 1339.11   1
  11 -17   4 19720.3 840.767   2
  11 -17   4 18014.7 1225.40   4
  -6  17   4 19309.4 1511.36   3
   6  11   4 22385.5 1820.40   3
 -17   6   4 20770.1 1013.33   3
   6  11   4 20909.7 843.881   1
  17 -11   4 22176.9 1904.72   3
  -6  17   7 12319.5 1412.97   3
   6  11   7 14760.4 1743.39   3
  -6  17   7 9613.63 1261.05   1
  17 -11   7 12965.2 1671.09   3
  17 -11  10 2676.18 1341.46   3
  -6  17  10 3360.84 1180.62   3
   6  11  10 2182.45 1245.09   3
 -10  -7  -9 2160.76 939.944   2
  17 -10  -9-775.978 1117.30   2
  17 -10  -9 1453.60 1103.87   4
  10 -17  -9 204.218 1028.46   4
  -7  17  -9 281.869 911.123   1
 -10  -7  -9 911.170 729.421   4
  -7  17  -9 695.132 564.222   4
   7  10  -9 249.479 988.173   2
 -17   7  -9 899.787 560.315   1
   7  10  -9 638.558 783.540   4
  10 -17  -9-139.471 980.014   2
  -7  17  -9 1925.99 815.455   2
   7  10  -6 11038.6 990.211   3
  10 -17  -6 9193.92 1421.00   4
  17 -10  -6 11470.9 1560.50   4
 -17   7  -6 10476.1 822.469   1
   7  10  -6 12288.6 1247.77   4
  -7  17  -6 10668.8 1238.92   1
   7  10  -6 11080.0 1411.42   2
  17 -10  -6 9140.73 1432.94   2
 -10  -7  -6 10143.5 1126.84   4
   7  10  -6 10869.0 907.978   3
  10 -17  -6 11350.9 1341.34   2
  -7  17  -6 9929.83 983.401   2
  10 -17  -3 8769.09 1007.56   4
  17 -10  -3 8900.96 1076.04   4
   7  10  -3 8409.59 905.882   2
  -7  17  -3 9154.54 963.909   1
  10 -17  -3 8317.67 875.349   2
   7  10  -3 9007.91 927.192   3
 -17   7  -3 7934.96 609.518   1
  17 -10  -3 7024.18 1038.24   2
   7  10  -3 8661.32 718.241   4
  17 -10   0 24377.1 1601.94   3
   7  10   0 24749.6 1014.66   1
  17 -10   0 27042.6 1314.71   2
   7  10   0 25446.3 1018.40   4
   7  10   0 24661.6 1580.89   3
 -17   7   0 24286.8 1625.35   3
  -7  17   0 22372.2 701.138   2
 -17   7   0 24131.3 1258.22   1
  10 -17   0 25576.7 1082.77   4
  -7  17   0 25868.1 1288.66   1
  17 -10   0 23203.8 1169.40   1
  17 -10   3 16074.9 1189.17   2
  -7  17   3 16046.3 1249.67   2
  -7  17   3 15780.0 1057.90   4
   7  10   3 16295.5 1272.49   4
   7  10   3 15694.2 565.417   1
   7  10   3 15128.1 1472.67   3
  -7  17   3 13725.8 1068.81   1
 -17   7   3 14866.9 1060.45   3
  10 -17   3 15089.1 949.503   4
 -17   7   3 12818.4 1235.10   1
  17 -10   3 14249.8 1084.69   1
  17 -10   3 13938.3 1544.54   3
  17 -10   6 5016.71 1276.24   3
  -7  17   6 4315.67 920.995   1
  10 -17   6 2620.15 616.840   2
  -7  17   6 3546.81 790.431   3
   7  10   6 6080.04 1313.02   3
  -7  17   9 20192.3 1976.27   3
   7  10   9 21869.7 2350.76   3
  17 -10   9 15521.1 2065.11   3
 -17   8 -10 6931.37 983.690   1
  -9  -8 -10 5900.10 1233.98   2
  17  -9 -10 8407.36 1840.20   4
   8   9 -10 5853.24 1532.23   2
   9 -17 -10 6859.48 1681.58   4
   8   9 -10 5706.15 1320.08   4
  -8  17 -10 5635.60 1281.18   1
  17  -9 -10 2620.18 1472.02   2
  -8  17 -10 7162.29 1241.63   2
  -9  -8 -10 6653.92 1298.35   4
   9 -17 -10 6066.77 1578.59   2
  -9  -8  -7 37069.5 2179.95   4
  -9  -8  -7 34355.3 976.153   1
   8   9  -7 35290.0 2182.37   4
  17  -9  -7 36595.1 2667.20   4
  -8  17  -7 37772.0 2274.40   1
   9 -17  -7 37686.5 2642.45   4
   8   9  -7 33009.5 1381.61   3
   8   9  -7 34855.1 2487.26   2
   9 -17  -7 37283.7 2454.49   2
   8   9  -7 32524.2 1265.35   3
 -17   8  -7 38941.0 1646.43   1
  -8  17  -7 38167.9 1840.15   2
  17  -9  -7 33348.9 2660.86   2
   8   9  -4 14559.8 1078.96   4
   9 -17  -4 12254.0 1328.55   4
  17  -9  -4 12914.1 1387.09   2
   8   9  -4 12614.9 1268.91   2
  -8  17  -4 10136.4 1046.70   1
   8   9  -4 12144.1 969.027   3
  17  -9  -4 14472.7 1455.41   4
   9 -17  -4 9519.69 1058.81   2
  -8  17  -4 12018.3 588.912   2
 -17   8  -4 11226.0 753.659   1
  17  -9  -1 117519. 3195.41   3
   8   9  -1 123493. 2041.27   4
  17  -9  -1 125151. 3024.37   4
  17  -9  -1 126364. 3055.35   2
   9 -17  -1 119895. 2634.36   4
 -17   8  -1 124379. 2545.13   1
   8   9  -1 125206. 2730.77   1
   8   9  -1 126054. 3234.88   3
  -8  17  -1 124985. 2836.40   1
   9 -17  -1 127656. 2010.02   2
  -8  17   2 42057.0 1649.06   2
  -8  17   2 42180.4 1387.11   4
  -8  17   2 39020.8 1644.16   1
   8   9   2 42539.1 1776.56   4
   9 -17   2 39935.9 1209.25   4
  17  -9   2 39841.9 1572.28   1
   8   9   2 40272.6 2192.20   3
   8   9   2 39189.9 753.431   1
 -17   8   2 41496.8 1822.63   3
 -17   8   2 40869.8 1955.08   1
  17  -9   2 41973.2 2251.84   3
  -8  17   5 97353.6 3150.98   3
  -9  -8   5 91067.4 2240.38   4
   8   9   5 101243. 3881.29   3
   9 -17   5 96543.1 2908.97   4
  -8  17   5 95726.1 3196.69   1
 -17   8   5 89257.6 1835.74   3
  17  -9   5 95447.6 3833.49   3
   9 -17   5 99718.4 2127.98   2
  17  -9   8 6288.92 1555.57   3
  -8  17   8 7541.73 1282.31   3
   8   9   8 10171.4 1667.24   3
   8   9  11 23335.8 2714.36   3
  17  -9  11 16910.4 2281.94   3
  -8  -9 -11 21858.7 2229.42   2
  -9  17 -11 22873.2 2245.82   1
  17  -8 -11 17506.3 2521.03   4
  17  -8 -11 26394.1 3030.87   2
 -17   9 -11 23946.4 1792.35   1
  -8  -9 -11 19806.4 2123.55   4
   8 -17 -11 26817.8 2814.82   4
   9   8 -11 28510.2 2957.94   2
   9   8 -11 25131.9 2487.07   4
   8 -17 -11 21138.6 2380.75   2
  -9  17 -11 20637.9 1947.05   2
  -8  -9  -8 8548.92 1307.29   2
  17  -8  -8 8220.53 1626.59   4
  -9  17  -8 7797.46 1213.16   1
   8 -17  -8 11508.2 1657.20   4
   9   8  -8 8010.65 1274.61   4
   9   8  -8 11296.7 1709.64   2
  -8  -9  -8 10666.6 1350.60   4
 -17   9  -8 8827.77 945.569   1
  17  -8  -8 6657.95 1557.37   2
   8 -17  -8 7525.82 1367.37   2
  -9  17  -8 9941.58 1132.08   2
   8 -17  -5 113198. 3790.02   4
   9   8  -5 104853. 3678.84   2
  17  -8  -5 104126. 3818.82   4
   9   8  -5 106354. 3111.50   4
  -9  17  -5 104343. 3290.76   1
  -8  -9  -5 108626. 3082.15   4
   9   8  -5 116307. 2546.27   3
  17  -8  -5 114654. 4099.44   2
 -17   9  -5 107275. 2412.05   1
   8 -17  -5 106713. 3391.88   2
  -9  17  -5 111022. 2150.69   2
  17  -8  -2 41624.7 1804.17   3
   9   8  -2 39131.6 1772.83   2
  17  -8  -2 38275.1 1889.06   2
 -17   9  -2 38706.5 1404.55   1
   8 -17  -2 40804.1 1729.75   4
  17  -8  -2 44695.9 2017.64   4
   9   8  -2 40538.5 1796.08   3
  -9  17  -2 40229.7 1721.21   1
   8 -17  -2 39744.8 1458.23   2
   9   8  -2 39924.2 1357.49   4
 -17   9   1 117143. 2987.42   1
  -9  17   1 123297. 2862.50   1
  -9  17   1 121783. 2115.66   2
   9   8   1 129263. 2676.78   4
   9   8   1 118774. 1625.99   1
   8 -17   1 123455. 1854.31   4
   9   8   1 124288. 3566.78   3
  17  -8   1 114633. 2373.26   1
 -17   9   1 124031. 3324.48   3
  17  -8   1 117479. 3563.78   3
  -9  17   4 9639.88 1015.82   1
   8 -17   4 8572.28 459.721   2
  17  -8   4 12039.6 987.142   1
   8 -17   4 12102.4 959.470   4
   9   8   4 12910.2 1472.95   3
 -17   9   4 11103.0 1301.00   1
 -17   9   4 12989.5 945.306   3
  17  -8   4 10623.3 1363.15   3
  -9  17   7 34093.2 2049.56   3
  -9  17   7 33729.2 2289.85   1
   9   8   7 33264.7 2511.83   3
  17  -8   7 34248.0 2593.88   3
  17  -8  10 8527.76 1828.19   3
  -9  17  10 7399.70 1318.55   3
   9   8  10 7836.93 1724.08   3
  -7 -10  -9 15211.0 1696.92   2
  17  -7  -9 15036.2 2063.66   4
 -10  17  -9 14797.0 1691.98   1
  10   7  -9 16853.8 1916.63   4
   7 -17  -9 17421.6 2125.99   4
  10   7  -9 14784.6 2036.51   2
  17  -7  -9 13548.1 2053.58   2
 -17  10  -9 16622.3 1362.32   1
  -7 -10  -9 12801.5 1616.28   4
   7 -17  -9 17464.0 1973.32   2
 -10  17  -9 18036.3 1571.17   2
  10   7  -6 4938.16 544.712   3
  17  -7  -6 5563.11 1224.08   4
  10   7  -6 6083.85 1269.70   2
   7 -17  -6 6079.78 1176.51   4
 -10  17  -6 4114.27 927.103   1
  17  -7  -6 5235.83 1179.58   2
  -7 -10  -6 6831.45 1051.40   4
  10   7  -6 5068.97 548.099   3
 -17  10  -6 4393.02 654.114   1
  -7 -10  -6 4526.86 370.865   1
  10   7  -6 4409.92 908.632   4
 -10  17  -6 4745.12 600.124   2
   7 -17  -6 3331.00 868.395   2
 -17  10  -3 18854.2 1004.93   1
  17  -7  -3 16724.1 1070.33   3
  10   7  -3 17207.0 1103.45   4
  17  -7  -3 16878.6 1453.64   2
   7 -17  -3 16393.8 1247.00   4
 -10  17  -3 16400.9 1183.79   1
  10   7  -3 16989.8 1153.99   3
  10   7  -3 17282.4 1336.50   2
   7 -17  -3 18783.7 1204.75   2
  17  -7  -3 15814.0 1384.36   4
 -10  17   0 21119.2 1186.99   1
  17  -7   0 20275.4 1011.31   1
  10   7   0 21387.1 1480.80   3
   7 -17   0 20127.0 896.690   4
 -17  10   0 20870.0 1196.26   1
  10   7   0 18701.9 907.497   1
  17  -7   0 16271.5 1382.88   3
 -10  17   3 7763.37 911.631   2
 -10  17   3 7720.51 766.642   4
  17  -7   3 7909.96 741.948   1
   7 -17   3 9892.03 694.423   4
  10   7   3 8327.50 1199.32   3
 -10  17   3 7964.86 886.762   1
 -17  10   3 8662.01 912.120   3
  17  -7   3 8367.93 1183.74   3
 -17  10   3 8985.43 1064.34   1
 -10  17   6 8496.86 1283.63   1
   7 -17   6 7895.73 1035.70   4
 -10  17   6 7341.24 1014.00   3
  10   7   6 10001.0 1467.17   3
   7 -17   6 6901.86 768.123   2
 -17  10   6 6810.11 565.284   3
  17  -7   6 8368.73 1431.03   3
  17  -7   9 1332.13 1074.11   3
 -10  17   9 1148.49 919.197   3
  10   7   9 2232.51 1099.77   3
   6 -17 -10 2945.13 1195.91   2
 -11  17 -10 3673.73 992.748   2
  -6 -11 -10 3274.91 1051.82   2
  17  -6 -10 5373.16 1502.67   4
  11   6 -10 1979.37 1079.01   4
   6 -17 -10 2217.00 1299.78   4
 -11  17 -10 3436.97 1104.67   1
  -6 -11 -10 3333.91 1162.51   4
  11   6 -10 4381.24 1456.38   2
  17  -6 -10 4173.42 1566.92   2
 -17  11 -10 1629.39 640.260   1
  -6 -11  -7 14502.4 1434.72   2
  -6 -11  -7 10005.3 686.876   1
  11   6  -7 9699.48 1268.82   4
   6 -17  -7 11064.6 1480.61   4
 -17  11  -7 10077.7 998.914   1
  11   6  -7 10714.6 1626.54   2
 -11  17  -7 9908.34 1264.11   1
  17  -6  -7 12127.3 1686.73   2
  -6 -11  -7 10623.9 1294.48   4
   6 -17  -7 10824.3 1373.31   2
 -11  17  -7 10776.5 1010.89   2
  17  -6  -7 10998.4 1635.02   4
  17  -6  -4 19685.8 971.529   3
  17  -6  -4 24777.8 1791.55   4
  11   6  -4 24269.8 1764.04   2
  17  -6  -4 22464.0 1810.10   2
   6 -17  -4 24833.1 1655.96   4
  -6 -11  -4 21538.2 724.282   1
  -6 -11  -4 22435.3 1321.39   4
 -11  17  -4 22269.6 1470.85   1
  11   6  -4 22486.0 1203.30   3
  11   6  -4 21666.1 1409.26   4
 -17  11  -4 22628.0 1163.04   1
   6 -17  -4 23800.8 1501.10   2
  11   6  -1 134589. 2529.31   4
  17  -6  -1 136133. 2727.76   1
   6 -17  -1 136426. 2537.20   4
  17  -6  -1 145935. 3329.59   2
 -17  11  -1 141177. 2797.59   1
  11   6  -1 136988. 3420.96   3
  17  -6  -1 139807. 3221.49   4
 -11  17  -1 140681. 3042.63   1
  17  -6  -1 133940. 3353.81   3
   6 -17   2 4803.12 288.570   4
 -17  11   2 5337.62 787.423   1
 -11  17   2 5088.54 615.578   2
   6 -17   2 4724.15 377.179   4
  11   6   2 4806.86 719.965   4
 -11  17   2 4692.89 683.752   1
  17  -6   2 5559.99 564.787   1
  11   6   2 6618.97 1028.74   3
 -11  17   2 4306.62 534.641   4
 -17  11   2 5371.52 814.752   3
  17  -6   2 4507.48 882.013   3
   6 -17   5 27076.1 1061.31   2
  -6 -11   5 26452.9 1128.88   4
   6 -17   5 28724.7 1489.49   4
 -11  17   5 26733.7 1832.56   1
  11   6   5 31661.8 2294.15   3
 -17  11   5 30353.7 2120.10   1
  17  -6   5 28900.5 2238.76   3
 -17  11   5 29665.7 1390.75   3
  17  -6   8 4798.72 1387.22   3
 -11  17   8 2192.91 846.066   3
 -11  17   8 1576.61 914.464   1
  11   6   8 3452.16 1206.06   3
  17  -6  11 6316.00 1630.34   3
  11   6  11 3352.85 1470.69   3
 -12  17 -11 13887.3 1591.14   2
  17  -5 -11 20739.9 2704.26   4
  -5 -12 -11 18841.8 2152.28   2
 -12  17 -11 19129.7 2006.04   1
  12   5 -11 20679.4 2342.35   4
   5 -17 -11 18008.4 2358.89   4
 -17  12 -11 22003.2 1838.06   1
  -5 -12 -11 20682.9 2256.79   4
  12   5 -11 22270.2 2765.94   2
  17  -5 -11 20852.8 2759.76   2
   5 -17 -11 17496.0 2163.30   2
 -12  17  -8 23449.0 1506.93   2
  -5 -12  -8 24174.8 1951.03   2
  17  -5  -8 25069.8 2371.47   4
  12   5  -8 22441.7 2045.13   4
   5 -17  -8 24424.3 2218.31   4
 -12  17  -8 21978.0 1845.39   1
  12   5  -8 27351.4 2480.87   2
  -5 -12  -8 23547.7 1959.17   4
 -17  12  -8 26631.8 1701.36   1
  17  -5  -8 21340.6 2281.98   2
   5 -17  -8 23385.6 2023.98   2
  12   5  -5 112438. 3470.05   4
  12   5  -5 127049. 4222.01   2
  17  -5  -5 123232. 4273.73   2
   5 -17  -5 119041. 3697.94   4
  17  -5  -5 120340. 4106.86   4
  -5 -12  -5 120266. 3342.00   4
 -12  17  -5 122903. 3443.04   1
  -5 -12  -5 118013. 1889.66   1
  12   5  -5 131977. 2462.68   3
 -17  12  -5 119417. 2848.84   1
   5 -17  -5 121272. 3528.44   2
  12   5  -2 22596.0 1222.66   4
   5 -17  -2 23198.4 1052.64   2
 -17  12  -2 20918.6 1116.48   1
  -5 -12  -2 21802.8 962.614   1
  17  -5  -2 20527.9 1505.47   2
   5 -17  -2 24256.5 1279.67   4
  12   5  -2 19357.5 1327.79   2
  12   5  -2 21013.6 1306.08   1
  17  -5  -2 20133.7 1387.67   4
  12   5  -2 20445.9 1309.29   3
 -12  17  -2 21010.5 1275.10   1
  17  -5  -2 21940.2 1368.22   3
  12   5   1 54226.0 1031.33   1
 -12  17   1 58650.6 2026.16   1
  12   5   1 58365.0 2495.32   3
  12   5   1 56201.2 1105.06   1
 -12  17   1 59063.6 1343.71   2
 -17  12   1 55295.9 2049.07   1
  17  -5   1 54448.0 2462.19   3
  17  -5   1 55585.7 1500.46   1
 -17  12   1 51879.4 2251.83   3
 -17  12   4 19130.9 1606.95   1
 -12  17   4 20375.5 1527.81   1
   5 -17   4 19695.8 998.194   4
  12   5   4 20124.9 1794.08   3
  17  -5   4 20120.8 1854.78   3
 -17  12   4 18444.9 1202.97   3
  -5 -12   4 21108.4 826.708   4
 -12  17   7 42046.0 2152.78   3
 -12  17   7 41507.0 2654.36   1
  12   5   7 40307.6 2816.28   3
  17  -5   7 43578.1 2924.22   3
 -17  12   7 38972.6 1375.85   3
  17  -5  10 2758.45 1327.20   3
 -12  17  10 2726.68 915.128   3
  12   5  10 2595.81 1342.25   3
   4 -17  -9 1662.48 894.217   2
 -13  17  -9 616.524 620.547   2
  -4 -13  -9 437.188 786.668   2
  17  -4  -9 1371.17 1059.90   4
  13   4  -9 3039.71 1151.34   4
   4 -17  -9 2511.38 1176.71   4
  17  -4  -9-278.163 1195.98   2
 -13  17  -9 2177.77 828.369   1
  -4 -13  -9 2184.74 883.597   4
  13   4  -9 77.0547 993.547   2
 -17  13  -9 2807.61 737.602   1
   4 -17  -6 1992.83 756.692   2
  13   4  -6 2208.23 764.181   4
  -4 -13  -6 1443.60 353.633   1
  -4 -13  -6 1496.34 699.065   2
  17  -4  -6 911.643 697.482   4
  17  -4  -6 848.790 797.874   2
  13   4  -6 2297.32 920.511   2
   4 -17  -6 1156.01 808.583   4
  -4 -13  -6 2046.29 834.463   4
 -13  17  -6 2031.87 699.541   1
 -17  13  -6 1281.41 493.723   1
   4 -17  -3 24322.8 1311.28   2
  17  -4  -3 24745.0 1665.47   4
  13   4  -3 23903.7 1417.36   4
  17  -4  -3 23869.4 1722.14   2
  -4 -13  -3 23940.4 961.729   1
   4 -17  -3 21258.3 1362.42   4
  -4 -13  -3 23539.2 1204.72   4
  13   4  -3 25057.9 1700.32   2
 -13  17  -3 24943.0 1428.62   1
  13   4  -3 23969.3 1344.28   3
  17  -4  -3 24591.9 1298.58   3
 -17  13  -3 24499.6 1252.76   1
 -13  17   0 9246.72 862.893   1
   4 -17   0 7980.25 406.414   4
 -17  13   0 11359.8 929.172   1
  13   4   0 9686.47 664.584   1
  17  -4   0 9679.43 669.558   1
  13   4   0 10044.8 1113.59   3
  17  -4   0 7597.87 999.541   3
   4 -17   3 9199.34 445.991   4
  17  -4   3 11626.8 709.396   1
 -13  17   3 9787.32 967.181   2
 -17  13   3 9331.31 1094.45   1
  13   4   3 11249.1 1359.83   3
  17  -4   3 11428.3 1352.98   3
 -13  17   3 10490.7 1060.14   1
 -17  13   3 11327.0 1080.42   3
 -17  13   6 20613.3 1907.83   1
 -13  17   6 19316.5 1752.41   1
   4 -17   6 13751.1 945.131   2
   4 -17   6 15708.2 1221.59   4
 -13  17   6 16248.9 1307.99   3
  -4 -13   6 14852.3 987.561   4
  17  -4   6 15023.2 1839.43   3
  13   4   6 19147.0 1889.87   3
 -17  13   6 16103.9 1109.67   3
 -13  17   9 6463.21 1145.34   3
  13   4   9 8717.89 1731.46   3
  17  -4   9 7092.48 1589.10   3
   3 -17 -10 2648.43 1114.75   2
  -3 -14 -10 3299.35 1141.46   2
 -14  17 -10 3717.90 934.043   2
  14   3 -10 3557.50 1283.41   4
  17  -3 -10 3883.23 1358.04   4
   3 -17 -10 4880.67 1322.64   4
  -3 -14 -10 4627.03 1252.27   4
 -14  17 -10 2933.82 957.000   1
  14   3 -10 4107.30 1501.65   2
 -17  14 -10 3879.18 910.430   1
  17  -3 -10 5474.78 1665.34   2
   3 -17  -7 5506.29 1055.00   2
 -14  17  -7 6238.82 781.997   2
  -3 -14  -7 4674.17 940.773   2
  17  -3  -7 4732.63 1295.01   4
  14   3  -7 5496.30 1124.82   4
   3 -17  -7 4376.36 1054.84   4
  14   3  -7 3722.26 1330.68   2
 -14  17  -7 7145.67 1034.43   1
  -3 -14  -7 5391.94 1002.30   4
 -17  14  -7 4905.30 812.011   1
  17  -3  -7 3881.57 1375.77   2
  17  -3  -4 14126.9 869.373   3
   3 -17  -4 15377.9 1177.99   2
  14   3  -4 14473.9 1269.86   4
  14   3  -4 17058.4 1658.98   2
  17  -3  -4 14510.9 1584.82   2
   3 -17  -4 15188.2 1293.11   4
  -3 -14  -4 16690.6 1195.18   4
  -3 -14  -4 15506.6 828.792   1
  17  -3  -4 14136.2 1413.68   4
 -14  17  -4 13577.3 1165.07   1
  14   3  -4 17373.0 1038.56   3
 -17  14  -4 15409.3 1061.32   1
 -14  17  -1 27312.7 1399.10   1
 -17  14  -1 27715.3 1411.12   1
  17  -3  -1 26276.7 1442.11   4
  17  -3  -1 29986.1 1655.24   2
  -3 -14  -1 28516.9 1313.98   1
  14   3  -1 25924.5 1261.51   4
   3 -17  -1 26979.7 982.622   4
  17  -3  -1 23757.8 1176.10   1
  14   3  -1 28259.3 1659.29   3
  14   3  -1 27887.7 1308.14   1
  17  -3  -1 27145.4 1637.57   3
 -17  14   2 7200.08 908.159   1
 -14  17   2 7660.47 693.679   2
  17  -3   2 7154.23 527.747   1
 -14  17   2 9237.16 952.515   1
  14   3   2 7128.44 1094.01   3
  17  -3   2 5515.88 1044.07   3
 -17  14   5 693.500 550.863   3
  -3 -14   5 695.945 292.069   4
   3 -17   5 608.431 378.246   4
 -14  17   5 582.588 637.266   1
  14   3   5-144.350 836.049   3
 -17  14   5 629.405 607.363   1
  17  -3   5 1119.97 1080.32   3
 -14  17   8 10600.9 1209.95   3
 -17  14   8 9927.57 895.653   3
 -14  17   8 9895.33 1524.42   1
  17  -3   8 11757.4 1888.00   3
  14   3   8 7950.42 1575.65   3
  17  -3  11 663.027 1350.58   3
  14   3  11 2070.64 1420.90   3
  -2 -15 -11 19451.4 2182.44   2
 -15  17 -11 20077.4 1762.15   2
  17  -2 -11 25684.6 2840.58   4
 -15  17 -11 20838.7 1964.84   1
   2 -17 -11 20987.4 2428.06   4
  -2 -15 -11 19473.9 2321.89   4
 -17  15 -11 19426.1 1839.62   1
  15   2 -11 20504.0 2555.64   4
  15   2 -11 21156.9 2736.82   2
  17  -2 -11 19379.5 2841.00   2
   2 -17 -11 19991.0 2252.92   2
  -2 -15  -8 38731.0 2420.10   2
  15   2  -8 34531.3 2560.69   4
  15   2  -8 33601.4 2825.85   2
  17  -2  -8 31732.8 2894.13   2
   2 -17  -8 31842.2 2419.06   4
  -2 -15  -8 38389.6 2530.83   4
 -15  17  -8 33830.4 2107.20   1
 -17  15  -8 36070.3 2074.02   1
  17  -2  -8 32386.0 2684.17   4
   2 -17  -8 38808.2 2449.30   2
   2 -17  -5 64573.4 2495.52   2
  17  -2  -5 60432.9 3134.10   2
  -2 -15  -5 67171.1 2509.40   2
  17  -2  -5 70125.2 3142.23   4
  15   2  -5 69209.9 3286.28   2
  15   2  -5 57865.7 2709.94   4
   2 -17  -5 61064.2 2613.02   4
  -2 -15  -5 60313.1 2470.58   4
 -15  17  -5 64396.9 2445.90   1
 -17  15  -5 62469.6 2245.17   1
  -2 -15  -5 64602.2 1740.57   1
  15   2  -5 58598.2 1485.33   3
 -17  15  -2 66286.4 2100.59   1
  15   2  -2 62009.1 2149.91   4
  17  -2  -2 70110.2 2641.33   2
  -2 -15  -2 62319.0 1857.94   1
   2 -17  -2 66156.6 1846.65   4
   2 -17  -2 63588.3 1989.64   1
  -2 -15  -2 69458.6 1668.55   4
  17  -2  -2 60561.2 2260.63   4
  15   2  -2 64370.4 2519.55   2
  15   2  -2 70158.3 2407.78   3
  15   2  -2 63844.1 2216.99   1
  17  -2  -2 65805.2 2353.98   3
 -15  17  -2 63589.1 2151.86   1
  17  -2   1 64783.9 1432.46   1
  15   2   1 61822.1 1127.58   1
 -15  17   1 66954.4 2266.71   1
 -17  15   1 65810.8 2282.25   1
  15   2   1 65997.4 2776.77   3
  17  -2   1 68391.9 2805.43   3
 -17  15   4 4833.62 827.746   3
 -15  17   4 5932.26 973.087   1
 -17  15   4 3922.00 871.711   1
  15   2   4 6453.07 1281.17   3
   2 -17   4 5709.73 380.548   4
  17  -2   4 6426.58 1233.82   3
 -15  17   7 80459.9 2801.78   3
 -17  15   7 76924.9 3717.51   1
 -17  15   7 76389.2 2349.05   3
  15   2   7 82535.2 3984.10   3
 -15  17   7 72778.9 3587.15   1
  17  -2   7 77762.3 3870.20   3
  17  -2  10 11973.5 2100.04   3
  15   2  10 10215.5 1977.55   3
   1 -17  -9 7212.52 1312.18   2
  -1 -16  -9 7963.42 1346.83   2
   1 -17  -9 6302.57 1329.15   4
  17  -1  -9 8439.18 1609.32   4
  16   1  -9 10325.2 1727.13   4
 -16  17  -9 8102.68 1235.30   1
  -1 -16  -9 6669.98 1382.04   4
 -17  16  -9 7872.53 1136.58   1
  16   1  -9 8981.57 1849.22   2
  17  -1  -9 8665.87 1920.20   2
   1 -17  -6 15376.3 1462.30   2
  -1 -16  -6 16752.2 1464.22   2
  17  -1  -6 15647.9 1707.38   4
  16   1  -6 13387.0 1848.48   2
  16   1  -6 17238.4 1702.20   4
   1 -17  -6 16915.6 1575.08   4
  -1 -16  -6 16444.3 1504.53   4
 -16  17  -6 13295.2 1237.43   1
 -17  16  -6 15287.7 1258.27   1
  17  -1  -6 16353.8 1969.85   2
  -1 -16  -3 32007.3 1473.45   4
  16   1  -3 33298.0 2050.18   2
  17  -1  -3 32302.4 2003.87   2
   1 -17  -3 28869.3 1489.00   4
  -1 -16  -3 30121.3 1329.18   1
   1 -17  -3 31341.6 1374.04   1
  17  -1  -3 34577.3 1908.05   4
  16   1  -3 32214.8 1792.32   4
  16   1  -3 36645.3 1678.71   3
 -16  17  -3 25250.8 1456.50   1
  17  -1  -3 34620.2 1667.73   3
 -17  16  -3 33850.5 1580.52   1
 -16  17   0 20539.1 1268.80   1
 -17  16   0 19818.3 1256.66   1
  17  -1   0 19798.8 912.158   1
  16   1   0 17243.1 855.639   1
  16   1   0 19269.5 1473.35   3
  17  -1   0 19379.4 1536.28   3
  -1 -16   0 21529.5 1336.63   1
 -16  17   3 40803.7 2077.23   1
 -17  16   3 38908.9 2075.22   1
 -16  17   3 37554.4 1688.32   2
  16   1   3 42910.3 2499.01   3
  17  -1   3 37506.8 2332.36   3
 -17  16   6 2985.18 978.489   1
  -1 -16   6 3752.83 575.109   4
  16   1   6 5234.98 1251.97   3
   1 -17   6 3535.35 619.071   4
  17  -1   6 3732.98 1303.05   3
 -16  17   6 3997.87 995.537   1
  16   1   9 4279.45 1461.58   3
  17  -1   9 6211.92 1640.54   3
   0 -17 -10 8010.35 1464.01   2
  17   0 -10 9669.46 1807.89   4
  17   0 -10 5014.43 1729.76   2
   0 -17 -10 11524.2 1724.04   4
 -17  17 -10 6138.04 1153.79   1
   0 -17  -7-493.477 715.321   2
  17   0  -7-230.925 748.397   4
   0 -17  -7 614.973 730.510   4
  17   0  -7-1587.12 1196.23   2
 -17  17  -7 16.5970 509.711   1
 -17  17  -4-50.7527 418.064   1
  17   0  -4 534.185 572.645   4
  17   0  -4-131.387 844.262   2
   0 -17  -4 281.496 452.863   4
   0 -17  -4 184.706 323.990   1
  17   0  -4 296.379 480.608   3
   0 -17  -1 204.251 352.305   1
  17   0  -1 30.7126 384.876   4
  17   0  -1 789.075 559.293   2
 -17  17  -1 456.027 410.045   1
  17   0  -1-41.2609 324.548   1
  17   0  -1 153.217 564.818   3
 -17  17   2 24958.9 1213.30   2
  17   0   2 23407.1 690.754   1
  17   0   2 25929.2 1996.61   3
 -17  17   2 24840.8 1600.63   1
 -17  17   5 118.254 644.179   1
   0 -17   5 72.5781 225.474   4
  17   0   5 629.229 959.644   3
 -17  17   8 9143.00 1592.56   1
 -17  17   8 8596.10 1040.75   3
  17   0   8 9546.82 1880.66   3
  17   0  11-669.986 1419.51   3
  18 -18  -9 819.857 1228.47   4
   0  18  -9 1362.85 1018.35   1
   0  18  -9 806.641 692.147   4
   0  18  -9 973.943 1030.95   2
  18 -18  -9-348.799 1145.13   2
   0  18  -6 24618.7 1921.53   1
  18 -18  -6 24071.4 2226.91   4
   0  18  -6 26153.5 1806.69   2
   0  18  -6 25359.5 1128.50   4
  18 -18  -6 23816.1 2164.15   2
  18 -18  -3 749.774 690.616   4
   0  18  -3-436.526 457.651   2
  18 -18  -3-393.948 584.490   2
   0  18  -3 157.906 507.718   1
  18 -18   0 28997.2 1349.98   2
   0  18   0 29313.6 1382.24   1
  18 -18   0 26726.1 1441.93   4
   0  18   0 29433.0 1335.45   2
  18 -18   3-80.7934 825.354   3
   0  18   3 231.298 480.971   4
   0  18   3 346.515 636.657   3
 -18   0   3-223.376 472.539   3
   0  18   3-78.0850 347.071   1
  18 -18   3 392.341 381.973   2
  18 -18   6 53681.6 3261.16   3
   0  18   6 51415.7 2193.06   1
   0  18   6 55403.8 3054.65   3
  18 -18   9 174.924 1177.74   3
   0  18   9 594.405 1145.60   3
  18 -17 -10 6065.36 1771.48   4
  -1  18 -10 6877.57 1501.40   1
  17 -18 -10 7536.97 1848.18   4
   1  17 -10 9549.93 1360.58   4
   1  17 -10 10186.5 1753.85   1
  18 -17 -10 8406.62 1883.24   2
   1  17 -10 7949.04 1622.94   2
  -1  18 -10 7591.76 1467.45   2
  17 -18 -10 7958.67 1866.74   2
  18 -17  -7 87361.9 4205.19   4
   1  17  -7 83953.4 3691.76   1
  -1  18  -7 88530.6 2413.58   4
  -1  18  -7 86773.0 3704.87   1
  17 -18  -7 86962.5 4205.83   4
  17 -18  -7 82687.8 4013.52   2
   1  17  -7 88327.6 2575.99   4
  -1  18  -7 84685.8 3282.62   2
  18 -17  -7 89046.2 4187.66   2
   1  17  -7 84647.8 3437.36   2
  18 -17  -4 26107.9 1897.45   4
  17 -18  -4 26155.0 1917.03   4
   1  17  -4 25901.7 1739.87   1
  -1  18  -4 26466.5 1742.40   1
  -1  18  -4 26887.5 1475.95   2
  18 -17  -4 24678.5 1887.35   2
  17 -18  -4 28911.7 2017.88   2
   1  17  -4 24800.4 1494.92   2
  -1  18  -1 55404.7 1966.89   1
  -1  18  -1 56169.6 1575.47   2
  18 -17  -1 52242.5 2053.55   2
  17 -18  -1 48988.4 2078.47   4
  17 -18  -1 52152.2 1943.27   2
   1  17  -1 56156.9 1991.80   1
  18 -17  -1 53930.8 2182.25   4
  18 -17   2 26643.4 1134.31   2
   1  17   2 23483.5 1127.29   1
  18 -17   2 24819.3 1939.50   3
  17 -18   2 27836.7 2072.14   3
  -1  18   2 27349.5 1314.00   1
 -18   1   2 28652.1 1572.67   3
   1  17   2 27597.6 1282.18   4
   1  17   2 29012.9 1946.49   3
  18 -17   2 32811.0 1182.31   2
  -1  18   2 27418.9 1868.93   3
 -17  -1   2 28967.3 1584.82   3
  -1  18   2 25949.0 1588.83   2
  17 -18   2 31956.3 1029.68   2
  -1  18   2 27912.9 1218.68   4
  17 -18   2 29434.8 1046.86   2
  18 -17   5 67354.7 3455.90   3
  17 -18   5 62257.3 3314.73   3
  -1  18   5 61943.2 2268.70   1
  17 -18   5 69162.0 2440.51   2
  -1  18   5 64999.3 3095.50   3
   1  17   5 66628.3 3185.81   3
   1  17   5 67461.4 2252.18   1
  18 -17   5 66849.7 2569.08   2
  18 -17   8 15174.5 1993.53   3
  17 -18   8 12185.4 1821.36   3
  -1  18   8 18306.8 2017.16   3
   2  16 -11 3082.02 1391.31   1
  16 -18 -11 4271.14 1709.10   4
  -2  18 -11 5031.40 1537.89   1
  18 -16 -11 4896.17 1821.88   4
   2  16 -11 3100.23 1441.13   2
  18 -16 -11 2967.65 1575.21   2
  16 -18 -11 5590.31 1793.90   2
  -2  18 -11 2221.19 1263.93   2
  -2  18  -8 8444.26 956.025   4
   2  16  -8 8095.94 1460.46   1
  -2  18  -8 10095.7 1493.07   1
  18 -16  -8 7760.97 1581.51   4
  16 -18  -8 7072.48 1564.39   4
   2  16  -8 9066.95 1479.45   2
   2  16  -8 9688.37 1154.19   4
  -2  18  -8 10050.4 1359.68   2
  18 -16  -8 5933.43 1536.32   2
  16 -18  -8 8108.99 1583.96   2
  16 -18  -5 12609.1 1520.81   4
  18 -16  -5 12389.0 1510.85   4
   2  16  -5 11590.0 1311.49   1
  -2  18  -5 10668.0 1216.85   1
  18 -16  -5 12116.4 1494.13   2
  -2  18  -5 12698.3 1129.02   2
 -18   2  -5 12050.6 526.679   1
   2  16  -5 12724.4 777.718   4
  16 -18  -5 11848.5 1409.67   2
   2  16  -5 10352.0 1186.88   2
  18 -16  -2 27287.5 1644.06   4
  -2  18  -2 25699.5 1049.89   2
  18 -16  -2 27824.8 1664.43   2
 -18   2  -2 26878.2 1047.32   1
   2  16  -2 25690.9 1284.70   2
   2  16  -2 24745.5 1460.11   1
  16 -18  -2 26313.2 1499.06   2
  -2  18  -2 27239.4 1530.36   1
  16 -18  -2 25496.9 1580.89   4
  -2  18   1 8755.32 773.918   1
  18 -16   1 5487.19 1043.58   3
  16 -18   1 6641.12 740.780   4
  18 -16   1 7417.72 673.933   2
   2  16   1 8485.10 602.919   4
  16 -18   1 6618.27 532.415   2
   2  16   1 6271.79 1000.50   3
  -2  18   1 8282.59 819.319   2
  -2  18   1 7554.11 426.983   4
   2  16   1 7587.92 646.688   1
   2  16   1 7379.33 833.419   2
  18 -16   4 4983.75 1200.10   3
   2  16   4 4641.85 605.754   1
  16 -18   4 4046.17 1029.86   3
 -18   2   4 3855.81 566.050   3
  16 -18   4 5229.16 674.852   2
  -2  18   4 4333.17 958.678   3
   2  16   4 5623.02 1086.87   3
  18 -16   4 5228.03 772.408   2
  -2  18   4 4112.44 653.588   1
  -2  18   7 164.796 537.423   1
  18 -16   7 782.114 1094.38   3
  16 -18   7 1813.48 1189.16   3
  -2  18   7 641.312 918.262   3
   2  16   7 744.793 973.526   3
  18 -16  10-842.835 1211.38   3
  16 -18  10 2371.56 1270.49   3
  -2  18  10 2104.84 1221.84   3
   2  16  10 287.954 1157.96   3
  18 -15  -9 2146.39 1235.63   4
  15 -18  -9 678.111 1171.72   4
  18 -15  -9 2333.12 1283.47   2
  -3  18  -9 2327.34 993.978   1
   3  15  -9 4293.76 1020.95   4
  -3  18  -9 2670.49 717.620   4
   3  15  -9 2052.15 1112.93   2
  15 -18  -9 2420.05 1256.08   2
  -3  18  -9 2642.21 976.647   2
   3  15  -9 2765.38 1239.05   1
 -18   3  -6 8937.84 540.465   1
  -3  18  -6 9156.05 1233.48   1
  18 -15  -6 7326.71 1314.87   4
  15 -18  -6 8906.69 1424.86   4
   3  15  -6 10061.6 1290.09   2
   3  15  -6 9568.09 927.351   4
  18 -15  -6 10631.2 1557.76   2
  15 -18  -6 10574.1 1481.03   2
  -3  18  -6 7196.48 927.751   2
   3  15  -6 10829.2 1427.90   1
   3  15  -3 23426.1 1512.13   1
 -18   3  -3 22857.2 890.786   1
   3  15  -3 22851.2 1348.99   2
  -3  18  -3 24010.8 1106.00   2
  15 -18  -3 20075.7 1572.03   4
  18 -15  -3 24865.2 1748.02   2
  -3  18  -3 22040.0 1497.20   1
  15 -18  -3 25053.5 1635.06   2
  18 -15  -3 22673.3 1656.09   4
 -18   3   0 23584.9 1273.14   1
   3  15   0 22859.4 1200.99   2
  18 -15   0 23912.7 1720.61   3
  15 -18   0 23570.6 1246.12   4
  18 -15   0 24393.0 1257.17   2
   3  15   0 21974.4 703.619   4
  18 -15   0 26581.8 1431.18   4
  15 -18   0 24637.1 1048.53   2
   3  15   0 25326.0 1719.13   3
   3  15   0 23782.3 1154.04   1
  -3  18   0 24489.5 1080.96   2
  -3  18   0 23486.6 1238.75   1
  18 -15   3 9852.12 1348.10   3
   3  15   3 9535.52 1028.52   4
  -3  18   3 10498.0 944.415   4
 -18   3   3 10496.3 930.775   3
  -3  18   3 10489.1 914.862   1
  -3  18   3 12461.9 1334.52   3
  15 -18   3 10608.9 661.735   2
   3  15   3 11320.6 1312.93   3
   3  15   3 9697.45 700.631   1
  -3  18   3 10215.5 1155.52   2
  18 -15   3 8793.36 824.503   2
  18 -15   6 32879.1 2561.48   3
  -3  18   6 28222.1 1734.16   1
  15 -18   6 29939.7 2363.65   3
  15 -18   6 30161.0 1773.82   2
  -3  18   6 28359.0 2061.80   3
   3  15   6 34067.7 2467.87   3
  18 -15   9 3291.43 1287.93   3
  15 -18   9 6339.36 1504.70   3
  -3  18   9 8183.76 1591.97   3
   3  15   9 9137.68 1617.52   3
  14 -18 -10 19247.0 2510.92   4
  18 -14 -10 16270.6 2532.94   4
  -4  18 -10 21322.2 2167.16   1
   4  14 -10 16458.0 2269.86   1
   4  14 -10 19580.4 1938.65   4
  -4  18 -10 16656.3 1550.19   4
   4  14 -10 18431.6 2143.65   2
  18 -14 -10 14064.5 2337.33   2
  14 -18 -10 15075.5 2212.77   2
  -4  18 -10 14529.4 1706.22   2
  18 -14  -7 28763.8 2497.04   4
  -4  18  -7 32173.4 2242.23   1
  14 -18  -7 30689.0 2506.67   4
   4  14  -7 34119.3 1912.05   4
   4  14  -7 34565.0 2353.46   2
  18 -14  -7 32186.0 2688.70   2
   4  14  -7 34443.7 2518.81   1
  -4  18  -7 33306.8 1931.24   2
  14 -18  -7 30629.2 2399.60   2
 -18   4  -7 33277.7 1199.71   1
  14 -18  -4 81067.4 3219.84   4
  14 -18  -4 78506.6 2977.84   2
   4  14  -4 84148.1 2811.20   2
  18 -14  -4 82544.3 3327.34   4
  -4  18  -4 81151.9 2895.21   1
   4  14  -4 85040.2 1957.90   4
  18 -14  -4 82917.1 3300.80   2
 -18   4  -4 86226.4 1646.36   1
   4  14  -4 76643.9 2919.25   1
  -4  18  -4 84828.9 2144.41   2
  18 -14  -1 58178.5 2458.49   3
  14 -18  -1 53504.2 1956.92   4
 -18   4  -1 53294.2 1755.72   1
   4  14  -1 53893.9 2328.42   3
  18 -14  -1 47092.6 1945.93   2
   4  14  -1 54897.3 1877.83   1
  18 -14  -1 56366.8 2138.40   4
  14 -18  -1 55125.8 1735.28   2
  -4  18  -1 55097.6 1130.69   2
  -4  18  -1 54324.5 1954.35   1
  -4  18  -1 52939.3 1250.63   2
  18 -14   2 43826.9 2467.42   3
  -4  18   2 43620.5 1421.35   4
   4  14   2 38303.6 1219.44   1
 -18   4   2 42569.2 1901.72   3
  -4  18   2 45409.7 1719.68   1
   4  14   2 44619.8 1773.03   4
 -14  -4   2 47091.4 1927.08   3
   4  14   2 49436.3 2418.48   3
  -4  18   2 46191.1 1949.57   2
  18 -14   5 42837.7 2763.45   3
  14 -18   5 41786.7 2565.93   3
   4  14   5 41458.9 1540.19   1
  -4  18   5 38539.7 1923.52   1
  14 -18   5 39709.1 1602.76   2
  -4  18   5 37140.5 2255.73   3
   4  14   5 39356.5 2541.39   3
  18 -14   8 16280.6 2044.92   3
  14 -18   8 15085.8 1835.27   3
  -4  18   8 15988.2 1759.04   3
   4  14   8 19597.1 2109.58   3
  18 -14  11 21129.1 2616.89   3
  14 -18  11 27919.5 2960.11   3
  -4  18  11 31854.2 2734.72   3
   4  14  11 26211.4 2831.03   3
   5  13 -11 3029.72 1444.20   1
  18 -13 -11-244.576 1530.72   4
  13 -18 -11 1214.27 1291.47   4
  -5  18 -11 3050.60 1222.48   1
   5  13 -11 522.083 1011.51   4
  -5  18 -11 1236.91 802.982   4
   5  13 -11 232.562 1263.15   2
  18 -13 -11-288.497 1404.05   2
  13 -18 -11 2381.27 1565.34   2
  -5  18 -11 1821.65 1013.51   2
  18 -13  -8 33647.9 2842.64   4
  -5  18  -8 32340.9 2373.91   1
  13 -18  -8 34228.6 2833.20   4
   5  13  -8 35389.0 2173.84   4
   5  13  -8 37129.6 2656.31   2
  18 -13  -8 34843.7 2921.86   2
  -5  18  -8 31681.0 1680.36   4
 -18   5  -8 31061.8 1353.23   1
  13 -18  -8 31349.6 2527.95   2
   5  13  -8 34746.7 2740.48   1
  -5  18  -8 30693.8 1980.23   2
 -18   5  -5 3555.96 429.145   1
   5  13  -5 3239.56 914.558   1
   5  13  -5 3854.37 782.861   3
  18 -13  -5 3351.89 933.034   4
   5  13  -5 3452.12 641.575   4
  18 -13  -5 4448.01 1103.95   2
  -5  18  -5 4229.60 825.665   1
  13 -18  -5 4977.72 1042.33   4
  -5  18  -5 3035.28 597.907   2
  13 -18  -5 2218.63 828.746   2
   5  13  -5 3424.11 794.464   2
   5  13  -2 21165.4 1223.92   2
  18 -13  -2 26057.0 1606.05   4
   5  13  -2 20875.3 1298.40   1
   5  13  -2 19452.0 728.645   4
  18 -13  -2 18886.8 1375.46   2
  -5  18  -2 19202.9 648.738   2
  13 -18  -2 18780.1 1301.86   4
   5  13  -2 21045.5 1446.07   3
  13 -18  -2 20896.4 1227.10   2
  -5  18  -2 21880.6 1326.93   1
 -18   5  -2 21021.0 998.107   1
 -18   5   1 74135.8 2615.09   3
  18 -13   1 74525.7 3007.37   3
  -5  18   1 73434.5 2151.56   1
  18 -13   1 80092.8 2086.22   2
  13 -18   1 74803.0 1892.77   4
   5  13   1 72491.0 1934.72   4
 -18   5   1 74522.9 2461.01   1
 -13  -5   1 71492.2 2500.93   3
   5  13   1 72473.7 2784.02   3
  -5  18   1 70202.5 1984.00   2
   5  13   1 72347.3 1639.53   1
  -5  18   1 72702.8 1346.14   4
  18 -13   4 30616.9 2267.91   3
 -18   5   4 31469.0 1266.51   3
  13 -18   4 29365.9 1051.13   2
  -5  18   4 28339.4 1838.20   3
   5  13   4 32101.7 2218.27   3
   5  13   4 30927.7 1140.91   1
  -5  18   4 32071.4 1667.51   1
  18 -13   7 24616.9 2304.22   3
  13 -18   7 27739.7 2248.23   3
  -5  18   7 26866.6 2043.12   3
   5  13   7 29047.7 2454.85   3
  -5  18   7 23673.9 1827.76   1
  18 -13  10 3729.72 1525.73   3
  -5  18  10 2162.20 1207.35   3
   5  13  10 3735.84 1421.64   3
  -6  18  -9 11661.0 1548.05   1
  18 -12  -9 10928.5 1906.59   4
 -18   6  -9 11831.7 1014.76   1
   6  12  -9 11515.5 1472.25   4
   6  12  -9 13335.7 1913.81   2
  18 -12  -9 15078.4 2144.45   2
  12 -18  -9 10064.8 1876.63   4
  12 -18  -9 9831.29 1790.22   2
  -6  18  -9 11823.1 1374.38   2
 -18   6  -6 2100.58 392.121   1
   6  12  -6 2087.16 685.043   3
  18 -12  -6 1805.85 1017.72   4
   6  12  -6 1580.14 653.505   4
  18 -12  -6 1396.57 1040.40   2
   6  12  -6 2576.73 815.972   2
  -6  18  -6 1140.51 683.684   1
   6  12  -6 2471.64 649.321   3
  12 -18  -6 865.126 726.824   2
  -6  18  -6 2219.97 583.880   2
  12 -18  -6 2063.55 927.149   4
   6  12  -3 41426.5 1857.93   2
  18 -12  -3 40580.1 2139.19   4
  12 -18  -3 38566.5 2008.70   4
   6  12  -3 38538.8 1328.74   4
  18 -12  -3 41312.4 2188.83   2
 -18   6  -3 42562.9 1328.44   1
  -6  18  -3 39964.8 1918.65   1
   6  12  -3 38747.0 1865.50   3
   6  12  -3 41045.2 2001.74   1
  12 -18  -3 40058.4 1844.98   2
  -6  18  -3 33082.7 827.050   2
  18 -12   0 9459.90 1181.71   3
  18 -12   0 10582.8 952.691   4
  18 -12   0 9883.09 870.622   2
  12 -18   0 9392.22 750.997   4
   6  12   0 9809.53 661.559   4
 -18   6   0 8873.75 836.105   1
   6  12   0 9411.60 1040.23   3
   6  12   0 9183.94 669.839   1
  -6  18   0 8591.27 545.832   2
  12 -18   0 6413.79 358.328   2
  -6  18   0 9216.74 813.120   1
  18 -12   3 41861.4 2504.14   3
  18 -12   3 34474.4 1624.40   2
   6  12   3 39152.7 1895.98   4
   6  12   3 37810.9 2252.63   3
  12 -18   3 36655.5 1520.83   4
  -6  18   3 39146.9 1959.61   2
 -18   6   3 40582.7 2146.33   1
  -6  18   3 40230.6 1768.33   1
 -18   6   3 37192.1 1595.15   3
   6  12   3 35778.1 1007.01   1
  -6  18   3 35049.2 1535.53   4
  -6  18   6 457.322 624.388   1
  12 -18   6 154.388 497.811   2
  -6  18   6-8.94355 585.486   3
   6  12   6 365.060 797.812   3
  18 -12   9 12361.9 1947.66   3
  -6  18   9 11772.4 1621.15   3
   6  12   9 9122.28 1639.57   3
 -11  -7 -10 9069.78 1386.60   2
  18 -11 -10 10359.0 2008.43   4
  11 -18 -10 11678.6 2020.44   4
   7  11 -10 11141.0 1588.13   4
 -11  -7 -10 9247.56 1449.24   4
   7  11 -10 10899.8 1886.52   2
 -18   7 -10 10356.1 1066.47   1
  18 -11 -10 11625.8 2092.47   2
  -7  18 -10 9034.92 1675.88   1
  -7  18 -10 10093.9 1394.02   2
  11 -18 -10 9923.72 1795.07   2
  18 -11  -7 14924.5 1875.68   4
  -7  18  -7 16706.4 1607.66   1
  11 -18  -7 19674.4 1976.75   4
   7  11  -7 19120.9 1875.17   2
  18 -11  -7 12507.7 1814.83   2
   7  11  -7 19607.0 1208.93   3
 -18   7  -7 20599.3 1129.16   1
   7  11  -7 18650.7 1603.06   4
  11 -18  -7 17242.8 1835.58   2
  -7  18  -7 18276.1 1332.95   2
 -18   7  -4 66612.2 1697.85   1
  11 -18  -4 64085.6 2783.35   4
   7  11  -4 64214.9 2067.16   4
  18 -11  -4 67121.8 2999.63   2
  -7  18  -4 64184.4 2513.29   1
   7  11  -4 66389.7 2288.60   3
   7  11  -4 62015.3 2577.75   2
  11 -18  -4 61177.8 2480.29   2
  -7  18  -4 58695.8 1337.12   2
  18 -11  -4 65397.7 2918.49   4
  11 -18  -1 97869.4 2530.85   4
  18 -11  -1 96956.5 3059.42   3
  18 -11  -1 88589.7 2808.97   4
   7  11  -1 99721.5 1699.22   4
   7  11  -1 96003.3 2385.32   1
   7  11  -1 94202.5 2921.17   3
  11 -18  -1 94942.5 1862.13   2
  18 -11  -1 95228.5 2735.19   2
  -7  18  -1 102120. 2626.02   1
 -18   7  -1 93406.0 2318.12   1
  -7  18   2 49323.0 1478.32   4
   7  11   2 50803.5 1070.05   1
   7  11   2 48238.3 1938.19   4
  -7  18   2 51559.6 1938.52   2
 -18   7   2 50557.9 2238.32   1
 -18   7   2 53610.2 2128.94   3
  -7  18   2 50151.1 1888.06   1
  18 -11   2 55040.0 2661.67   3
   7  11   2 50798.1 2466.61   3
  -7  18   5 72299.0 2762.28   1
  11 -18   5 72011.0 1799.28   2
  -7  18   5 66638.2 2791.15   3
   7  11   5 78317.9 3501.73   3
  18 -11   5 63642.4 3244.96   3
  -7  18   8 15741.7 1678.15   1
  -7  18   8 15903.0 1662.80   3
  18 -11   8 17166.8 2049.05   3
  18 -11  11 7918.23 1873.54   3
  -7  18  11 11688.0 1747.19   3
  -8  18 -11 4840.77 1206.99   2
  18 -10 -11 6239.69 1804.21   4
 -10  -8 -11 6903.07 1402.87   2
  10 -18 -11 8596.64 2018.16   4
  -8  18 -11 5182.97 1308.64   1
 -10  -8 -11 7148.10 1442.55   4
   8  10 -11 6942.89 1540.46   4
   8  10 -11 9264.47 2150.97   2
  18 -10 -11 4498.54 1702.64   2
  10 -18 -11 6536.01 1688.33   2
  18 -10  -8 14848.7 1977.13   4
  -8  18  -8 16022.2 1637.85   1
 -10  -8  -8 17288.9 897.082   1
  10 -18  -8 20074.1 2162.94   4
   8  10  -8 18428.6 1712.78   4
   8  10  -8 17722.4 1986.55   2
  18 -10  -8 16454.6 2124.30   2
 -10  -8  -8 18727.1 1727.26   4
 -18   8  -8 20695.9 1288.76   1
  10 -18  -8 16323.4 1896.73   2
  -8  18  -8 19872.1 1542.55   2
  18 -10  -5 48880.4 2720.52   4
   8  10  -5 51061.0 2553.73   2
   8  10  -5 39569.0 1881.32   4
  10 -18  -5 49454.8 2625.51   4
  18 -10  -5 49916.4 2792.17   2
  -8  18  -5 49116.7 2327.84   1
   8  10  -5 51828.1 1935.70   3
  10 -18  -5 48520.3 2396.23   2
  -8  18  -5 50927.9 1516.48   2
 -18   8  -5 48337.6 1552.64   1
  18 -10  -2 58068.8 2230.17   3
   8  10  -2 54415.4 2067.97   2
  18 -10  -2 62870.9 2446.54   4
   8  10  -2 56019.8 2133.96   1
   8  10  -2 56149.8 1525.75   4
  10 -18  -2 57600.4 2178.58   4
  10 -18  -2 56342.3 1773.05   2
 -18   8  -2 58129.8 1710.96   1
   8  10  -2 53906.6 2128.74   3
  -8  18  -2 55127.4 2065.54   1
  18 -10  -2 56520.5 2312.74   2
  -8  18   1 76550.1 1788.81   2
   8  10   1 77161.6 2116.00   4
 -18   8   1 76334.4 2489.07   1
   8  10   1 80222.1 1460.50   1
   8  10   1 76075.8 2872.23   3
  -8  18   1 82733.1 2370.73   1
  18 -10   1 76260.3 2109.52   1
  10 -18   1 80354.2 1684.60   4
 -18   8   1 78595.4 2758.65   3
  18 -10   1 76082.8 2972.31   3
  -8  18   4 50018.0 2165.18   1
 -18   8   4 48862.6 2551.90   1
  10 -18   4 47510.6 1880.55   4
   8  10   4 51509.2 2761.56   3
 -18   8   4 48521.8 1700.42   3
  18 -10   4 45531.6 2663.52   3
  -8  18   7 22745.7 1854.04   1
  -8  18   7 28144.5 2019.89   3
   8  10   7 24523.6 2241.31   3
  18 -10   7 25043.9 2291.19   3
  -8  18  10 10085.2 1572.01   3
   8  10  10 9767.04 1802.88   3
  18 -10  10 11134.5 2031.77   3
 -18   9  -9 8706.40 988.534   1
  18  -9  -9 5298.24 1502.46   4
  -9  -9  -9 11388.6 1505.33   2
  -9  18  -9 10826.1 1503.51   1
   9   9  -9 8194.74 1342.09   4
   9 -18  -9 7365.83 1621.17   4
  -9  -9  -9 9943.77 1406.02   4
   9   9  -9 7380.65 1631.64   2
  18  -9  -9 8221.02 1757.41   2
   9 -18  -9 10759.4 1670.56   2
  -9  18  -9 8763.42 1156.77   2
  -9  18  -6 3208.65 586.045   2
   9   9  -6 1791.85 538.057   3
   9 -18  -6 1625.28 838.372   4
  18  -9  -6 4405.93 1071.39   4
   9   9  -6 2432.17 720.781   4
   9   9  -6 1610.10 843.587   2
  18  -9  -6 2949.87 1045.10   2
  -9  -9  -6 3043.87 763.124   4
  -9  18  -6 1333.45 647.095   1
  -9  -9  -6 1519.62 164.579   1
   9   9  -6 2855.22 541.065   3
   9 -18  -6 2167.90 830.736   2
 -18   9  -6 3013.48 526.830   1
  18  -9  -3 31908.9 1539.62   3
   9   9  -3 36108.9 1887.39   2
  18  -9  -3 32326.2 1915.83   4
  18  -9  -3 32929.4 2030.27   2
  -9  18  -3 33766.1 1734.35   1
   9   9  -3 34971.1 1660.95   3
   9   9  -3 34147.0 1453.35   4
   9 -18  -3 36236.7 1672.23   2
 -18   9  -3 35874.5 1354.73   1
   9 -18  -3 30917.4 1758.64   4
 -18   9   0 3299.60 612.638   1
  -9  18   0 4044.00 603.488   1
  18  -9   0 3351.70 507.069   1
  18  -9   0 2341.65 759.513   3
   9 -18   0 2941.38 455.587   4
  18  -9   0 3948.36 691.353   2
   9   9   0 3760.39 778.881   3
   9   9   0 3511.97 446.065   1
 -18   9   3 32554.5 1948.17   1
  18  -9   3 32721.8 1525.22   1
  -9  18   3 33999.9 1728.94   2
   9 -18   3 35912.0 1375.36   4
   9   9   3 33036.6 2141.63   3
  -9  18   3 33946.8 1704.22   1
 -18   9   3 34791.3 1642.68   3
  -9  18   3 32090.0 1443.20   4
  18  -9   3 37873.3 2323.71   3
  18  -9   6 4684.03 1158.75   3
  -9  18   6 2302.87 646.246   3
   9 -18   6 1909.60 556.370   2
  -9  18   6 3486.39 869.218   1
 -18   9   6 1136.57 215.252   3
 -18   9   6 1588.45 239.512   3
   9   9   6 3769.07 1107.40   3
  -9  18   9 13295.4 1595.80   3
   9   9   9 11821.7 1875.50   3
  18  -9   9 11706.7 1989.72   3
  -8 -10 -10 9770.61 1476.19   2
  18  -8 -10 11358.0 2087.10   4
   8 -18 -10 7511.46 1736.62   4
 -18  10 -10 9739.65 1132.25   1
 -10  18 -10 8262.93 1412.57   1
  10   8 -10 8541.90 1543.89   4
  -8 -10 -10 8470.30 1441.42   4
  10   8 -10 8454.57 1765.14   2
  18  -8 -10 8401.49 1885.38   2
 -10  18 -10 6719.04 1147.96   2
   8 -18 -10 8844.17 1653.31   2
  18  -8  -7 24012.0 2225.50   4
  10   8  -7 28204.8 2021.81   4
   8 -18  -7 28593.6 2317.23   4
  10   8  -7 28281.8 2340.29   2
 -10  18  -7 28381.1 1975.52   1
  18  -8  -7 28061.6 2482.60   2
  -8 -10  -7 28266.9 1941.18   4
 -18  10  -7 28670.2 1479.52   1
  10   8  -7 20681.1 996.275   3
   8 -18  -7 27348.0 2092.43   2
 -10  18  -7 28595.3 1468.83   2
  18  -8  -4 47876.9 2528.92   2
  18  -8  -4 48410.9 2485.88   4
  10   8  -4 49264.5 2398.98   2
  10   8  -4 46728.8 1944.55   4
   8 -18  -4 47341.9 2282.24   4
 -10  18  -4 47801.5 2164.02   1
  10   8  -4 49084.7 1857.98   3
   8 -18  -4 46138.0 2058.04   2
 -18  10  -4 49958.0 1645.48   1
   8 -18  -1 81462.7 1472.82   2
  10   8  -1 77920.1 1820.64   4
   8 -18  -1 80828.7 2141.29   4
  18  -8  -1 82015.7 2534.82   2
 -18  10  -1 76959.2 2130.57   1
  10   8  -1 82083.4 2753.81   3
  18  -8  -1 85550.1 2595.97   4
 -10  18  -1 80980.5 2332.23   1
  18  -8  -1 82060.7 2772.20   3
   8 -18   2 51779.6 1114.43   4
 -10  18   2 49895.9 1766.67   2
 -10  18   2 52728.1 2009.50   1
  10   8   2 50917.8 2025.05   4
   8 -18   2 52920.6 1317.90   4
 -10  18   2 47085.8 1524.55   4
  18  -8   2 49985.7 1693.51   1
  10   8   2 54754.4 2584.07   3
 -18  10   2 50374.6 2195.13   1
 -18  10   2 48141.4 2063.80   3
  18  -8   2 50040.3 2545.54   3
 -18  10   5 46384.4 2621.94   1
   8 -18   5 46338.9 1952.74   4
 -10  18   5 43308.0 2281.18   1
  -8 -10   5 45138.6 1504.78   4
 -10  18   5 41030.2 2044.43   3
  10   8   5 46841.4 2819.91   3
 -18  10   5 48163.2 1625.57   3
  18  -8   5 44114.4 2731.38   3
   8 -18   5 41167.7 1215.36   2
 -10  18   8 20115.5 1953.70   1
 -10  18   8 18011.2 1671.14   3
  10   8   8 24125.0 2375.81   3
  18  -8   8 20816.7 2212.69   3
  18  -8  11 6518.82 1767.40   3
  10   8  11 7860.50 1861.23   3
  -7 -11 -11 10712.1 1691.92   2
 -11  18 -11 20460.8 2086.18   1
  18  -7 -11 19148.5 2751.29   4
   7 -18 -11 10575.2 1971.89   4
  -7 -11 -11 13477.5 1970.14   4
 -18  11 -11 14574.3 1463.68   1
  11   7 -11 12964.8 2259.34   2
  11   7 -11 14717.8 2048.40   4
  18  -7 -11 14219.5 2449.48   2
   7 -18 -11 10654.8 1891.15   2
 -11  18 -11 11890.6 1441.68   2
  -7 -11  -8 13583.4 1477.87   2
   7 -18  -8 13347.9 1726.99   4
  18  -7  -8 11708.1 1729.79   4
  11   7  -8 14432.1 1642.86   4
 -11  18  -8 15263.1 1562.00   1
  11   7  -8 14521.0 1935.43   2
  18  -7  -8 13090.9 1975.28   2
  -7 -11  -8 15103.4 1559.26   4
 -18  11  -8 14128.0 1195.34   1
   7 -18  -8 16935.5 1794.17   2
 -11  18  -8 11403.1 1106.25   2
 -11  18  -5 70653.6 1517.27   2
  18  -7  -5 74561.9 3336.27   4
  -7 -11  -5 69315.3 1202.72   1
  11   7  -5 77031.2 2798.20   4
  11   7  -5 81247.8 3371.21   2
  18  -7  -5 78167.9 3523.10   2
   7 -18  -5 76924.1 3145.62   4
 -11  18  -5 76831.7 2797.19   1
  -7 -11  -5 82195.0 2725.86   4
  11   7  -5 87261.9 2268.67   3
 -18  11  -5 76840.9 2189.76   1
   7 -18  -5 73465.3 2810.24   2
  18  -7  -2 49386.0 2022.80   3
   7 -18  -2 48834.0 1537.17   2
  18  -7  -2 50394.3 2172.45   4
  11   7  -2 50358.8 1668.93   4
 -18  11  -2 48788.7 1643.96   1
  18  -7  -2 47260.7 2138.64   2
   7 -18  -2 50297.6 1893.85   4
  11   7  -2 51936.1 2103.93   3
 -11  18  -2 51848.6 1953.08   1
  11   7  -2 47203.1 2046.27   2
 -18  11   1 89749.1 2676.63   1
   7 -18   1 95622.6 1595.62   4
  11   7   1 90256.4 1358.74   1
  11   7   1 93281.2 1587.58   1
  11   7   1 91076.9 2352.00   4
 -11  18   1 97576.7 2649.13   1
 -11  18   1 97416.3 1739.67   2
  11   7   1 100627. 3334.84   3
  18  -7   1 92731.5 2115.94   1
 -18  11   1 89797.1 2976.86   3
  18  -7   1 91646.5 3228.99   3
 -11  18   4 60755.8 2554.16   1
  18  -7   4 60763.2 1995.79   1
 -18  11   4 59658.4 2801.02   1
   7 -18   4 62977.0 1908.84   4
  11   7   4 57265.1 2875.52   3
 -18  11   4 56360.4 2060.62   3
  18  -7   4 59766.4 3061.11   3
 -11  18   7 16262.4 1705.36   1
 -11  18   7 16371.7 1470.25   3
  11   7   7 16181.3 1983.86   3
  18  -7   7 14407.4 1839.76   3
  18  -7  10 7675.55 1668.62   3
 -11  18  10 11232.1 1528.47   3
  11   7  10 9892.34 1845.64   3
 -12  18  -9 9288.17 1124.49   2
  -6 -12  -9 9715.58 1388.33   2
  -6 -12  -9 8785.33 1386.43   4
  18  -6  -9 6317.53 1504.68   4
  12   6  -9 10550.8 1633.06   4
   6 -18  -9 5612.04 1298.42   4
  12   6  -9 9471.72 1750.02   2
 -18  12  -9 6974.46 1023.05   1
  18  -6  -9 8630.46 1929.67   2
 -12  18  -9 9270.98 1375.89   1
   6 -18  -9 10826.0 1614.09   2
   6 -18  -6 1235.98 757.857   2
  12   6  -6 773.352 306.319   3
 -12  18  -6 403.853 318.065   2
  18  -6  -6 688.759 811.993   4
   6 -18  -6 682.189 659.881   4
  12   6  -6 593.664 882.039   2
  18  -6  -6 1312.02 929.664   2
  -6 -12  -6 593.344 598.220   4
  12   6  -6 885.792 663.734   4
 -12  18  -6 559.377 565.024   1
  12   6  -6 517.956 328.021   3
 -18  12  -6 385.883 471.135   1
  -6 -12  -6 617.983 256.955   1
  18  -6  -3 38105.5 1663.32   3
 -18  12  -3 37255.8 1503.12   1
  -6 -12  -3 34294.6 1071.54   1
  12   6  -3 36127.5 1649.63   4
  12   6  -3 38299.1 2031.45   2
   6 -18  -3 34721.7 1746.30   4
  18  -6  -3 32022.1 2032.43   2
  12   6  -3 36638.6 1690.03   3
 -12  18  -3 35666.1 1713.38   1
  18  -6  -3 33837.1 1954.23   4
   6 -18  -3 35600.2 1597.39   2
 -12  18   0 9128.07 861.554   1
  18  -6   0 7865.00 662.899   1
   6 -18   0 7730.94 535.053   4
  12   6   0 9041.12 692.404   1
 -18  12   0 7612.64 806.644   1
  12   6   0 9752.88 1162.53   3
  18  -6   0 9492.51 1134.19   3
 -18  12   3 37775.6 2068.35   1
 -12  18   3 38174.4 1758.71   2
   6 -18   3 39777.7 1179.98   4
  12   6   3 42296.4 2405.83   3
 -12  18   3 37401.4 1905.53   1
  18  -6   3 37971.1 1407.70   1
  18  -6   3 40009.8 2390.36   3
 -18  12   3 38891.7 1854.35   3
   6 -18   6 1387.32 631.521   4
   6 -18   6 1298.75 462.858   2
 -12  18   6 1939.02 752.698   1
 -12  18   6 1166.91 577.038   3
 -18  12   6 2119.38 873.035   1
  12   6   6 1674.37 941.069   3
  -6 -12   6 1286.12 438.565   4
 -18  12   6 1095.88 494.344   3
  18  -6   6 1377.22 974.766   3
  18  -6   9 9026.57 1767.74   3
 -12  18   9 12146.5 1423.08   3
  12   6   9 12421.5 1891.61   3
   5 -18 -10 6019.80 1400.15   2
 -13  18 -10 4299.27 930.944   2
  -5 -13 -10 3182.74 1191.19   2
  18  -5 -10 6536.60 1743.99   4
   5 -18 -10 5119.79 1348.57   4
  -5 -13 -10 3294.26 1162.79   4
  13   5 -10 4832.02 1427.58   4
 -13  18 -10 2855.26 947.780   1
  13   5 -10 6389.39 1700.66   2
  18  -5 -10 3634.23 1635.98   2
 -18  13 -10 3436.97 886.874   1
 -13  18  -7 25928.9 1832.28   1
 -13  18  -7 24914.4 1320.50   2
  -5 -13  -7 26139.0 1900.69   2
  18  -5  -7 24823.8 2280.23   4
  13   5  -7 28044.3 2110.51   4
  13   5  -7 24603.2 2270.80   2
   5 -18  -7 26238.1 2149.66   4
  18  -5  -7 27658.3 2539.05   2
  -5 -13  -7 23918.9 1846.68   4
 -18  13  -7 28076.9 1596.63   1
   5 -18  -7 27325.8 2026.05   2
  18  -5  -4 28563.2 1246.10   3
  18  -5  -4 31019.1 2139.18   2
  18  -5  -4 36011.3 2148.78   4
  13   5  -4 31220.2 1765.80   4
  13   5  -4 29507.3 2014.20   2
   5 -18  -4 27613.9 1678.76   4
  -5 -13  -4 29312.9 996.021   1
  -5 -13  -4 31329.5 1532.26   4
 -13  18  -4 28638.6 1629.23   1
  13   5  -4 31213.2 1463.94   3
 -18  13  -4 28708.2 1389.34   1
   5 -18  -4 31068.6 1619.46   2
 -13  18  -1 68870.3 2236.36   1
   5 -18  -1 73095.1 1768.13   4
 -18  13  -1 70618.5 2125.20   1
  18  -5  -1 68375.3 1998.25   1
  13   5  -1 71744.3 1996.18   4
  13   5  -1 67276.8 2078.66   1
  13   5  -1 74086.9 2656.35   3
  18  -5  -1 74056.0 2505.09   2
  18  -5  -1 72597.2 2624.86   3
  18  -5  -1 68237.2 2382.52   4
 -18  13   2 18830.3 1388.40   1
 -13  18   2 19173.9 1035.38   2
 -13  18   2 20585.1 1368.24   1
  18  -5   2 17677.2 891.176   1
  13   5   2 17722.6 1571.57   3
  18  -5   2 18904.6 1628.79   3
 -18  13   2 17866.9 1387.84   3
 -18  13   5 4328.15 678.429   3
  -5 -13   5 3657.77 460.885   4
 -18  13   5 3922.52 938.690   1
   5 -18   5 3971.13 614.451   4
 -13  18   5 3190.45 864.948   1
  13   5   5 3598.49 1048.90   3
  18  -5   5 6710.98 1323.86   3
 -13  18   8 28729.0 2398.26   1
 -13  18   8 32099.9 2011.60   3
  13   5   8 34422.6 2812.05   3
  18  -5   8 34959.1 2811.98   3
  18  -5  11 1079.73 1310.77   3
  13   5  11-577.280 1469.23   3
 -14  18 -11 19516.8 1739.55   2
  -4 -14 -11 26107.8 2388.75   2
 -14  18 -11 26840.4 2293.39   1
   4 -18 -11 29509.1 2846.34   4
  -4 -14 -11 30666.3 2676.38   4
 -18  14 -11 26043.1 2015.87   1
  14   4 -11 21502.1 2806.67   2
  18  -4 -11 22103.4 2944.54   2
  14   4 -11 28067.0 2788.63   4
  18  -4 -11 27038.7 2968.92   4
   4 -18 -11 27512.2 2698.37   2
  14   4  -8 13305.7 1714.51   4
  -4 -14  -8 16254.4 1687.09   2
 -14  18  -8 12687.7 1141.06   2
   4 -18  -8 16421.7 1848.80   4
  18  -4  -8 10090.7 1698.39   4
  14   4  -8 13133.5 2034.09   2
  18  -4  -8 14534.6 2070.78   2
 -14  18  -8 16313.3 1599.26   1
 -18  14  -8 12880.5 1235.96   1
  -4 -14  -8 16114.3 1736.13   4
   4 -18  -8 14560.3 1658.45   2
  14   4  -5 41423.4 2610.17   2
  18  -4  -5 44631.4 2608.64   4
  14   4  -5 37494.4 2150.46   4
  -4 -14  -5 40802.5 1992.22   4
  18  -4  -5 35897.9 2462.62   2
   4 -18  -5 38496.0 2137.99   4
 -14  18  -5 37503.6 1950.75   1
  -4 -14  -5 37034.5 1212.08   1
 -18  14  -5 34296.9 1626.50   1
  14   4  -5 44713.9 1495.10   3
   4 -18  -5 40159.1 2031.30   2
  14   4  -2 44794.7 1763.70   4
 -18  14  -2 42102.2 1687.87   1
  14   4  -2 43289.0 2100.32   2
  18  -4  -2 39935.0 1929.98   4
  -4 -14  -2 43373.1 1490.05   1
   4 -18  -2 42639.0 1604.46   4
  14   4  -2 39000.3 1780.39   1
  14   4  -2 46390.5 2007.64   3
 -14  18  -2 42095.9 1768.06   1
  18  -4  -2 44878.7 1995.09   3
 -14  18   1 47160.7 1924.63   1
  14   4   1 42080.7 894.492   1
  14   4   1 50746.6 2431.19   3
 -18  14   1 48783.2 2000.58   1
  18  -4   1 44936.4 2336.68   3
  18  -4   1 46208.5 1351.40   1
 -14  18   4 74970.6 2955.62   1
  14   4   4 80828.1 3476.41   3
 -18  14   4 75639.3 3090.63   1
  18  -4   4 76333.6 3432.97   3
   4 -18   4 71910.9 1539.54   4
 -18  14   4 68801.7 2433.21   3
 -14  18   7 37980.9 2650.29   1
 -18  14   7 33494.4 1484.29   3
 -14  18   7 36171.5 2035.27   3
 -18  14   7 33367.2 2584.85   1
  14   4   7 36787.3 2832.43   3
  18  -4   7 39133.0 2842.67   3
  14   4  10 15888.3 2336.38   3
  18  -4  10 18481.6 2364.54   3
  -3 -15  -9 8243.46 1346.26   2
   3 -18  -9 7410.59 1306.53   2
 -15  18  -9 6299.47 945.266   2
  18  -3  -9 8135.68 1718.02   4
  15   3  -9 7284.73 1492.21   4
   3 -18  -9 8146.48 1553.38   4
  15   3  -9 8015.21 1803.25   2
 -18  15  -9 7702.13 1094.03   1
  18  -3  -9 6636.83 1677.08   2
 -15  18  -9 6795.91 1133.03   1
  -3 -15  -9 8494.20 1461.42   4
  -3 -15  -6 34329.3 1957.33   2
  18  -3  -6 32261.0 2410.52   4
  15   3  -6 31493.1 2479.79   2
  18  -3  -6 29252.4 2488.02   2
   3 -18  -6 33283.7 2184.70   4
  -3 -15  -6 35214.6 2082.84   4
 -15  18  -6 33578.8 1928.71   1
 -18  15  -6 32748.8 1731.26   1
  -3 -15  -6 28039.1 1194.24   1
  15   3  -6 30192.9 2176.56   4
   3 -18  -6 28892.3 1891.24   2
   3 -18  -3 12226.4 910.534   2
  18  -3  -3 8580.21 1103.27   4
  15   3  -3 11399.9 1093.87   4
  18  -3  -3 10557.7 1318.12   2
  15   3  -3 9602.21 1178.64   2
  -3 -15  -3 10528.2 747.908   1
   3 -18  -3 10514.0 976.384   4
  -3 -15  -3 11719.2 890.628   4
  15   3  -3 11583.4 1019.18   3
 -15  18  -3 11491.1 1014.49   1
  18  -3  -3 10727.4 971.742   3
 -18  15  -3 11408.6 934.909   1
  15   3   0 22778.2 990.688   1
 -15  18   0 23590.6 1379.02   1
  18  -3   0 20583.7 980.975   1
 -18  15   0 23019.8 1322.86   1
  15   3   0 22948.4 1657.09   3
  18  -3   0 23803.7 1671.52   3
  18  -3   3 22537.5 891.130   1
 -15  18   3 19677.0 1264.77   2
 -18  15   3 21109.0 1580.23   1
  15   3   3 20281.6 1841.59   3
  18  -3   3 20714.6 1814.92   3
 -15  18   3 20218.4 1502.24   1
 -15  18   6 9118.85 1362.39   1
  -3 -15   6 10385.5 807.740   4
   3 -18   6 9568.03 927.348   4
 -18  15   6 10606.6 1464.08   1
  15   3   6 10767.4 1726.34   3
  18  -3   6 8447.34 1479.56   3
 -18  15   6 8767.95 1016.19   3
 -15  18   9 1031.88 734.600   3
  15   3   9 1424.02 1381.14   3
  18  -3   9 2925.98 1400.24   3
   2 -18 -10-1107.35 1048.84   2
  -2 -16 -10 1672.99 1100.22   2
  18  -2 -10 1356.22 1246.40   4
  16   2 -10 803.475 1072.70   4
   2 -18 -10-167.159 1172.95   4
  -2 -16 -10 1173.91 1024.13   4
  16   2 -10 2531.60 1530.48   2
  18  -2 -10 1251.33 1272.12   2
 -16  18 -10 1423.40 814.261   1
 -18  16 -10 109.031 659.944   1
   2 -18  -7 1381.62 768.101   2
  -2 -16  -7-96.7529 708.392   2
  16   2  -7 625.745 815.674   4
  16   2  -7-866.730 937.742   2
  18  -2  -7 248.779 951.626   2
   2 -18  -7 1114.07 821.848   4
  -2 -16  -7 358.645 769.060   4
 -16  18  -7 109.814 629.382   1
  18  -2  -7 632.127 932.944   4
 -18  16  -7 358.819 515.478   1
  18  -2  -4 2905.26 550.982   3
 -18  16  -4 2772.51 582.271   1
   2 -18  -4 2801.11 604.090   2
  16   2  -4 4090.00 821.596   4
  16   2  -4 2732.70 888.168   2
  18  -2  -4 3523.60 853.214   4
   2 -18  -4 3610.15 768.890   4
  18  -2  -4 2966.36 906.221   2
  -2 -16  -4 2943.05 486.499   1
  -2 -16  -4 4005.55 684.348   4
  16   2  -4 4948.70 685.279   3
 -16  18  -4 2476.65 621.723   1
  -2 -16  -1 5573.84 701.094   1
 -16  18  -1 6145.10 784.004   1
  16   2  -1 5320.80 712.674   4
  18  -2  -1 6412.77 790.330   4
  16   2  -1 5099.87 635.620   1
  18  -2  -1 4198.70 727.256   2
 -18  16  -1 5460.08 729.998   1
   2 -18  -1 5467.55 419.707   4
  18  -2  -1 5001.16 623.024   1
  16   2  -1 5568.46 927.367   3
  18  -2  -1 6372.29 951.236   3
 -16  18   2 25236.0 1169.59   2
  18  -2   2 21871.3 818.686   1
 -16  18   2 27326.1 1627.35   1
  16   2   2 26871.3 1958.52   3
  18  -2   2 24287.3 1920.66   3
 -18  16   2 24636.1 1623.44   1
  -2 -16   5 12097.5 631.855   4
   2 -18   5 10660.9 670.144   4
 -16  18   5 11933.4 1398.57   1
  16   2   5 11492.5 1589.32   3
  18  -2   5 10766.8 1614.45   3
 -18  16   5 12113.8 1419.71   1
 -16  18   8 5961.21 985.375   3
 -18  16   8 7286.32 864.652   3
 -16  18   8 5840.37 1387.19   1
  16   2   8 5440.60 1502.82   3
  18  -2   8 6526.25 1630.20   3
  16   2  11 2489.43 1488.47   3
  18  -2  11 3008.20 1643.34   3
   1 -18  -8 17213.6 1703.65   2
  -1 -17  -8 14380.1 1555.70   2
  18  -1  -8 16099.7 1999.06   4
  17   1  -8 15218.8 1860.73   4
  18  -1  -8 14989.1 2173.72   2
   1 -18  -8 15215.5 1754.89   4
  -1 -17  -8 16868.2 1771.75   4
 -17  18  -8 16682.8 1544.33   1
 -18  17  -8 17518.2 1514.42   1
  17   1  -8 19322.6 2299.41   2
  18  -1  -5 52433.9 1343.19   3
   1 -18  -5 62828.9 2478.79   2
  -1 -17  -5 65425.0 2529.85   2
  17   1  -5 58879.3 2843.18   4
  17   1  -5 65514.2 3367.30   2
  18  -1  -5 58816.2 3190.27   2
  18  -1  -5 60049.3 2989.64   4
   1 -18  -5 65177.3 2645.64   4
  -1 -17  -5 63075.8 2564.06   4
  -1 -17  -5 55251.6 1785.85   1
 -17  18  -5 61610.5 2394.45   1
 -18  17  -5 66522.3 2407.86   1
  17   1  -5 58957.8 1581.35   3
 -17  18  -2 28059.1 1494.65   1
  18  -1  -2 29390.0 1821.85   2
 -18  17  -2 27895.4 1450.26   1
  18  -1  -2 24468.7 1510.34   4
  17   1  -2 25327.9 1516.38   4
  -1 -17  -2 24323.9 1314.87   1
   1 -18  -2 28834.2 1168.77   4
  17   1  -2 30231.1 1828.21   2
  -1 -17  -2 30412.3 1116.59   4
  17   1  -2 28080.3 1663.99   3
  18  -1  -2 24770.1 1617.13   3
  18  -1   1 48288.2 1227.16   1
  17   1   1 47880.8 1105.79   1
 -17  18   1 52354.6 2144.17   1
  17   1   1 56099.5 2655.38   3
 -18  17   1 52011.2 2135.13   1
  18  -1   1 55353.8 2662.07   3
 -17  18   4 25818.0 1857.11   1
 -18  17   4 28435.1 1977.45   1
  17   1   4 25238.2 2173.15   3
  18  -1   4 26942.2 2163.71   3
 -18  17   7 85096.3 4000.91   1
 -17  18   7 84781.0 2837.32   3
 -18  17   7 80709.6 2607.67   3
 -17  18   7 78499.5 3825.99   1
  17   1   7 89491.8 4333.52   3
  18  -1   7 82202.9 4178.21   3
  17   1  10 9575.55 1958.19   3
  18  -1  10 6088.47 1760.92   3
   0 -18  -9-1235.49 899.208   2
  18   0  -9 585.782 1097.63   4
   0 -18  -9-1089.05 930.953   4
  18   0  -9-2666.41 1443.14   2
 -18  18  -9 1117.53 720.380   1
   0 -18  -6 56448.2 2551.49   2
  18   0  -6 58728.6 3433.14   2
   0 -18  -6 59635.1 2762.77   4
 -18  18  -6 56262.4 2417.62   1
  18   0  -6 56973.5 3122.36   4
  18   0  -3 229.173 572.414   4
  18   0  -3-816.758 681.017   2
 -18  18  -3 490.698 466.596   1
   0 -18  -3-464.260 398.545   4
   0 -18  -3 501.290 397.376   1
  18   0  -3 1056.01 603.925   3
 -18  18   0 26253.9 1487.65   1
  18   0   0 22294.0 992.951   1
  18   0   0 27020.4 1832.72   3
 -18  18   3 70.9659 545.431   1
  18   0   3 1801.97 891.302   3
 -18  18   6 31943.7 2433.02   1
  18   0   6 32953.7 2648.67   3
  18   0   9 907.055 1315.51   3
   0  19 -10 24727.3 2597.81   1
  19 -19 -10 19912.8 2805.95   4
   0  19 -10 23708.4 2283.27   2
  19 -19 -10 22246.1 2712.81   2
  19 -19  -7 904.109 945.356   4
   0  19  -7-255.183 838.836   1
   0  19  -7 389.457 413.546   4
   0  19  -7-823.146 874.765   2
  19 -19  -7 524.448 1117.36   2
  19 -19  -4 24381.0 1941.54   4
   0  19  -4 26132.8 1526.67   2
   0  19  -4 25943.8 1764.43   1
  19 -19  -4 26583.6 2006.67   2
   0  19  -1 419.541 352.806   2
   0  19  -1 544.095 375.693   2
  19 -19  -1 815.569 533.848   2
  19 -19  -1-407.318 479.296   4
   0  19  -1-509.049 384.769   1
  19 -19   2 67613.4 1688.09   2
  19 -19   2 63049.0 3089.77   3
   0  19   2 64068.1 1831.71   4
  19 -19   2 69598.1 1701.38   2
   0  19   2 60738.0 1943.20   1
   0  19   2 65571.6 2974.24   3
  19 -19   5 699.382 920.145   3
   0  19   5-326.308 469.022   1
   0  19   5 282.700 724.504   3
  19 -19   5-1086.00 701.269   2
  19 -19   8 78716.3 4267.84   3
   0  19   8 89918.7 4217.96   3
   1  18  -8 1065.70 883.315   1
  -1  19  -8 613.242 752.362   1
   1  18  -8 913.147 553.712   4
  -1  19  -8 1586.15 569.165   4
   1  18  -8 1715.27 873.720   2
  19 -18  -8 812.840 1267.32   2
  -1  19  -8-254.428 800.661   2
  18 -19  -8 707.842 1120.97   2
  18 -19  -8 2153.41 1360.35   4
  19 -18  -8 1285.40 1005.67   4
  19 -18  -5 3011.40 1028.30   4
  -1  19  -5 4173.57 797.803   2
   1  18  -5 2436.07 813.555   1
   1  18  -5 3645.84 822.696   2
  -1  19  -5 2589.80 728.738   1
  19 -18  -5 3432.17 1067.21   2
  18 -19  -5 3218.26 998.067   2
  18 -19  -5 3836.98 1104.31   4
  18 -19  -2 1987.54 634.481   4
  19 -18  -2 2067.77 705.576   4
  -1  19  -2 1448.83 398.895   2
  19 -18  -2 899.390 578.567   2
  18 -19  -2 1808.08 683.240   2
   1  18  -2 1238.32 423.150   2
   1  18  -2 2002.14 599.982   1
  -1  19  -2 899.703 498.835   1
  -1  19   1 12917.2 922.024   1
  -1  19   1 12691.9 519.375   4
  19 -18   1 12410.6 1452.09   3
   1  18   1 12479.9 623.072   4
  19 -18   1 13745.4 908.714   2
   1  18   1 13191.6 1345.41   3
  18 -19   1 12749.7 801.806   2
  18 -19   1 12284.1 1049.23   4
  -1  19   1 10485.0 1252.15   3
  19 -18   1 13401.6 1106.45   4
  -1  19   1 12872.6 1082.60   2
   1  18   1 13452.7 1114.53   2
   1  18   1 14160.4 918.655   1
  19 -18   4 297.172 907.216   3
  18 -19   4 1096.15 867.032   3
  -1  19   4 871.355 400.198   1
   1  18   4 485.717 369.975   1
 -19   1   4 677.921 463.773   3
  -1  19   4 1172.38 870.160   3
   1  18   4 106.770 808.706   3
  18 -19   4 910.478 548.171   2
  19 -18   4 370.518 511.300   2
  19 -18   7 2475.95 1303.48   3
  18 -19   7 1496.78 1186.73   3
  -1  19   7 1113.94 873.135   3
  -1  19   7 1687.47 641.005   1
   1  18   7 1146.86 972.181   3
  19 -18  10 2958.15 1544.22   3
  18 -19  10 5338.49 1581.70   3
  -1  19  10 4487.52 1421.04   3
   1  18  10 5234.02 1501.61   3
   2  17  -9 4050.04 974.945   4
   2  17  -9 3183.11 1144.29   1
  17 -19  -9 4823.27 1610.87   4
  -2  19  -9 2642.46 1009.04   1
  19 -17  -9 4516.87 1486.27   4
  -2  19  -9 3115.37 790.373   4
   2  17  -9 3853.23 1132.78   2
  19 -17  -9 3355.47 1557.32   2
  -2  19  -9 5370.82 1225.00   2
  17 -19  -9 5599.85 1502.50   2
  17 -19  -6 5920.88 1326.42   4
 -19   2  -6 5595.92 363.450   1
  19 -17  -6 7847.89 1479.95   4
   2  17  -6 6766.81 1120.20   2
   2  17  -6 5078.44 1011.01   1
   2  17  -6 8217.89 777.303   4
  19 -17  -6 8384.57 1516.78   2
  -2  19  -6 6931.71 1043.30   2
  17 -19  -6 6260.04 1244.63   2
  -2  19  -6 7900.34 1198.96   1
   2  17  -3 36074.2 1653.03   2
  19 -17  -3 34676.3 2167.83   4
  17 -19  -3 37338.4 2142.30   4
 -19   2  -3 38053.9 1093.11   1
  -2  19  -3 39635.9 1531.31   2
  19 -17  -3 37212.7 2132.61   2
   2  17  -3 39796.4 1992.87   1
  -2  19  -3 37637.3 1941.87   1
  17 -19  -3 39157.7 2037.81   2
  -2  19   0 1613.48 482.888   2
  17 -19   0 934.418 414.916   4
  -2  19   0 489.971 381.871   1
   2  17   0 545.708 394.487   2
  19 -17   0 384.189 442.952   2
  17 -19   0 1264.81 439.848   2
  19 -17   0 596.551 516.570   4
   2  17   0 1193.02 762.874   3
   2  17   0 1190.28 407.168   1
  19 -17   3 21563.8 1968.17   3
  17 -19   3 21625.2 1882.63   3
   2  17   3 23097.5 1483.28   4
 -17  -2   3 23842.1 1422.12   3
  -2  19   3 22709.0 1856.68   3
  -2  19   3 20913.3 1221.77   1
   2  17   3 23015.6 1148.01   1
   2  17   3 24934.7 1886.82   3
 -19   2   3 23499.0 1360.35   3
  17 -19   3 24735.6 1074.04   2
  -2  19   3 22556.8 1352.74   4
  19 -17   3 24075.5 1234.81   2
  -2  19   6 6107.89 1271.45   3
  -2  19   6 5833.62 913.542   1
  19 -17   6 2852.18 1168.87   3
  17 -19   6 6645.31 1436.69   3
   2  17   6 8291.17 1493.56   3
   2  17   6 5535.75 745.841   1
  19 -17   9 11800.9 1916.77   3
  17 -19   9 11269.8 1925.01   3
  -2  19   9 16777.9 2046.69   3
   2  17   9 17986.6 2146.47   3
   3  16 -10 47966.1 3573.87   1
  -3  19 -10 50869.7 3337.78   1
  19 -16 -10 42860.4 3743.34   4
  16 -19 -10 44519.3 3764.37   4
   3  16 -10 52543.7 2854.07   4
   3  16 -10 40239.6 3085.67   2
  19 -16 -10 42542.1 3690.26   2
  16 -19 -10 44712.9 3591.41   2
  -3  19 -10 39253.0 2643.63   2
 -19   3  -7 3422.73 390.199   1
  16 -19  -7 4849.11 1227.68   2
   3  16  -7 3896.46 1075.59   1
  19 -16  -7 2303.78 1099.56   4
  16 -19  -7 2474.02 1127.80   4
  -3  19  -7 2667.81 840.133   1
   3  16  -7 3584.06 739.905   4
   3  16  -7 4866.70 1160.86   2
  19 -16  -7 3020.54 1250.33   2
  -3  19  -7 4722.11 945.237   2
 -19   3  -4 74717.4 1496.81   1
   3  16  -4 75747.1 2919.52   1
   3  16  -4 73910.7 2648.39   2
  16 -19  -4 70118.2 3115.31   4
  19 -16  -4 79930.0 3332.56   4
  -3  19  -4 76196.3 2868.74   1
  19 -16  -4 76965.7 3270.72   2
   3  16  -4 67199.8 1297.74   4
  16 -19  -4 72100.9 2943.64   2
  -3  19  -4 75281.0 2183.18   2
  19 -16  -1 3571.14 709.922   4
  16 -19  -1 3908.35 694.242   4
  19 -16  -1 3809.95 728.442   2
  16 -19  -1 4275.80 618.303   2
   3  16  -1 4816.98 850.952   3
 -19   3  -1 3355.63 529.939   1
   3  16  -1 2651.72 556.050   1
  -3  19  -1 3662.45 620.957   1
  -3  19  -1 4233.46 423.846   2
  -3  19  -1 3773.37 448.701   2
  19 -16   2 138736. 4407.80   3
  19 -16   2 131852. 2610.13   2
   3  16   2 114774. 2294.37   1
  -3  19   2 129270. 2412.91   4
  -3  19   2 127659. 2889.54   1
 -16  -3   2 129867. 3341.28   3
   3  16   2 133504. 2955.26   4
   3  16   2 129494. 3996.81   3
 -19   3   2 118237. 3194.68   3
  -3  19   2 123648. 3322.87   2
  16 -19   2 121017. 1754.40   2
  16 -19   2 118440. 1697.68   2
  19 -16   5 866.987 912.849   3
  16 -19   5 3557.39 1204.70   3
  -3  19   5 2014.41 633.495   1
  16 -19   5 2064.40 598.983   2
  -3  19   5 1965.43 931.282   3
   3  16   5 1876.66 468.074   1
   3  16   5 1763.31 897.042   3
  19 -16   8 74052.2 4023.18   3
  16 -19   8 71675.9 3844.06   3
  -3  19   8 81214.5 3890.65   3
   4  15  -8 1691.66 701.625   4
  19 -15  -8 1650.29 1136.77   4
   4  15  -8 1565.63 956.037   1
  15 -19  -8 3517.41 1293.10   4
  -4  19  -8 1804.42 845.853   1
   4  15  -8 2341.87 1065.05   2
  19 -15  -8 1840.47 1321.70   2
 -19   4  -8 2827.14 465.212   1
  15 -19  -8 3562.81 1399.98   2
  -4  19  -8 2036.99 862.003   2
   4  15  -5 20964.7 1719.28   1
  15 -19  -5 19173.8 1817.39   4
  19 -15  -5 19925.4 1945.62   4
  -4  19  -5 17735.5 1528.36   1
 -19   4  -5 20178.9 810.787   1
   4  15  -5 21768.0 1133.21   4
  19 -15  -5 18485.2 1812.38   2
  -4  19  -5 20347.7 1260.23   2
  15 -19  -5 17731.6 1671.62   2
   4  15  -5 22184.8 1670.72   2
  -4  19  -2 8630.59 499.631   2
  15 -19  -2 8580.78 979.469   4
  -4  19  -2 9020.86 571.488   2
  19 -15  -2 8312.53 1010.75   2
   4  15  -2 9405.71 955.019   1
 -19   4  -2 9419.80 733.872   1
  15 -19  -2 8463.24 898.584   2
   4  15  -2 8215.87 1072.73   3
  -4  19  -2 10199.3 980.263   1
  19 -15  -2 7674.24 1036.49   4
   4  15  -2 10935.8 917.491   2
  -4  19   1 5542.33 673.256   1
  19 -15   1 3880.20 931.289   3
  -4  19   1 4149.47 338.344   4
  19 -15   1 4712.17 622.418   2
   4  15   1 5439.15 597.675   4
 -19   4   1 4974.09 790.033   1
   4  15   1 4917.87 911.768   3
  -4  19   1 4262.82 629.674   2
  15 -19   1 4464.05 574.932   4
   4  15   1 5323.89 523.860   1
  19 -15   4 2062.58 650.185   2
  19 -15   4 1339.44 927.993   3
   4  15   4 2093.48 434.567   1
  -4  19   4 2833.13 912.160   3
  -4  19   4 2417.12 612.085   1
  15 -19   4 1658.67 371.987   2
   4  15   4 1146.28 711.614   3
 -19   4   4 1068.05 449.448   3
  19 -15   7 3944.21 1334.82   3
  15 -19   7 4593.96 1210.60   3
  -4  19   7 3892.02 904.077   1
  -4  19   7 3012.84 983.794   3
   4  15   7 6884.38 1446.79   3
  19 -15  10 870.261 1270.97   3
  15 -19  10 993.973 1092.42   3
  -4  19  10 1094.90 1228.27   3
   4  15  10 2359.79 1423.50   3
   5  14  -9 7573.06 1544.83   1
  19 -14  -9 6369.89 1728.15   2
  19 -14  -9 4528.10 1375.66   4
  14 -19  -9 6159.21 1596.61   4
   5  14  -9 6120.98 1187.87   4
   5  14  -9 7790.35 1620.11   2
  -5  19  -9 7184.72 1231.43   2
  14 -19  -9 5370.95 1526.64   2
  -5  19  -9 7250.38 1352.07   1
 -19   5  -6 6314.20 553.229   1
  19 -14  -6 5729.39 1308.91   4
  14 -19  -6 7877.34 1378.85   4
  -5  19  -6 5317.54 1004.98   1
   5  14  -6 6828.54 1189.75   2
   5  14  -6 6531.16 897.770   4
  19 -14  -6 7101.46 1422.22   2
  -5  19  -6 9604.49 988.392   2
   5  14  -6 6859.79 1160.76   1
  14 -19  -6 5381.36 1236.29   2
  19 -14  -3 47456.6 2356.73   4
  14 -19  -3 49667.9 2395.13   4
   5  14  -3 53430.4 2096.90   2
   5  14  -3 53209.2 2265.50   1
  19 -14  -3 50857.1 2477.69   2
  -5  19  -3 47601.5 1244.07   2
  -5  19  -3 48571.6 2145.07   1
   5  14  -3 50799.1 2244.07   3
  14 -19  -3 46741.8 2061.87   2
   5  14  -3 49857.3 1307.76   4
 -19   5  -3 52962.7 1492.64   1
  19 -14   0 7113.22 1057.25   3
 -19   5   0 8194.55 864.647   1
  19 -14   0 8491.67 902.273   4
  14 -19   0 9912.95 827.001   4
  19 -14   0 9552.58 901.313   2
   5  14   0 7553.23 570.382   4
   5  14   0 9211.81 705.505   1
   5  14   0 8063.32 1122.15   3
  14 -19   0 7715.60 503.340   2
  -5  19   0 9245.92 658.041   2
  -5  19   0 8462.35 799.932   1
  19 -14   3 20063.6 1235.94   2
  19 -14   3 20639.4 1903.61   3
  -5  19   3 20760.3 1228.13   4
   5  14   3 18126.8 1409.29   4
  14 -19   3 19492.4 1200.14   4
  -5  19   3 21696.2 1595.10   2
  -5  19   3 22716.1 1354.71   1
   5  14   3 21766.0 1805.08   3
 -19   5   3 20172.9 1273.49   3
   5  14   3 21164.1 910.078   1
  19 -14   6 9989.87 1577.50   3
  14 -19   6 8325.79 922.100   2
  -5  19   6 9274.25 1302.61   3
   5  14   6 8128.92 1447.17   3
  -5  19   6 8386.17 1107.85   1
  19 -14   9 9071.35 1749.35   3
  -5  19   9 11279.5 1632.63   3
   5  14   9 11070.8 1759.96   3
   6  13 -10 22841.5 2588.22   1
  13 -19 -10 18014.4 2319.02   4
  19 -13 -10 20591.6 2663.05   4
  -6  19 -10 20251.6 2130.80   1
   6  13 -10 19994.6 2036.46   4
   6  13 -10 18624.8 2307.42   2
  19 -13 -10 12338.5 2196.67   2
  13 -19 -10 20996.7 2435.48   2
  -6  19 -10 18398.6 1795.09   2
   6  13  -7 19033.3 1994.92   1
  19 -13  -7 18834.4 2115.63   4
  13 -19  -7 17799.3 2068.01   4
  -6  19  -7 18172.1 1743.61   1
   6  13  -7 16588.5 1455.84   4
   6  13  -7 15336.2 1710.89   2
  19 -13  -7 18822.5 2127.29   2
   6  13  -7 18092.3 1356.08   3
  13 -19  -7 12571.6 1640.16   2
  -6  19  -7 16759.5 1345.12   2
 -19   6  -7 17308.2 962.089   1
   6  13  -4 109202. 2494.44   4
  19 -13  -4 103416. 3729.19   4
   6  13  -4 107354. 3387.12   2
  13 -19  -4 107798. 3663.52   4
 -19   6  -4 115930. 2145.18   1
  19 -13  -4 104863. 3789.75   2
  -6  19  -4 108630. 3344.94   1
  -6  19  -4 104201. 1947.33   2
   6  13  -4 107975. 3538.37   1
   6  13  -4 115967. 3222.66   3
  13 -19  -4 105194. 3352.21   2
  19 -13  -1 9262.49 1118.53   3
  19 -13  -1 10254.6 1023.20   2
  19 -13  -1 10490.2 1036.10   4
  13 -19  -1 9146.93 876.981   4
 -19   6  -1 11081.0 902.103   1
   6  13  -1 8220.85 754.139   1
   6  13  -1 12154.4 1246.03   3
   6  13  -1 9837.31 553.427   4
   6  13  -1 10322.3 521.438   4
  13 -19  -1 8888.63 673.438   2
  -6  19  -1 10037.8 925.235   1
  19 -13   2 141630. 4359.91   3
  -6  19   2 133836. 2432.19   4
   6  13   2 125321. 1970.31   1
   6  13   2 141886. 3208.09   4
  -6  19   2 132073. 3203.34   2
  -6  19   2 146462. 3208.63   1
   6  13   2 141505. 4179.02   3
 -19   6   2 133669. 3401.08   3
 -19   6   2 138013. 3716.68   1
  19 -13   5 6099.00 1398.75   3
  13 -19   5 6517.82 635.772   2
  -6  19   5 7346.91 1011.69   1
  -6  19   5 5890.07 1071.17   3
 -19   6   5 4402.80 454.535   3
   6  13   5 5870.27 1225.95   3
  19 -13   8 31369.3 2675.42   3
  -6  19   8 28565.9 2165.61   1
  -6  19   8 35234.7 2439.52   3
   6  13   8 35560.6 2797.36   3
  19 -13  11 3105.56 1465.83   3
  -6  19  11 2267.24 1345.45   3
   6  13  11 881.519 1376.58   3
  12 -19 -11 1227.84 1242.41   4
  19 -12 -11 1922.03 1407.10   4
   7  12 -11 772.399 1075.62   4
  -7  19 -11 1044.37 1063.75   1
   7  12 -11 4085.85 1680.22   2
  19 -12 -11 3712.84 1762.15   2
   7  12 -11 1410.08 1302.04   1
  12 -19 -11 2419.85 1322.48   2
  19 -12  -8 14392.1 2059.22   4
  -7  19  -8 15480.5 1665.48   1
  12 -19  -8 14661.0 1933.30   4
   7  12  -8 11413.4 1388.15   4
   7  12  -8 13822.0 1810.78   2
  19 -12  -8 16550.2 2170.30   2
   7  12  -8 14657.7 1134.62   3
 -19   7  -8 13338.3 991.509   1
  12 -19  -8 12380.1 1713.27   2
  -7  19  -8 10689.0 1163.24   2
 -19   7  -5 14157.5 835.905   1
   7  12  -5 13151.9 1444.62   1
  12 -19  -5 16321.3 1665.53   4
   7  12  -5 14651.7 1473.38   2
   7  12  -5 14092.8 1128.20   4
  19 -12  -5 14409.7 1617.57   4
  19 -12  -5 14080.2 1677.74   2
  -7  19  -5 14370.7 1347.79   1
   7  12  -5 15161.6 1203.01   3
  12 -19  -5 11494.1 1306.58   2
  -7  19  -5 13075.2 834.450   2
  19 -12  -2 41148.1 1999.61   3
   7  12  -2 39368.3 1768.66   2
   7  12  -2 37764.7 1748.57   1
   7  12  -2 41357.9 1247.21   4
  19 -12  -2 39760.1 2054.96   2
   7  12  -2 43674.8 2043.16   3
  12 -19  -2 40734.9 1888.21   4
  -7  19  -2 41925.3 1825.12   1
  12 -19  -2 41063.6 1607.77   2
 -19   7  -2 40488.0 1483.60   1
  19 -12  -2 41027.2 2057.57   4
  19 -12   1 14428.0 1428.74   3
  -7  19   1 13413.5 1029.80   1
   7  12   1 12217.7 908.374   4
  -7  19   1 12834.8 855.940   2
   7  12   1 13666.3 1330.55   3
   7  12   1 12226.7 647.504   1
  12 -19   1 11779.3 763.155   4
 -19   7   1 12495.8 1269.63   3
 -19   7   1 11203.9 1049.02   1
  12 -19   4 12650.0 1060.04   4
  -7  19   4 13520.6 1281.39   3
   7  12   4 14693.8 1588.89   3
 -19   7   4 11496.6 877.673   3
  -7  19   4 13074.8 1168.03   1
  19 -12   4 12731.6 1613.29   3
  -7  19   7 16933.8 1634.83   1
  -7  19   7 15755.5 1644.10   3
   7  12   7 20604.8 2099.82   3
  19 -12   7 16225.9 1954.95   3
  19 -12  10 11871.8 2117.49   3
  -7  19  10 13235.1 1802.76   3
   7  12  10 11655.7 1955.53   3
  19 -11  -9 23486.4 2576.06   4
  -8  19  -9 18416.8 1900.80   1
   8  11  -9 19544.7 1912.23   4
   8  11  -9 18772.9 2257.04   2
  19 -11  -9 21718.4 2534.04   2
 -11  -8  -9 19869.8 1851.68   4
 -19   8  -9 20160.3 1324.34   1
  11 -19  -9 18828.8 2324.40   4
  11 -19  -9 19764.4 2234.70   2
  -8  19  -9 21183.8 1695.68   2
   8  11  -6 4528.19 780.876   3
  19 -11  -6 7404.51 1384.13   2
  19 -11  -6 7243.85 1366.22   4
   8  11  -6 5622.75 907.038   4
  11 -19  -6 5951.22 1139.85   4
  -8  19  -6 5849.31 1010.74   1
   8  11  -6 5794.60 1164.59   2
   8  11  -6 7755.84 849.787   3
  -8  19  -6 7222.63 751.852   2
 -19   8  -6 5926.13 653.587   1
  11 -19  -6 6072.59 1103.54   2
  19 -11  -3 16702.2 1467.35   4
   8  11  -3 18079.8 1341.58   2
   8  11  -3 17191.6 991.371   4
  19 -11  -3 15714.0 1462.83   2
 -19   8  -3 16388.2 910.442   1
  11 -19  -3 16846.1 1364.19   4
   8  11  -3 16235.5 1323.63   1
   8  11  -3 17698.9 1279.61   3
  -8  19  -3 13987.2 1186.05   1
  11 -19  -3 17865.5 1248.69   2
  19 -11   0 29010.0 1852.95   3
  -8  19   0 26552.5 695.398   2
  11 -19   0 31190.4 1293.99   4
   8  11   0 31595.0 1198.32   1
   8  11   0 32233.2 1238.31   4
   8  11   0 32698.0 1910.86   3
  19 -11   0 34803.8 1677.81   4
 -19   8   0 27343.0 1458.74   1
  19 -11   0 31282.7 1542.44   2
  -8  19   0 29984.9 1464.70   1
  -8  19   3 22805.0 1246.22   4
  -8  19   3 25180.7 1612.46   2
  11 -19   3 22206.9 1163.01   4
   8  11   3 21559.7 632.284   1
  -8  19   3 24897.0 1486.84   1
   8  11   3 24563.2 1923.48   3
 -19   8   3 24657.8 1753.97   1
 -19   8   3 23611.1 1413.84   3
  19 -11   3 22458.3 1922.96   3
  11 -19   6 15981.0 1028.43   2
  -8  19   6 16660.0 1588.25   3
   8  11   6 17688.3 1984.58   3
  -8  19   6 19811.2 1674.17   1
  19 -11   6 19981.1 2002.38   3
  -8  19   9 18114.2 1840.89   3
   8  11   9 18383.5 2209.15   3
  19 -11   9 19786.8 2291.07   3
  19 -10 -10 19617.7 2601.61   4
  -9  19 -10 18159.6 1886.75   1
   9  10 -10 19075.6 2064.23   4
   9  10 -10 14588.1 2232.11   2
 -10  -9 -10 19126.7 1943.88   4
  19 -10 -10 20346.1 2713.39   2
 -19   9 -10 19650.0 1452.10   1
  10 -19 -10 16601.8 2095.18   2
  10 -19 -10 17172.1 2374.79   4
  -9  19 -10 17196.9 1667.76   2
  19 -10  -7 20210.1 2188.23   4
  10 -19  -7 17784.5 1899.56   4
   9  10  -7 18919.9 1943.44   2
  -9  19  -7 19094.0 1677.09   1
  19 -10  -7 20238.5 2168.07   2
 -10  -9  -7 18271.5 1550.21   4
   9  10  -7 20962.7 1145.17   3
   9  10  -7 20189.1 1694.94   4
 -19   9  -7 20705.7 1202.52   1
  10 -19  -7 19584.7 1871.90   2
  -9  19  -7 20322.9 1311.20   2
 -19   9  -4 50785.7 1614.47   1
   9  10  -4 51969.8 1993.18   4
  19 -10  -4 52112.8 2694.79   2
  10 -19  -4 52022.1 2498.91   4
  -9  19  -4 52413.8 2319.45   1
  19 -10  -4 54307.7 2729.82   4
   9  10  -4 51348.2 2462.70   2
  10 -19  -4 49299.7 2149.94   2
   9  10  -4 53529.3 2058.35   3
  19 -10  -1 17855.0 1457.11   3
   9  10  -1 20872.8 905.570   4
  19 -10  -1 18159.1 1292.09   2
  19 -10  -1 17998.2 1334.90   4
   9  10  -1 20779.5 1166.69   1
  10 -19  -1 18303.2 1131.18   4
   9  10  -1 19532.0 1454.05   3
 -19   9  -1 20986.8 1166.24   1
  -9  19  -1 19442.4 1217.09   1
  10 -19  -1 18122.6 748.059   2
  10 -19   2 63728.0 1442.05   4
  -9  19   2 60469.8 1667.54   4
   9  10   2 60496.0 959.947   1
  10 -19   2 59537.4 1531.92   4
  -9  19   2 60580.6 1977.65   2
  -9  19   2 64786.6 2247.03   1
   9  10   2 59870.9 2190.67   4
  19 -10   2 55979.0 1938.53   1
   9  10   2 63883.8 2856.33   3
 -19   9   2 63151.3 2387.05   3
 -19   9   2 59235.1 2482.40   1
  19 -10   2 59729.8 2852.32   3
  10 -19   5 16388.6 743.196   2
  -9  19   5 18631.2 1561.92   1
  10 -19   5 17343.3 1327.12   4
  -9  19   5 18793.5 1496.58   3
   9  10   5 21173.3 1980.26   3
 -19   9   5 18784.4 997.141   3
  19 -10   5 21072.1 1997.73   3
  -9  19   8 28434.7 2298.90   1
  -9  19   8 28940.1 2167.39   3
   9  10   8 32608.3 2692.45   3
  19 -10   8 26336.5 2446.71   3
  19 -10  11 2944.55 1474.12   3
   9  10  11-486.963 1402.61   3
  -9 -10 -11 1923.38 1029.65   2
   9 -19 -11 1258.56 1296.58   4
  19  -9 -11 824.017 1430.13   4
  10   9 -11 361.006 1088.23   4
 -10  19 -11 1420.04 996.923   1
  -9 -10 -11 1421.56 990.447   4
  10   9 -11 727.084 1318.51   2
  19  -9 -11 65.0551 1491.35   2
 -19  10 -11 1195.53 672.296   1
   9 -19 -11 428.543 1211.73   2
  19  -9  -8 25830.6 2521.48   4
  10   9  -8 25645.6 2060.90   4
   9 -19  -8 29851.2 2539.16   4
  19  -9  -8 26886.3 2638.14   2
  -9 -10  -8 28407.9 2100.73   4
 -10  19  -8 25408.7 2000.46   1
 -19  10  -8 26965.6 1515.31   1
   9 -19  -8 26197.3 2200.55   2
  10   9  -8 26514.7 2411.95   2
 -10  19  -8 26595.3 1581.93   2
 -10  19  -5 19103.2 803.495   2
  10   9  -5 26607.2 2031.17   2
   9 -19  -5 23989.6 1862.43   4
 -10  19  -5 24177.6 1669.67   1
  10   9  -5 24014.5 1325.09   3
  19  -9  -5 22651.2 2012.22   4
  10   9  -5 23544.7 1564.90   4
   9 -19  -5 25206.8 1740.60   2
  19  -9  -5 21319.1 1997.77   2
 -19  10  -5 22024.8 1155.17   1
  19  -9  -2 58824.8 2307.66   3
  10   9  -2 56370.2 2196.51   2
  19  -9  -2 61956.1 2498.64   2
  19  -9  -2 63641.7 2493.26   4
  10   9  -2 60606.9 1765.85   4
   9 -19  -2 60508.1 2199.45   4
 -19  10  -2 62202.9 1876.99   1
  10   9  -2 63985.7 2385.99   3
 -10  19  -2 63336.4 2256.56   1
   9 -19  -2 64615.7 1796.27   2
 -19  10   1 20201.4 1362.46   1
 -10  19   1 20179.9 873.834   2
 -10  19   1 20665.4 1274.48   1
  10   9   1 19747.5 1172.91   4
  10   9   1 18916.4 698.882   1
  10   9   1 20280.5 1594.82   3
   9 -19   1 21685.1 862.788   4
  19  -9   1 18260.9 1045.07   1
  19  -9   1 19809.2 1657.15   3
 -10  19   4 51682.7 2311.44   1
   9 -19   4 50471.6 1852.54   4
 -19  10   4 52452.6 2662.79   1
  10   9   4 44256.1 2654.35   3
 -19  10   4 48383.0 1884.39   3
  19  -9   4 47198.7 1949.49   1
  19  -9   4 50306.2 2817.62   3
 -10  19   7 20515.9 1888.25   1
 -10  19   7 18680.3 1612.84   3
  10   9   7 19875.7 2127.15   3
  19  -9   7 21385.2 2218.10   3
 -10  19  10 21559.3 2067.06   3
  10   9  10 19523.5 2477.77   3
  19  -9  10 14461.4 2157.63   3
  -8 -11  -9 22665.0 1947.13   2
  19  -8  -9 16716.7 2176.50   4
 -11  19  -9 17487.1 1775.40   1
  11   8  -9 21337.6 2129.00   4
   8 -19  -9 17901.0 2167.76   4
  11   8  -9 19216.4 2457.27   2
  19  -8  -9 13977.2 2184.60   2
  -8 -11  -9 17234.1 1803.03   4
 -19  11  -9 16987.2 1379.02   1
   8 -19  -9 14604.3 1823.21   2
 -11  19  -9 15800.6 1382.38   2
 -11  19  -6 21224.9 1034.82   2
  11   8  -6 22279.5 1180.67   3
  19  -8  -6 20516.9 2139.30   4
 -11  19  -6 22603.8 1684.00   1
  -8 -11  -6 16479.4 587.323   1
  11   8  -6 20173.5 1942.59   2
   8 -19  -6 23154.9 1952.64   4
  19  -8  -6 22496.5 2151.93   2
  -8 -11  -6 22962.8 1598.59   4
  11   8  -6 24233.5 1223.89   3
 -19  11  -6 21998.1 1257.45   1
   8 -19  -6 22098.3 1784.10   2
  11   8  -6 23200.4 1713.75   4
  19  -8  -3 21985.2 1337.35   3
 -19  11  -3 22483.5 1163.13   1
  11   8  -3 19885.6 1511.69   2
  19  -8  -3 20171.0 1598.53   4
  11   8  -3 22239.9 1267.73   4
  11   8  -3 19642.3 1311.05   3
   8 -19  -3 23037.1 1505.21   4
 -11  19  -3 18214.2 1322.23   1
  19  -8  -3 20584.7 1666.64   2
   8 -19  -3 22742.3 1290.92   2
  19  -8   0 25892.6 1237.36   1
 -11  19   0 27914.2 1467.08   1
   8 -19   0 27829.2 1114.92   4
  11   8   0 32509.6 1917.03   3
  11   8   0 29670.5 1163.15   1
  19  -8   0 32744.1 1579.27   2
 -19  11   0 29486.6 1494.48   1
  19  -8   0 30414.4 1891.65   3
 -11  19   3 16868.1 1286.42   2
  19  -8   3 16447.1 1084.34   1
   8 -19   3 18039.0 915.608   4
  11   8   3 13251.4 1516.20   3
 -11  19   3 18317.3 1347.70   1
 -19  11   3 16073.8 1231.88   3
  19  -8   3 17956.3 1713.89   3
 -19  11   3 16187.3 1447.92   1
  19  -8   6 5639.36 1272.97   3
   8 -19   6 2544.72 506.880   2
 -11  19   6 3649.89 873.500   1
 -11  19   6 3983.91 894.608   3
   8 -19   6 3040.70 795.623   4
  11   8   6 2902.74 1080.64   3
 -19  11   6 3159.36 527.318   3
 -11  19   9 20779.6 1873.13   3
  11   8   9 25183.5 2501.00   3
  19  -8   9 18547.1 2287.10   3
 -12  19 -10 10862.2 1265.57   2
  -7 -12 -10 11153.5 1690.58   2
  19  -7 -10 11216.4 2021.38   4
  12   7 -10 12801.9 1897.84   4
 -12  19 -10 9946.59 1523.40   1
   7 -19 -10 11028.2 2009.39   4
  12   7 -10 14211.6 2182.50   2
  -7 -12 -10 11721.9 1661.16   4
 -19  12 -10 10686.6 1215.25   1
  19  -7 -10 10170.8 2113.87   2
   7 -19 -10 14193.3 1969.88   2
 -12  19  -7 13767.7 1009.90   2
  19  -7  -7 11633.8 1672.82   4
  12   7  -7 10603.2 1409.13   4
  12   7  -7 15767.2 1967.64   2
   7 -19  -7 11746.7 1540.33   4
  19  -7  -7 16941.4 2038.68   2
 -12  19  -7 12967.5 1407.54   1
  -7 -12  -7 15301.8 1507.63   4
 -19  12  -7 12754.0 1107.37   1
   7 -19  -7 14623.8 1625.23   2
  19  -7  -4 12106.3 894.632   3
  19  -7  -4 13436.5 1496.34   4
  12   7  -4 15690.0 1471.84   2
  12   7  -4 11968.4 1115.21   4
   7 -19  -4 12953.7 1264.18   4
  19  -7  -4 12479.8 1450.52   2
 -12  19  -4 11947.4 1164.43   1
  12   7  -4 13990.0 1110.00   3
  -7 -12  -4 11280.2 554.416   1
   7 -19  -4 12150.7 1082.00   2
 -19  12  -4 12388.9 918.691   1
  19  -7  -1 11738.7 1100.85   2
   7 -19  -1 12179.5 863.277   4
 -19  12  -1 9770.94 893.805   1
  12   7  -1 11032.4 1118.91   3
  19  -7  -1 10145.9 1050.89   4
  12   7  -1 12382.9 835.212   4
  19  -7  -1 11451.9 1212.26   3
 -12  19  -1 11180.4 991.607   1
 -12  19   2 36357.4 1455.45   2
   7 -19   2 34130.4 829.607   4
 -19  12   2 40127.0 2012.93   1
   7 -19   2 35740.0 982.662   4
 -12  19   2 38918.8 1834.96   1
  19  -7   2 33881.6 1362.60   1
 -12  19   2 37656.8 1440.39   4
  12   7   2 38522.7 2253.43   3
 -19  12   2 36196.6 1898.42   3
  19  -7   2 36898.5 2268.96   3
  -7 -12   5 13198.2 798.084   4
   7 -19   5 12376.3 1023.64   4
 -12  19   5 16301.3 1547.46   1
  12   7   5 15596.3 1815.59   3
 -19  12   5 13417.8 1532.34   1
 -19  12   5 11972.3 1047.54   3
  19  -7   5 13860.5 1680.94   3
  19  -7   8 8794.91 1640.10   3
 -12  19   8 10314.2 1543.89   1
 -12  19   8 10407.3 1333.37   3
  12   7   8 9470.33 1741.46   3
  19  -7  11 3254.69 1654.67   3
  12   7  11 2172.96 1573.15   3
   6 -19 -11 299.001 1164.72   2
  -6 -13 -11 2735.05 1166.21   2
  19  -6 -11 3527.87 1657.10   4
  13   6 -11 4151.37 1497.31   4
   6 -19 -11 2622.00 1494.72   4
  -6 -13 -11 1489.72 1097.91   4
 -13  19 -11 2455.91 1068.20   1
  13   6 -11 1389.47 1568.95   2
  19  -6 -11 1410.24 1466.08   2
 -19  13 -11 1739.97 807.094   1
 -13  19  -8 32314.6 1628.37   2
  -6 -13  -8 32779.3 2239.44   2
  19  -6  -8 31753.4 2827.65   4
   6 -19  -8 35444.3 2636.86   4
  13   6  -8 35679.4 2838.64   2
  19  -6  -8 31619.8 2841.88   2
 -13  19  -8 34700.9 2243.26   1
  -6 -13  -8 32044.2 2210.43   4
 -19  13  -8 34117.5 1847.44   1
  13   6  -8 31892.1 2418.21   4
   6 -19  -8 34025.2 2397.14   2
  19  -6  -5 5447.35 1173.42   4
  13   6  -5 4313.21 839.126   4
  19  -6  -5 6583.13 1325.30   2
  13   6  -5 6035.64 1178.46   2
   6 -19  -5 4883.65 933.160   4
  -6 -13  -5 5214.64 427.578   1
  -6 -13  -5 5804.36 835.717   4
 -13  19  -5 5818.24 952.910   1
  13   6  -5 6980.51 781.148   3
 -19  13  -5 4652.16 686.284   1
   6 -19  -5 6511.13 966.458   2
   6 -19  -2 146121. 2548.97   2
  19  -6  -2 127989. 3533.20   4
  13   6  -2 145418. 3067.46   4
  19  -6  -2 147926. 3843.96   2
 -19  13  -2 142064. 3011.43   1
  13   6  -2 127713. 3254.65   1
  13   6  -2 144601. 3626.98   3
  13   6  -2 135114. 3555.21   2
 -13  19  -2 142284. 3294.82   1
  19  -6  -2 142248. 3565.31   3
   6 -19  -2 142651. 3079.54   4
  13   6   1 9765.91 483.325   1
 -13  19   1 10887.9 582.738   2
  13   6   1 10033.1 491.640   1
 -13  19   1 10272.5 934.476   1
  13   6   1 10189.6 1254.84   3
  19  -6   1 8517.46 672.742   1
  19  -6   1 10674.0 1269.76   3
 -19  13   1 11013.6 1030.07   1
 -19  13   4 99792.3 3644.38   1
  19  -6   4 100002. 2416.41   1
 -13  19   4 101568. 3379.50   1
   6 -19   4 106299. 2153.06   4
  13   6   4 106819. 4079.16   3
  19  -6   4 105421. 4054.14   3
 -19  13   4 95456.9 2839.98   3
 -13  19   7 15863.5 1753.93   1
 -19  13   7 11012.3 779.137   3
 -13  19   7 14306.0 1417.56   3
  13   6   7 16993.0 1978.73   3
  19  -6   7 16713.2 2050.44   3
  13   6  10 21331.6 2575.74   3
  19  -6  10 18324.7 2359.04   3
   5 -19  -9 7890.60 1401.74   2
 -14  19  -9 7779.44 986.953   2
  -5 -14  -9 11031.0 1509.18   2
  19  -5  -9 10604.0 1891.45   4
  14   5  -9 8922.16 1603.58   4
   5 -19  -9 9206.84 1717.88   4
 -14  19  -9 8243.92 1240.40   1
  14   5  -9 12343.8 2054.79   2
  -5 -14  -9 9539.02 1526.94   4
  19  -5  -9 8730.84 1757.77   2
 -19  14  -9 8084.30 1068.48   1
  14   5  -6 5319.81 475.484   3
  14   5  -6 11547.4 1615.58   2
  14   5  -6 6814.51 1085.23   4
   5 -19  -6 8043.33 1221.27   4
  19  -5  -6 7301.20 1444.77   2
  -5 -14  -6 8858.15 1107.76   4
  -5 -14  -6 6522.57 573.018   1
 -14  19  -6 7518.04 1000.16   1
 -19  14  -6 8352.39 910.146   1
  19  -5  -6 6367.60 1278.01   4
  14   5  -6 7143.08 559.388   3
   5 -19  -6 9781.45 1223.02   2
   5 -19  -3 21702.3 1225.09   2
 -19  14  -3 21280.0 1231.63   1
  -5 -14  -3 20041.9 953.110   1
  19  -5  -3 18574.6 1543.04   4
  14   5  -3 21230.3 1668.36   2
  19  -5  -3 20269.4 1661.40   2
   5 -19  -3 18946.9 1257.50   4
  14   5  -3 22781.8 1426.94   4
  14   5  -3 21100.7 1359.82   3
 -14  19  -3 20475.1 1366.48   1
  19  -5  -3 22946.7 1390.59   3
  19  -5   0 5131.75 570.191   1
   5 -19   0 5827.37 367.197   4
  14   5   0 6748.14 590.646   1
 -19  14   0 7425.12 829.733   1
 -14  19   0 6936.21 850.726   1
  14   5   0 5811.70 983.852   3
  19  -5   0 4651.82 896.322   3
 -14  19   3 48554.0 1905.10   2
  19  -5   3 47286.4 1465.62   1
 -19  14   3 46461.2 2356.28   1
  14   5   3 50438.8 2762.63   3
 -14  19   3 45428.1 2200.50   1
  19  -5   3 41258.6 2532.71   3
 -19  14   6 7837.50 1385.65   1
   5 -19   6 5531.07 781.855   4
 -14  19   6 5700.46 881.134   3
  14   5   6 8571.15 1521.57   3
  -5 -14   6 6801.28 683.393   4
 -19  14   6 7148.32 866.760   3
 -14  19   6 6925.10 1221.13   1
  19  -5   6 6009.52 1332.40   3
 -14  19   9 5332.40 1101.51   3
  14   5   9 4530.39 1438.08   3
  19  -5   9 3504.17 1460.69   3
   4 -19 -10 508.362 1037.86   4
   4 -19 -10 74.5515 870.804   2
  -4 -15 -10 877.517 998.090   2
 -15  19 -10-37.6947 627.304   2
  15   4 -10 44.9134 988.854   4
  19  -4 -10 1981.93 1250.95   4
  -4 -15 -10 1458.25 1074.13   4
  15   4 -10 183.073 1296.27   2
 -15  19 -10 1448.08 843.702   1
  19  -4 -10 1131.25 1343.17   2
 -19  15 -10-29.3593 648.606   1
   4 -19  -7 2993.48 887.711   2
  -4 -15  -7 2788.72 797.961   2
  19  -4  -7 4546.26 1271.89   4
  15   4  -7 1981.86 874.817   4
  15   4  -7 5932.13 1405.14   2
   4 -19  -7 4709.80 1130.31   4
  -4 -15  -7 2718.04 854.594   4
 -19  15  -7 3897.12 768.010   1
 -15  19  -7 4613.41 903.053   1
  19  -4  -7 3782.92 1319.23   2
  19  -4  -4 3311.03 634.369   3
   4 -19  -4 3700.14 731.510   2
 -19  15  -4 1871.66 483.972   1
  -4 -15  -4 2582.46 428.574   1
  19  -4  -4 2920.08 878.952   4
  15   4  -4 2540.74 728.391   4
  15   4  -4 3694.76 957.813   2
   4 -19  -4 2540.95 678.302   4
  -4 -15  -4 3727.92 633.604   4
  19  -4  -4 3070.47 978.644   2
  15   4  -4 1337.75 489.567   3
 -15  19  -4 2231.59 617.908   1
 -15  19  -1 3849.54 683.590   1
  19  -4  -1 4801.03 807.806   2
  19  -4  -1 3800.10 752.911   4
 -19  15  -1 4162.90 637.899   1
   4 -19  -1 3523.19 424.241   4
  19  -4  -1 4089.57 581.353   1
  15   4  -1 3896.04 578.376   1
  15   4  -1 3866.94 845.272   3
  15   4  -1 3019.37 540.723   4
  19  -4  -1 3843.95 862.075   3
 -15  19   2 6572.49 661.473   2
 -19  15   2 6086.75 880.454   1
 -15  19   2 8084.20 971.704   1
  19  -4   2 4746.44 489.012   1
  15   4   2 5739.21 1061.49   3
  19  -4   2 9159.18 1335.65   3
 -19  15   5 20649.0 1882.11   1
   4 -19   5 20412.5 1023.54   4
 -15  19   5 21154.8 1784.77   1
  -4 -15   5 18014.8 800.066   4
  15   4   5 21130.4 2078.27   3
  19  -4   5 18881.8 1926.22   3
 -19  15   5 17604.9 1361.01   3
 -15  19   8 3787.27 1140.10   1
 -15  19   8 1403.61 711.647   3
  15   4   8 5049.06 1414.70   3
  19  -4   8-393.339 1133.63   3
  -3 -16  -8 85964.9 3540.81   2
  16   3  -8 92822.8 4699.84   2
  19  -3  -8 76703.2 4378.88   2
   3 -19  -8 84309.0 3870.59   4
  -3 -16  -8 94300.5 3872.55   4
  16   3  -8 82409.2 3972.43   4
 -16  19  -8 92435.7 3500.74   1
  19  -3  -8 84108.8 4245.50   4
 -19  16  -8 94381.8 3194.92   1
   3 -19  -8 90409.9 3739.45   2
 -19  16  -5 1229.82 485.064   1
   3 -19  -5 1510.04 598.853   2
  19  -3  -5 1093.04 315.485   3
  19  -3  -5 1472.60 887.841   4
  16   3  -5 1418.79 684.356   4
  16   3  -5 1973.44 941.762   2
  19  -3  -5 374.700 921.625   2
   3 -19  -5 1547.03 726.721   4
  -3 -16  -5 1407.95 538.139   4
  -3 -16  -5 1250.80 443.729   1
 -16  19  -5 806.942 535.780   1
  16   3  -5 1951.62 490.066   3
 -19  16  -2 130865. 3101.56   1
  19  -3  -2 108697. 3208.22   4
  16   3  -2 126619. 3142.68   4
  19  -3  -2 121787. 3682.02   2
  -3 -16  -2 125843. 2750.46   1
   3 -19  -2 114745. 2474.51   4
  16   3  -2 129234. 3501.52   3
  16   3  -2 108122. 2974.13   1
  16   3  -2 129332. 3646.55   2
  19  -3  -2 120308. 3333.23   3
 -16  19  -2 119258. 3081.44   1
  16   3   1 2718.95 267.510   1
 -19  16   1 3686.81 754.061   1
 -16  19   1 1950.19 573.618   1
  16   3   1 3868.94 936.288   3
  19  -3   1 4011.76 916.354   3
  19  -3   1 3151.10 399.588   1
 -19  16   4 67111.2 3039.75   1
  16   3   4 71591.6 3388.02   3
 -16  19   4 68429.3 2920.75   1
  19  -3   4 66598.9 3321.56   3
 -16  19   7 3482.11 1076.22   1
 -19  16   7 1005.09 780.198   1
 -19  16   7 2721.65 656.774   3
 -16  19   7 1683.31 683.138   3
  16   3   7 3479.92 1434.47   3
  19  -3   7 2966.11 1292.26   3
  16   3  10 39185.5 3452.53   3
  19  -3  10 39186.3 3420.41   3
   2 -19  -9 11286.5 1553.80   2
  -2 -17  -9 12576.9 1599.19   2
  19  -2  -9 10824.7 1885.93   4
  17   2  -9 13449.4 1895.42   4
  17   2  -9 13882.3 2253.90   2
  19  -2  -9 13103.3 2139.11   2
   2 -19  -9 10034.0 1623.01   4
  -2 -17  -9 13682.7 1738.48   4
 -17  19  -9 12605.2 1474.80   1
 -19  17  -9 11243.1 1346.72   1
   2 -19  -6 6436.71 1021.98   2
  -2 -17  -6 8593.14 1082.73   2
  -2 -17  -6 7688.20 1098.65   4
  17   2  -6 7297.92 1317.90   4
  19  -2  -6 8030.95 1471.95   4
  17   2  -6 7142.79 1445.23   2
  19  -2  -6 5416.66 1307.92   2
   2 -19  -6 6285.34 1031.33   4
 -17  19  -6 7345.48 994.557   1
 -19  17  -6 6541.44 896.352   1
 -19  17  -3 24078.4 1421.97   1
  19  -2  -3 24201.7 1715.20   4
  17   2  -3 23801.3 1568.00   4
   2 -19  -3 24844.8 1374.30   4
  -2 -17  -3 23608.9 1216.55   1
  -2 -17  -3 23148.3 1205.08   4
  19  -2  -3 25444.2 1880.77   2
  17   2  -3 23138.3 1786.70   2
  17   2  -3 26020.3 1533.97   3
  19  -2  -3 26076.5 1531.31   3
 -17  19  -3 23588.4 1446.94   1
  17   2   0 557.764 287.464   1
 -17  19   0 1892.16 597.050   1
  19  -2   0 580.791 311.888   1
 -19  17   0 1150.63 492.590   1
  17   2   0 123.445 659.748   3
  19  -2   0-11.5915 771.635   3
 -17  19   3 32735.9 1958.06   1
  19  -2   3 31332.5 967.129   1
 -19  17   3 30650.9 1938.48   1
  17   2   3 34887.1 2334.97   3
  19  -2   3 28433.2 2172.40   3
 -17  19   6 8007.76 1365.00   1
 -19  17   6 7392.00 1370.28   1
  17   2   6 10135.2 1691.66   3
  19  -2   6 7230.81 1435.61   3
  17   2   9 2758.21 1467.43   3
  19  -2   9 3123.48 1406.15   3
  18   1 -10 5684.49 1695.99   2
   1 -19 -10 5774.39 1371.77   2
  -1 -18 -10 5045.21 1331.24   2
  19  -1 -10 7577.52 1693.87   4
  18   1 -10 7750.26 1731.66   4
  19  -1 -10 6616.18 1973.04   2
  -1 -18 -10 6080.29 1522.57   4
   1 -19 -10 5631.45 1377.46   4
 -18  19 -10 5134.11 1098.20   1
 -19  18 -10 5318.73 1107.86   1
   1 -19  -7 1586.28 870.260   2
  -1 -18  -7 799.255 715.966   2
  19  -1  -7 1825.67 1040.15   4
  18   1  -7 1277.84 961.635   4
  18   1  -7 30.2184 1026.18   2
  19  -1  -7 3885.23 1329.49   2
   1 -19  -7 1239.40 820.538   4
  -1 -18  -7 2515.07 947.123   4
 -18  19  -7 1016.82 684.729   1
 -19  18  -7 1425.20 631.289   1
  19  -1  -4 132.211 496.088   3
 -18  19  -4 99.6741 480.128   1
 -19  18  -4 534.216 448.644   1
  18   1  -4 118.535 669.337   4
  19  -1  -4 2037.81 932.159   2
  18   1  -4-23.3789 757.022   2
  19  -1  -4 822.734 674.424   4
  -1 -18  -4-17.5393 483.547   4
  -1 -18  -4 915.191 443.979   1
   1 -19  -4 622.612 461.692   4
  18   1  -4 872.133 541.574   3
  18   1  -1 12880.1 1088.39   4
  19  -1  -1 11245.1 1104.97   4
 -18  19  -1 14274.1 1168.80   1
 -19  18  -1 15021.5 1179.54   1
  18   1  -1 14077.5 1242.26   2
  19  -1  -1 10840.5 881.102   1
  19  -1  -1 13281.1 1224.02   2
  18   1  -1 15156.4 1412.15   3
  19  -1  -1 13615.1 1361.42   3
  18   1  -1 12738.3 929.618   1
 -18  19   2 429.037 553.217   1
 -19  18   2 1098.35 543.496   1
  18   1   2 631.399 135.604   1
  19  -1   2 936.706 238.881   1
  19  -1   2 10.4255 826.264   3
 -19  18   5 2594.88 982.724   1
 -18  19   5 2806.85 982.000   1
   1 -19   5 1941.52 237.723   4
  18   1   5 2206.27 1062.95   3
  19  -1   5 2234.13 1055.32   3
 -19  18   8 344.716 1004.38   1
 -18  19   8 1689.40 1036.79   1
 -18  19   8 348.953 632.272   3
 -19  18   8 1570.56 712.749   3
  18   1   8 3513.01 1485.03   3
  19  -1   8-542.020 1170.57   3
   0 -19  -8 79124.5 3436.12   2
  19   0  -8 82909.9 4181.80   4
  19   0  -8 81958.8 4565.74   2
   0 -19  -8 82446.4 3678.67   4
 -19  19  -8 84101.1 3300.11   1
 -19  19  -5-383.670 477.902   1
  19   0  -5-488.660 387.032   3
  19   0  -5-488.673 730.986   4
  19   0  -5 906.345 921.285   2
   0 -19  -5 446.614 616.923   4
 -19  19  -2 66377.2 2354.02   1
  19   0  -2 60338.4 2388.85   4
  19   0  -2 69646.7 2868.41   2
   0 -19  -2 69101.9 1639.12   4
  19   0  -2 69579.0 2738.79   3
  19   0   1-257.960 226.093   1
  19   0   1 557.546 814.134   3
 -19  19   1-215.168 485.925   1
 -19  19   4 21975.0 1807.36   1
  19   0   4 21980.8 2074.75   3
 -19  19   7-39.1361 792.707   1
 -19  19   7-51.9240 591.952   3
  19   0  10 21471.5 2772.29   3
   0  20  -8 21260.9 2094.30   1
   0  20  -8 21792.8 1949.31   2
  20 -20  -8 20656.4 2365.70   2
  20 -20  -8 24269.3 2616.21   4
  20 -20  -5 371.182 760.895   4
   0  20  -5-425.658 626.100   2
   0  20  -5 473.877 618.709   1
  20 -20  -5-567.255 864.298   2
   0  20  -2 17754.3 1075.03   2
  20 -20  -2 15263.1 1441.44   4
  20 -20  -2 18565.8 1460.76   2
   0  20  -2 18792.9 1353.28   1
   0  20   1 115.248 336.169   1
  20 -20   1 424.779 398.277   2
  20 -20   1 774.040 507.441   4
   0  20   1 15.0728 117.449   4
   0  20   1 219.268 722.456   3
   0  20   1-193.878 517.665   2
  20 -20   4 18059.8 1986.98   3
   0  20   4 18393.0 1760.89   3
  20 -20   4 17400.2 1217.92   2
   0  20   4 18607.0 1194.74   1
  20 -20   7-311.966 1129.17   3
   0  20   7-662.572 586.969   1
   0  20   7-1073.33 986.342   3
  20 -20  10 19102.6 2433.50   3
   0  20  10 31999.6 2981.49   3
  19 -20  -9 6485.53 1628.03   4
  20 -19  -9 4368.92 1512.61   4
  -1  20  -9 7009.41 1472.43   1
   1  19  -9 5362.41 1251.69   2
   1  19  -9 9104.92 1551.40   1
  20 -19  -9 6026.73 1616.63   2
  -1  20  -9 5940.81 1330.35   2
  19 -20  -9 5781.43 1655.61   2
  20 -19  -6 13308.3 1732.82   4
  19 -20  -6 14306.3 1792.88   4
   1  19  -6 14246.8 1540.55   1
  19 -20  -6 18090.9 2075.16   2
  -1  20  -6 15729.7 1620.45   1
   1  19  -6 16866.5 1559.23   2
  -1  20  -6 17619.8 1509.83   2
   1  19  -6 16047.2 812.408   4
  20 -19  -6 15267.0 1860.72   2
  20 -19  -3 2148.67 694.073   4
   1  19  -3 961.204 510.771   2
  -1  20  -3 1889.68 518.971   2
  19 -20  -3 2391.97 799.192   4
  20 -19  -3 2241.56 815.612   2
  19 -20  -3 1483.40 785.796   2
   1  19  -3 1016.25 519.152   1
  -1  20  -3 1113.13 586.717   1
  20 -19   0 17383.0 1277.20   4
  20 -19   0 16279.8 1150.64   2
  19 -20   0 17557.3 1110.29   2
  19 -20   0 15647.2 1187.00   4
   1  19   0 16847.0 1555.49   3
   1  19   0 16932.9 1074.60   1
  -1  20   0 17851.0 1153.24   1
  -1  20   0 18046.6 1131.00   2
   1  19   0 15650.4 1113.03   2
  20 -19   3 10520.1 1535.79   3
  19 -20   3 9273.89 1439.01   3
  19 -20   3 12335.2 694.301   2
  -1  20   3 9678.18 966.273   4
   1  19   3 10433.4 1036.22   4
  -1  20   3 9636.74 885.889   1
   1  19   3 9545.15 806.328   1
 -19  -1   3 8661.45 1004.08   3
  -1  20   3 10219.4 1498.82   3
   1  19   3 9620.61 1412.81   3
 -20   1   3 8985.43 981.882   3
  19 -20   3 10330.1 800.383   2
  20 -19   3 11643.9 933.088   2
  -1  20   6 11944.2 1179.40   1
  20 -19   6 10392.6 1702.59   3
  19 -20   6 13218.7 1857.60   3
   1  19   6 10709.0 1055.92   1
  -1  20   6 14562.6 1734.29   3
   1  19   6 15365.0 1777.33   3
  20 -19   9 3823.35 1502.37   3
  19 -20   9 2285.34 1322.54   3
  -1  20   9 5927.93 1502.02   3
   1  19   9 6288.15 1460.04   3
  20 -18 -10 4991.47 1673.45   4
   2  18 -10 4532.42 1395.08   1
  18 -20 -10 5010.38 1772.62   4
  -2  20 -10 5699.15 1459.36   1
   2  18 -10 2922.62 1252.85   2
  20 -18 -10 3679.42 1516.19   2
  18 -20 -10 4745.18 1653.73   2
  -2  20  -7 43319.5 2660.35   1
   2  18  -7 41808.0 2717.19   1
   2  18  -7 43021.2 1745.11   4
   2  18  -7 46126.1 2659.26   2
  20 -18  -7 41387.9 3036.42   2
  -2  20  -7 42692.7 2295.85   2
  18 -20  -7 41525.4 2959.82   2
  20 -18  -7 40463.8 2982.83   4
  18 -20  -7 40774.1 2983.01   4
  20 -18  -4 7412.16 1222.84   4
  18 -20  -4 6637.82 1154.92   4
   2  18  -4 7205.50 937.067   2
   2  18  -4 5860.79 956.343   1
  -2  20  -4 5301.40 744.758   2
  -2  20  -4 6467.91 985.246   1
  18 -20  -4 7283.70 1155.64   2
  20 -18  -4 4289.24 1015.12   2
  20 -18  -1 116260. 3314.72   4
  -2  20  -1 119411. 2168.56   2
  18 -20  -1 113512. 2849.86   2
   2  18  -1 115573. 3735.75   3
  20 -18  -1 109704. 3082.75   2
   2  18  -1 120791. 2942.55   1
  -2  20  -1 118857. 3005.78   1
  18 -20  -1 118643. 3230.37   4
  -2  20  -1 116549. 2318.91   2
  -2  20   2 23046.2 1274.95   1
  20 -18   2 24101.9 1165.85   2
  20 -18   2 23508.3 2032.04   3
  18 -20   2 24786.6 918.073   2
   2  18   2 21633.0 1107.85   1
  20 -18   2 26497.2 1188.14   2
  -2  20   2 23623.0 1813.21   3
   2  18   2 23736.2 1896.18   3
  -2  20   2 26187.7 1654.97   2
  -2  20   2 23579.9 1042.61   4
  18 -20   2 23372.5 912.651   2
   2  18   2 25664.9 1276.92   4
  20 -18   5 60849.7 3412.08   3
  18 -20   5 62534.1 3407.64   3
  -2  20   5 58742.0 2337.43   1
  18 -20   5 64533.4 2266.16   2
  -2  20   5 60614.9 3073.19   3
   2  18   5 57225.3 2050.22   1
   2  18   5 65144.2 3289.52   3
  20 -18   8 8651.93 1742.54   3
  18 -20   8 5655.49 1547.29   3
  -2  20   8 11705.8 1714.32   3
   2  18   8 8977.31 1645.02   3
  20 -17  -8 6803.00 1538.03   4
   3  17  -8 3801.52 1134.37   1
  17 -20  -8 4763.90 1374.61   4
   3  17  -8 5666.34 917.936   4
  -3  20  -8 4554.23 1063.23   1
   3  17  -8 7909.68 1409.74   2
  20 -17  -8 6225.14 1506.47   2
  -3  20  -8 5269.86 1042.72   2
  17 -20  -8 1741.58 1088.96   2
  20 -17  -5 4065.68 1118.11   2
  20 -17  -5 4221.46 1122.68   4
  17 -20  -5 3198.94 1022.77   4
  -3  20  -5 2690.30 841.345   1
   3  17  -5 2737.20 846.319   1
   3  17  -5 3677.47 880.420   2
   3  17  -5 2996.46 420.808   4
  -3  20  -5 3303.12 691.938   2
  17 -20  -5 2863.09 991.938   2
 -20   3  -5 2438.86 299.118   1
  -3  20  -2 6012.70 515.870   2
   3  17  -2 7521.98 819.260   2
  -3  20  -2 7463.19 621.150   2
  20 -17  -2 6089.70 946.446   4
 -20   3  -2 7326.33 646.099   1
  20 -17  -2 8482.91 1063.14   2
   3  17  -2 7060.81 850.459   1
  17 -20  -2 5809.04 847.440   2
   3  17  -2 7067.16 1073.07   3
  -3  20  -2 5557.15 778.357   1
  17 -20  -2 6129.28 917.706   4
  -3  20   1 6335.93 711.317   1
  17 -20   1 3926.60 355.545   2
  20 -17   1 5307.56 1141.59   3
   3  17   1 5960.55 548.945   4
  -3  20   1 5817.42 356.403   4
  17 -20   1 4888.86 690.748   4
  20 -17   1 7323.43 756.327   2
   3  17   1 5103.41 974.211   3
  -3  20   1 5711.90 747.766   2
  17 -20   1 4991.37 462.860   2
   3  17   1 7105.24 647.833   1
  20 -17   4 12801.7 1774.18   3
   3  17   4 17002.6 1034.08   1
  17 -20   4 16939.7 959.529   2
  -3  20   4 17513.3 1687.98   3
 -20   3   4 13823.6 987.153   3
   3  17   4 17896.1 1848.24   3
  20 -17   4 13927.0 1185.06   2
  -3  20   4 17235.9 1242.48   1
  20 -17   7 1990.37 1080.61   3
  17 -20   7 1024.26 1097.30   3
  -3  20   7 3472.43 828.063   1
  -3  20   7 2090.80 1063.96   3
   3  17   7 4447.08 1248.30   3
  20 -17  10 4053.51 1494.38   3
  17 -20  10 4018.36 1529.16   3
  -3  20  10 3332.51 1459.40   3
   3  17  10 5700.62 1659.49   3
   4  16  -9 5770.18 1444.13   1
  16 -20  -9 3399.58 1396.13   4
  -4  20  -9 4435.26 1263.22   1
   4  16  -9 2848.59 947.526   4
   4  16  -9 1597.57 1053.60   2
  20 -16  -9 639.553 1263.96   2
  16 -20  -9 2023.90 1142.28   2
  -4  20  -9 3646.33 1071.64   2
  20 -16  -9 2727.12 1404.56   4
  -4  20  -6 48331.0 2594.91   1
   4  16  -6 50045.8 1873.96   4
   4  16  -6 48615.0 2790.39   1
 -20   4  -6 47471.5 1248.27   1
  20 -16  -6 47016.9 3016.60   4
   4  16  -6 49235.6 2608.99   2
  20 -16  -6 44658.5 2927.71   2
  -4  20  -6 45022.2 1990.80   2
  16 -20  -6 47152.0 2797.42   2
  16 -20  -6 48917.2 3005.07   4
  20 -16  -3 10008.1 1246.85   4
   4  16  -3 9523.25 976.563   2
  16 -20  -3 7997.17 1123.93   4
   4  16  -3 7844.28 954.413   1
  20 -16  -3 8810.01 1144.21   2
  -4  20  -3 8534.55 675.464   2
 -20   4  -3 8398.53 636.455   1
  -4  20  -3 8486.84 996.131   1
   4  16  -3 8974.26 1118.99   3
  16 -20  -3 8211.37 1054.30   2
  20 -16   0 29474.2 2014.47   3
  20 -16   0 31085.5 1690.01   4
  20 -16   0 32841.1 1578.22   2
  16 -20   0 32991.4 1554.93   4
   4  16   0 31992.6 662.757   4
   4  16   0 28976.1 888.064   4
  16 -20   0 31595.6 1153.26   2
   4  16   0 33043.9 2026.28   3
   4  16   0 31917.2 1345.77   1
  -4  20   0 35691.3 1346.36   2
  -4  20   0 33508.3 1520.72   1
 -20   4   0 34231.6 1634.55   1
   4  16   3 1934.02 383.868   1
  20 -16   3 1664.79 545.081   2
  20 -16   3 2194.15 886.449   3
  -4  20   3 2315.50 567.982   4
  16 -20   3 1423.20 216.468   2
  -4  20   3 2174.29 684.332   3
   4  16   3 2575.70 914.620   3
 -20   4   3 1949.56 600.911   3
   4  16   3 2282.67 698.963   4
  -4  20   3 2507.24 564.833   1
  20 -16   6 17428.6 2078.90   3
  16 -20   6 17921.1 1994.39   3
  -4  20   6 20480.7 1849.56   3
   4  16   6 19920.2 2018.94   3
  -4  20   6 21026.4 1608.34   1
  20 -16   9 1436.06 1407.36   3
  16 -20   9 3798.79 1565.69   3
  -4  20   9 6144.73 1443.16   3
   4  16   9 3932.13 1592.77   3
  20 -15 -10 5523.65 1859.97   4
  15 -20 -10 6691.44 1786.28   4
  -5  20 -10 6736.63 1393.52   1
   5  15 -10 4471.12 1131.14   4
   5  15 -10 6170.76 1544.82   1
   5  15 -10 6080.48 1584.17   2
  20 -15 -10 4021.12 1768.05   2
  15 -20 -10 4322.95 1506.01   2
   5  15  -7 52975.2 3146.23   1
  20 -15  -7 47927.2 3255.49   4
  15 -20  -7 51835.1 3296.60   4
  -5  20  -7 54737.7 2864.16   1
   5  15  -7 52760.0 2309.34   4
   5  15  -7 56868.3 3088.62   2
  20 -15  -7 53944.8 3426.49   2
  15 -20  -7 54804.6 3197.40   2
  -5  20  -7 54523.4 2322.40   2
 -20   5  -7 53146.7 1490.80   1
  20 -15  -4 10804.2 1376.52   4
  15 -20  -4 9568.45 1271.98   4
   5  15  -4 9401.55 1096.43   2
  20 -15  -4 8989.15 1297.39   2
  -5  20  -4 11398.5 1226.68   1
   5  15  -4 11960.1 1222.04   3
  -5  20  -4 9593.00 707.279   2
 -20   5  -4 12003.6 715.712   1
  15 -20  -4 10291.2 1215.89   2
   5  15  -4 9679.16 699.830   4
   5  15  -4 11046.7 1197.81   1
  20 -15  -1 59462.4 2645.43   3
  20 -15  -1 62602.6 2391.45   4
  -5  20  -1 64459.8 1181.95   2
   5  15  -1 57393.8 964.128   4
  20 -15  -1 67388.7 2437.21   2
   5  15  -1 67660.2 2101.70   1
  15 -20  -1 66110.9 2283.03   4
   5  15  -1 67528.5 2774.66   3
  15 -20  -1 67030.4 1859.38   2
  -5  20  -1 63124.1 1352.19   2
  -5  20  -1 66279.2 2229.59   1
 -20   5  -1 61617.9 2029.84   1
  20 -15   2 23172.9 1910.81   3
   5  15   2 20428.7 924.931   1
  -5  20   2 22983.5 1329.30   1
   5  15   2 24613.5 1398.16   4
  -5  20   2 25233.1 1545.30   2
   5  15   2 22745.4 1819.90   3
  -5  20   2 23246.6 1017.61   4
 -20   5   2 21419.6 1485.37   3
  20 -15   5 48276.5 3037.04   3
  -5  20   5 41997.1 2405.28   3
  15 -20   5 38539.6 1463.65   2
  -5  20   5 45361.2 2169.80   1
   5  15   5 51600.6 3007.99   3
   5  15   5 42346.0 1510.52   1
  20 -15   8 9543.57 1742.43   3
  -5  20   8 11725.2 1648.55   3
   5  15   8 13960.4 1943.63   3
  -5  20   8 10641.6 1386.50   1
 -20   6  -8 2721.86 494.485   1
   6  14  -8 4230.97 1289.69   1
  20 -14  -8 2042.67 1141.80   4
  14 -20  -8 2520.72 1262.29   4
   6  14  -8 1504.34 737.289   4
  -6  20  -8 2149.32 928.021   1
   6  14  -8 2754.64 1168.87   2
   6  14  -8 2575.22 785.667   3
  20 -14  -8 1562.07 1343.93   2
  14 -20  -8 1679.66 1029.36   2
  -6  20  -8 1270.51 677.843   2
  20 -14  -5 11282.2 1466.63   2
  20 -14  -5 10929.0 1590.05   4
   6  14  -5 13508.1 1448.66   1
 -20   6  -5 14570.0 810.698   1
  14 -20  -5 10156.3 1354.37   4
   6  14  -5 13282.9 1393.96   2
   6  14  -5 14027.1 1055.34   4
  -6  20  -5 14155.2 1383.84   1
   6  14  -5 13807.8 1289.69   3
  14 -20  -5 13397.6 1472.31   2
  -6  20  -5 11792.7 841.472   2
 -20   6  -2 23300.7 1196.10   1
   6  14  -2 24857.2 1413.38   2
  20 -14  -2 22927.9 1645.43   4
   6  14  -2 21822.3 808.196   4
  20 -14  -2 25152.9 1652.46   2
   6  14  -2 25835.6 1474.31   1
  14 -20  -2 22864.1 1511.54   4
   6  14  -2 24591.2 1635.98   3
  14 -20  -2 23849.2 1321.32   2
  -6  20  -2 22989.4 1425.99   1
  20 -14   1 10313.2 1389.33   3
  -6  20   1 13026.0 1016.84   1
  20 -14   1 12445.1 960.499   2
  14 -20   1 11955.4 844.910   4
   6  14   1 12023.9 899.365   4
 -20   6   1 11728.0 1111.27   1
  -6  20   1 13411.0 956.583   2
   6  14   1 13131.9 1409.78   3
   6  14   1 13463.5 738.208   1
  20 -14   4 11105.7 1534.55   3
  -6  20   4 7729.32 1076.64   3
   6  14   4 11536.5 1531.27   3
 -20   6   4 10249.9 866.214   3
   6  14   4 11374.0 687.881   1
  -6  20   4 12455.7 1137.22   1
  20 -14   7 11054.7 1711.03   3
  -6  20   7 12922.6 1463.28   1
  -6  20   7 11836.2 1484.21   3
   6  14   7 12535.0 1759.89   3
  20 -14  10 1137.45 1205.61   3
  -6  20  10 1360.71 1174.24   3
   6  14  10 1564.90 1249.58   3
  13 -20  -9 2722.13 1366.07   4
   7  13  -9 4357.93 1107.79   4
  -7  20  -9 1833.55 960.675   1
   7  13  -9 2264.18 1135.91   2
  20 -13  -9 1295.99 1229.82   2
   7  13  -9 416.402 1022.72   1
  20 -13  -9 1189.69 1155.82   4
  13 -20  -9 646.551 1110.82   2
  -7  20  -9 1131.02 758.710   2
 -20   7  -9 1996.25 512.115   1
 -20   7  -6 13614.3 840.657   1
   7  13  -6 15299.6 1676.32   1
  20 -13  -6 16007.7 1910.05   4
  13 -20  -6 15753.2 1804.97   4
   7  13  -6 15070.0 1301.99   4
   7  13  -6 14853.6 1558.26   2
  -7  20  -6 15574.0 1548.26   1
  20 -13  -6 17542.3 1979.15   2
   7  13  -6 16952.7 1352.34   3
  13 -20  -6 14191.2 1595.12   2
  -7  20  -6 14171.9 1039.45   2
  13 -20  -3 5345.95 848.201   4
   7  13  -3 5885.45 875.637   2
  20 -13  -3 6058.89 1038.04   4
  20 -13  -3 6775.24 1054.73   2
 -20   7  -3 5757.25 609.937   1
   7  13  -3 6181.85 916.279   3
  -7  20  -3 4831.61 798.696   1
   7  13  -3 5807.03 570.861   4
  13 -20  -3 6071.90 874.478   2
   7  13  -3 5237.48 841.627   1
  20 -13   0 55218.7 2599.68   3
  20 -13   0 57434.8 2184.33   4
  20 -13   0 57971.3 2111.55   2
   7  13   0 53488.0 1568.10   4
  -7  20   0 53297.1 1236.07   2
   7  13   0 56773.1 1643.93   1
 -20   7   0 53702.0 2052.75   1
   7  13   0 57802.1 2584.82   3
  -7  20   0 56562.2 2020.31   1
  13 -20   0 56210.3 1825.50   4
  20 -13   3 4131.89 1031.83   3
   7  13   3 4469.31 833.190   4
  -7  20   3 4561.82 893.069   2
  13 -20   3 4488.74 631.456   4
 -20   7   3 4729.96 940.061   1
  -7  20   3 4383.43 639.219   4
  -7  20   3 5135.44 773.583   1
   7  13   3 4145.61 1061.90   3
 -20   7   3 3404.64 713.676   3
   7  13   3 4070.36 370.814   1
  20 -13   6 6859.70 1507.69   3
  13 -20   6 4421.69 656.599   2
  -7  20   6 5428.12 1018.68   3
   7  13   6 6686.72 1420.09   3
  -7  20   6 6682.19 1087.96   1
  20 -13   9 2219.50 1312.11   3
  -7  20   9 941.964 923.205   3
   7  13   9 819.217 1080.30   3
  20 -12 -10 3225.68 1427.69   4
  12 -20 -10 9183.49 1895.93   4
   8  12 -10 7370.11 1443.56   4
  -8  20 -10 5989.61 1254.17   1
   8  12 -10 9618.84 1958.82   2
  20 -12 -10 5464.93 1787.93   2
  12 -20 -10 5855.63 1489.64   2
  -8  20  -7 38927.4 2376.23   1
  12 -20  -7 45496.3 2999.02   4
   8  12  -7 43759.8 2326.60   4
   8  12  -7 42279.8 2768.26   2
  20 -12  -7 39447.7 2980.13   2
   8  12  -7 48233.2 1911.58   3
  20 -12  -7 36449.7 2808.00   4
  12 -20  -7 41873.2 2646.44   2
  -8  20  -7 38795.7 1759.42   2
 -20   8  -7 44018.6 1622.79   1
   8  12  -4 17083.8 1497.41   1
  20 -12  -4 12800.5 1514.26   4
 -20   8  -4 15878.0 911.557   1
   8  12  -4 15944.6 1118.43   4
  12 -20  -4 10567.7 1311.46   4
  20 -12  -4 15849.2 1639.11   2
  -8  20  -4 17935.4 1430.86   1
   8  12  -4 17062.0 1352.05   3
  12 -20  -4 14964.4 1335.32   2
   8  12  -4 17414.9 1506.96   2
  20 -12  -1 76058.5 2899.92   3
 -20   8  -1 76078.9 2258.41   1
  20 -12  -1 80285.8 2661.03   4
  12 -20  -1 77730.6 2358.79   4
  20 -12  -1 79089.1 2622.87   2
   8  12  -1 71767.0 2750.44   3
   8  12  -1 75609.4 1583.64   4
   8  12  -1 71778.0 2183.34   1
  -8  20  -1 78770.6 2450.53   1
  12 -20  -1 73705.0 1599.78   2
  20 -12   2 27919.2 2040.20   3
   8  12   2 29134.0 830.756   1
  12 -20   2 29731.4 1137.22   4
  -8  20   2 29367.7 1144.43   4
 -20   8   2 29814.9 1833.30   1
  -8  20   2 30589.9 1565.75   1
   8  12   2 27823.7 1556.88   4
  -8  20   2 29796.6 1510.21   2
   8  12   2 32455.3 2180.35   3
 -20   8   2 25873.0 1651.42   3
  -8  20   5 35681.9 2072.61   1
  -8  20   5 31608.4 2050.89   3
   8  12   5 36029.3 2555.22   3
 -20   8   5 25426.4 1117.10   3
  20 -12   5 38170.2 2687.67   3
  20 -12   8 1478.81 1157.42   3
  -8  20   8 3371.17 940.505   1
  -8  20   8 2815.43 1131.24   3
   8  12   8 5533.26 1362.30   3
  20 -11  -8 8878.97 1697.11   4
  11 -20  -8 12422.6 1782.23   4
   9  11  -8 9242.18 1419.13   4
  -9  20  -8 7978.51 1267.85   1
  20 -11  -8 9762.12 1830.29   2
   9  11  -8 6556.61 1433.08   2
 -20   9  -8 8402.60 836.138   1
  -9  20  -8 9177.15 1032.54   2
  11 -20  -8 9559.89 1428.55   2
 -20   9  -5 41482.5 1498.23   1
  20 -11  -5 40691.8 2664.09   4
   9  11  -5 42270.0 1990.48   4
  11 -20  -5 36171.5 2355.93   4
  20 -11  -5 38929.6 2603.44   2
  -9  20  -5 35298.6 2009.61   1
   9  11  -5 38328.8 2341.36   2
   9  11  -5 40687.7 1811.66   3
  11 -20  -5 39791.3 2209.09   2
  20 -11  -2 8139.80 1020.79   3
  20 -11  -2 9917.00 1100.12   4
   9  11  -2 8331.44 922.281   1
   9  11  -2 10008.4 716.387   4
  20 -11  -2 9645.36 1137.99   2
  11 -20  -2 9338.99 961.965   4
   9  11  -2 8427.72 933.355   2
 -20   9  -2 9260.88 805.052   1
   9  11  -2 9568.31 1045.58   3
  -9  20  -2 11245.2 1027.71   1
  11 -20  -2 8841.72 766.296   2
  11 -20   1 61405.4 1604.46   4
  -9  20   1 65426.3 1644.30   2
   9  11   1 63522.1 2032.38   4
 -20   9   1 60695.5 2378.93   1
   9  11   1 64683.6 2821.36   3
   9  11   1 61973.4 1331.31   1
  -9  20   1 65502.2 2250.17   1
  20 -11   1 57446.2 2755.50   3
 -20   9   4 16188.7 1574.63   1
  11 -20   4 12716.9 1054.28   4
   9  11   4 13043.5 1579.64   3
 -20   9   4 13478.8 1070.06   3
  20 -11   4 10731.8 1525.92   3
  -9  20   4 14832.9 1316.02   1
  20 -11   7 7105.37 1541.19   3
  -9  20   7 7799.07 1243.90   1
  -9  20   7 6881.17 1223.26   3
   9  11   7 8880.71 1605.20   3
  20 -11  10 2078.53 1442.48   3
  -9  20  10 1181.43 1107.31   3
   9  11  10 549.801 1241.89   3
 -10  20  -9 2166.81 758.098   2
  10  10  -9 2313.72 1037.83   4
  20 -10  -9 2498.85 1414.20   4
  10 -20  -9 1704.02 1087.16   4
 -10 -10  -9 3629.76 1092.62   4
 -10  20  -9 4157.48 1175.13   1
  10  10  -9 3813.27 1417.88   2
  20 -10  -9 4046.61 1533.34   2
 -20  10  -9 2787.11 679.408   1
  10 -20  -9 428.385 918.442   2
  10  10  -6 16070.8 1468.02   4
  10  10  -6 15112.6 1717.97   2
  10 -20  -6 15384.7 1679.16   4
  20 -10  -6 16326.4 1935.13   2
 -10  20  -6 15503.6 1483.63   1
  10  10  -6 17028.7 1182.16   3
  20 -10  -6 10932.4 1649.02   4
  10 -20  -6 14598.7 1466.13   2
 -20  10  -6 15741.7 1015.70   1
 -10  20  -6 14340.8 859.688   2
  20 -10  -3 6798.16 921.183   3
  20 -10  -3 6000.72 973.715   4
  10  10  -3 5417.69 885.214   2
  10  10  -3 4934.76 626.093   4
 -20  10  -3 4563.96 601.527   1
  10 -20  -3 4860.93 857.934   4
  20 -10  -3 5320.18 970.438   2
  10  10  -3 4434.79 793.451   3
 -10  20  -3 5919.62 839.639   1
  10 -20  -3 5507.10 768.852   2
 -10  20   0 8445.77 875.548   1
 -20  10   0 8093.80 897.627   1
  20 -10   0 8654.25 935.426   2
  10  10   0 9781.47 684.613   1
  10  10   0 8682.34 731.138   4
  10  10   0 10739.3 1262.91   3
  10 -20   0 9174.38 754.031   4
  20 -10   0 8438.71 1198.88   3
 -20  10   3 8383.05 1140.09   1
  20 -10   3 4337.19 1162.68   3
  20 -10   3 5852.24 774.316   1
 -10  20   3 4682.84 832.221   2
  10 -20   3 6035.45 649.779   4
 -10  20   3 6227.15 859.835   1
  10  10   3 6041.79 1066.30   3
 -20  10   3 5050.92 804.857   3
  10 -20   6 9232.82 717.349   2
 -10  20   6 14424.0 1472.41   3
 -10  20   6 12891.8 1448.89   1
  10  10   6 16030.7 1889.58   3
  20 -10   6 15423.1 1960.02   3
  20 -10   9 2026.18 1299.54   3
 -10  20   9 2364.84 1002.51   3
  10  10   9 2696.35 1485.25   3
  20  -9 -10 3631.04 1457.56   4
  11   9 -10 1661.93 1013.24   4
   9 -20 -10 2189.68 1402.09   4
  -9 -11 -10 2535.90 1107.26   4
 -11  20 -10 2987.39 1053.15   1
  11   9 -10 840.475 1223.15   2
  20  -9 -10 2870.37 1509.15   2
 -20  11 -10 1347.00 661.871   1
   9 -20 -10 1416.52 1064.63   2
  11   9  -7 8697.43 1224.02   4
  20  -9  -7 6225.91 1403.10   4
   9 -20  -7 11138.9 1625.89   4
  11   9  -7 9389.18 1585.85   2
 -11  20  -7 9473.48 1257.41   1
  20  -9  -7 6871.43 1429.98   2
  -9 -11  -7 9119.15 1205.21   4
  11   9  -7 7537.70 755.702   3
 -20  11  -7 9242.86 916.769   1
   9 -20  -7 9604.59 1368.38   2
 -11  20  -7 9119.06 841.073   2
 -20  11  -4 16609.4 1020.70   1
  20  -9  -4 16040.9 1669.39   2
  20  -9  -4 13647.8 1557.58   4
  11   9  -4 15434.1 1568.32   2
  11   9  -4 15186.0 1201.11   4
   9 -20  -4 14958.4 1419.92   4
 -11  20  -4 16123.2 1344.50   1
  11   9  -4 16349.7 1238.33   3
   9 -20  -4 16209.3 1264.31   2
  20  -9  -1 67054.9 2686.52   3
  20  -9  -1 64687.2 2412.86   4
  20  -9  -1 68945.1 2508.00   2
   9 -20  -1 61284.8 1968.69   4
  11   9  -1 65112.8 1732.29   4
  11   9  -1 65940.5 2639.37   3
 -20  11  -1 69738.0 2167.53   1
  11   9  -1 66900.5 2091.56   1
 -11  20  -1 69197.3 2302.01   1
   9 -20   2 11376.1 587.538   4
 -11  20   2 11961.5 838.789   4
 -11  20   2 11357.4 887.942   2
 -11  20   2 11307.8 1051.62   1
   9 -20   2 10505.1 640.497   4
  20  -9   2 9943.11 857.476   1
 -20  11   2 10081.3 1109.86   1
  11   9   2 11740.7 1376.03   3
  20  -9   2 9850.40 1296.59   3
   9 -20   5 37630.1 1792.98   4
 -20  11   5 40564.5 2558.94   1
 -11  20   5 45054.6 2410.22   1
  11   9   5 43463.1 2815.36   3
 -20  11   5 36883.2 1587.58   3
  20  -9   5 38483.7 2638.05   3
 -11  20   8 11210.2 1572.85   1
 -11  20   8 10117.0 1389.89   3
  11   9   8 10791.9 1843.60   3
  20  -9   8 9408.26 1773.50   3
   8 -20  -8 1625.35 976.503   2
 -12  20  -8 1062.28 572.617   2
   8 -20  -8 1217.34 981.591   4
  20  -8  -8 80.8942 991.555   4
  12   8  -8 2169.74 1009.85   4
  12   8  -8 460.359 1131.75   2
  20  -8  -8 3234.96 1363.58   2
  -8 -12  -8 1714.09 852.296   4
 -12  20  -8 917.968 768.349   1
 -20  12  -8 1369.65 529.584   1
  12   8  -5 32065.6 1871.79   4
  12   8  -5 34054.8 2382.98   2
  20  -8  -5 33282.5 2474.03   2
   8 -20  -5 32948.4 2193.08   4
  20  -8  -5 40068.5 2587.09   4
 -12  20  -5 38025.1 2052.85   1
  12   8  -5 38421.9 1706.94   3
   8 -20  -5 38872.2 2065.69   2
 -20  12  -5 34756.1 1532.35   1
  20  -8  -2 29408.7 1726.44   3
   8 -20  -2 29546.5 1200.03   2
  12   8  -2 27225.8 1662.61   2
  20  -8  -2 30194.7 1774.90   4
  12   8  -2 30787.5 1382.53   4
   8 -20  -2 28359.8 1514.12   4
 -20  12  -2 29908.9 1400.79   1
  12   8  -2 34369.9 1849.27   3
  20  -8  -2 29420.4 1903.14   2
 -12  20  -2 29434.7 1625.00   1
  12   8   1 79077.6 1544.77   1
 -20  12   1 71530.6 2590.03   1
 -12  20   1 78677.5 1483.54   2
 -12  20   1 78621.3 2492.89   1
   8 -20   1 76301.2 1537.88   4
  12   8   1 73710.9 1277.30   1
  12   8   1 74949.9 2292.53   4
  12   8   1 84298.8 3238.29   3
  20  -8   1 75451.3 2054.25   1
  20  -8   1 76489.9 3137.14   3
 -12  20   4 13809.4 1297.80   1
 -20  12   4 13442.9 1451.49   1
   8 -20   4 14068.4 961.799   4
  12   8   4 14288.1 1591.21   3
  20  -8   4 13146.6 1033.52   1
 -20  12   4 14191.5 1171.46   3
  20  -8   4 12401.9 1565.95   3
 -12  20   7 47896.4 2855.61   1
 -12  20   7 42026.3 2311.37   3
  12   8   7 46994.2 3165.42   3
  20  -8   7 43207.8 3094.83   3
 -12  20  10 8076.34 1457.85   3
  12   8  10 11527.2 2061.56   3
   7 -20  -9 4563.49 1309.10   2
 -13  20  -9 2603.93 750.637   2
  -7 -13  -9 3772.26 1109.08   2
  13   7  -9 2650.83 1132.99   4
  -7 -13  -9 3117.28 1038.72   4
   7 -20  -9 1218.97 1064.59   4
  13   7  -9 2885.41 1296.87   2
  20  -7  -9 1129.20 1155.83   2
 -13  20  -9 1852.42 830.299   1
  20  -7  -9 1293.48 992.579   4
 -20  13  -9 2855.00 701.283   1
   7 -20  -6 5199.39 978.198   2
  20  -7  -6 8358.78 1513.85   4
  13   7  -6 4938.32 1008.58   4
  13   7  -6 9054.16 1447.88   2
   7 -20  -6 8203.15 1273.99   4
  20  -7  -6 5794.69 1325.58   2
  -7 -13  -6 6252.68 443.027   1
  -7 -13  -6 9617.64 1127.02   4
 -13  20  -6 7028.17 1032.21   1
  13   7  -6 9459.74 798.065   3
 -20  13  -6 8341.67 881.639   1
  20  -7  -3 4630.70 801.284   3
   7 -20  -3 3515.28 578.288   2
 -20  13  -3 4184.94 629.130   1
  13   7  -3 4059.20 863.512   2
  20  -7  -3 3955.39 898.482   4
  20  -7  -3 2789.74 903.543   2
   7 -20  -3 4795.01 821.357   4
  13   7  -3 3690.09 744.135   3
  13   7  -3 3178.38 643.855   4
 -13  20  -3 2933.56 642.521   1
  20  -7   0 53926.7 1726.07   1
 -13  20   0 60783.6 2204.14   1
  13   7   0 62496.4 1733.03   1
   7 -20   0 54252.4 1406.68   4
  13   7   0 54737.2 1648.82   1
  13   7   0 62154.5 2701.51   3
 -20  13   0 60444.3 2189.35   1
  20  -7   0 60372.6 2673.53   3
   7 -20   3 5585.82 339.838   4
 -13  20   3 4795.30 765.089   2
  20  -7   3 4689.63 591.765   1
   7 -20   3 4955.33 455.986   4
 -20  13   3 5414.26 959.474   1
 -13  20   3 5243.13 815.263   1
  13   7   3 5132.73 1152.07   3
  20  -7   3 7372.41 1334.98   3
 -20  13   3 4955.31 885.451   3
 -20  13   6 14460.4 1718.42   1
 -13  20   6 15711.7 1527.11   3
  13   7   6 17826.1 2011.19   3
   7 -20   6 9600.52 711.883   2
 -13  20   6 16189.1 1647.48   1
 -20  13   6 11056.6 1008.58   3
  20  -7   6 16465.6 1916.72   3
  20  -7   9 1536.44 1372.05   3
 -13  20   9 1641.96 938.020   3
  13   7   9 2720.22 1575.35   3
   6 -20 -10 1279.69 1202.35   2
  -6 -14 -10 1336.73 1038.13   2
  14   6 -10 2322.47 1247.47   4
  20  -6 -10 1155.45 1216.40   4
   6 -20 -10 1377.99 1169.36   4
  -6 -14 -10 1461.02 953.871   4
  14   6 -10 2498.44 1692.69   2
  20  -6 -10-983.560 1432.76   2
 -14  20 -10-342.737 870.214   1
 -20  14 -10 1018.35 710.617   1
  20  -6  -7 14756.9 1902.74   4
  14   6  -7 12947.8 1534.96   4
  -6 -14  -7 13150.0 1432.50   4
 -14  20  -7 13727.1 1440.14   1
  20  -6  -7 13838.7 1928.21   2
   6 -20  -7 13736.4 1659.86   4
 -20  14  -7 14387.1 1195.72   1
   6 -20  -7 13372.3 1497.45   2
  14   6  -7 15443.5 1974.74   2
   6 -20  -4 10863.7 1087.06   2
 -20  14  -4 11655.4 947.161   1
  20  -6  -4 10829.7 906.206   3
  -6 -14  -4 10592.8 649.571   1
  20  -6  -4 12931.1 1575.84   2
  20  -6  -4 8580.34 1250.83   4
  14   6  -4 11276.6 1455.77   2
  14   6  -4 11885.9 1150.42   4
   6 -20  -4 9676.74 1090.83   4
 -14  20  -4 11696.9 1166.64   1
  14   6  -4 13369.6 1088.75   3
 -14  20  -1 16395.0 1173.73   1
  20  -6  -1 15405.7 1252.19   2
  14   6  -1 15753.8 1017.69   4
  14   6  -1 13864.8 1044.92   1
 -20  14  -1 15146.4 1110.62   1
  20  -6  -1 13972.7 1185.33   4
  14   6  -1 15904.6 1391.62   3
  20  -6  -1 15481.1 1342.73   3
   6 -20  -1 16159.0 894.951   4
 -14  20   2 21881.4 1083.74   2
 -14  20   2 23886.7 1533.83   1
  20  -6   2 18346.8 980.313   1
 -20  14   2 21434.0 1559.91   1
  14   6   2 20604.6 1801.47   3
  20  -6   2 18894.9 1791.99   3
   6 -20   5 11667.2 869.956   4
 -14  20   5 13375.4 1472.64   1
 -20  14   5 14206.3 1588.21   1
  14   6   5 13754.9 1746.73   3
  20  -6   5 13214.0 1705.82   3
 -20  14   5 11610.3 1137.17   3
 -14  20   8 1367.99 835.490   1
 -14  20   8 2433.18 862.500   3
  14   6   8 4713.08 1527.95   3
  20  -6   8 1493.73 1137.47   3
  -5 -15  -8 14521.0 1583.92   2
  20  -5  -8 11249.0 1790.81   4
  15   5  -8 11001.8 1583.63   4
  15   5  -8 13361.1 2100.06   2
   5 -20  -8 13915.0 1772.39   4
  20  -5  -8 10841.0 1959.82   2
  -5 -15  -8 14606.2 1621.86   4
 -15  20  -8 14697.0 1533.10   1
 -20  15  -8 13378.2 1249.78   1
   5 -20  -8 14151.1 1659.51   2
   5 -20  -5 49989.3 2286.65   2
  15   5  -5 42896.5 2345.35   4
  15   5  -5 54506.2 3091.16   2
   5 -20  -5 42972.2 2327.72   4
  -5 -15  -5 41081.8 1277.12   1
  20  -5  -5 43600.6 2767.25   4
  -5 -15  -5 47485.8 2127.86   4
 -15  20  -5 44008.6 2168.99   1
  15   5  -5 54189.7 1844.84   3
 -20  15  -5 45885.0 1883.06   1
  20  -5  -5 53059.0 3044.75   2
  15   5  -2 18911.7 1338.42   1
  20  -5  -2 21124.4 1664.02   2
  15   5  -2 21214.4 1314.70   4
 -20  15  -2 21912.1 1287.38   1
   5 -20  -2 21099.5 1202.08   4
  20  -5  -2 20113.5 1488.87   4
  15   5  -2 21166.5 1536.57   2
  15   5  -2 25311.1 1646.33   3
 -15  20  -2 20134.2 1337.76   1
  20  -5  -2 22182.9 1567.57   3
  15   5   1 61759.1 1280.74   1
 -15  20   1 71164.5 2511.09   1
  15   5   1 58441.1 1078.19   1
  15   5   1 72077.2 3015.57   3
 -20  15   1 66712.4 2476.89   1
  20  -5   1 60758.3 1662.78   1
  20  -5   1 72286.5 3054.61   3
 -15  20   4 9961.88 1270.89   1
   5 -20   4 8577.45 482.128   4
  15   5   4 8475.05 1313.43   3
 -20  15   4 8853.82 1214.96   1
  20  -5   4 10026.1 1551.26   3
 -15  20   7 51831.4 3091.25   1
 -20  15   7 45967.1 1716.87   3
 -15  20   7 53679.3 2521.41   3
 -20  15   7 55657.1 3321.67   1
  15   5   7 55604.6 3451.20   3
  20  -5   7 46773.3 3232.38   3
  20  -5  10 2552.70 1610.72   3
  15   5  10 5039.58 1682.83   3
   4 -20  -9 3161.89 1070.62   2
  -4 -16  -9 5255.91 1190.37   2
  16   4  -9 3375.23 1317.97   4
   4 -20  -9 3880.82 1278.94   4
 -16  20  -9 5623.71 1165.11   1
  16   4  -9 5543.43 1907.86   2
  -4 -16  -9 3072.49 1089.91   4
  20  -4  -9 3144.49 1560.47   2
  20  -4  -9 4016.92 1360.05   4
 -20  16  -9 4343.08 883.612   1
   4 -20  -6 21114.3 1681.48   2
  16   4  -6 19075.2 2089.04   2
  20  -4  -6 20535.7 2161.20   2
  20  -4  -6 18622.5 1971.97   4
  16   4  -6 16215.3 1635.76   4
   4 -20  -6 19829.6 1751.26   4
  -4 -16  -6 21636.7 1647.50   4
 -16  20  -6 20388.4 1572.66   1
 -20  16  -6 18863.0 1375.03   1
  16   4  -6 15326.9 624.587   3
  20  -4  -3 3309.74 741.838   3
  16   4  -3 1408.69 543.007   4
 -16  20  -3 851.586 496.026   1
  20  -4  -3 1043.60 653.573   4
  16   4  -3 530.388 618.021   2
  20  -4  -3 1380.37 824.451   2
 -20  16  -3 1875.34 527.163   1
  -4 -16  -3 1168.03 381.439   1
   4 -20  -3 1023.77 509.978   4
  16   4  -3 1723.24 665.948   3
  16   4   0 27458.7 1115.98   1
  20  -4   0 28622.1 1244.65   1
 -16  20   0 31501.4 1653.35   1
 -20  16   0 28166.9 1628.45   1
  16   4   0 31387.4 2039.32   3
  20  -4   0 29866.7 2000.38   3
 -16  20   3 5909.77 747.928   2
 -20  16   3 8050.92 1083.62   1
  16   4   3 6568.07 1219.02   3
  20  -4   3 7133.49 1352.89   3
 -16  20   3 7878.99 1048.77   1
  20  -4   3 6515.87 557.226   1
 -20  16   6 47539.8 2943.00   1
  16   4   6 50998.2 3214.38   3
  20  -4   6 52617.8 3285.86   3
 -16  20   6 47328.2 2849.58   1
 -16  20   9 3884.48 1045.69   3
  16   4   9 6049.53 1682.86   3
  20  -4   9 2653.33 1621.11   3
   3 -20 -10 4172.05 1253.18   2
  -3 -17 -10 3815.98 1182.54   2
  20  -3 -10 3015.80 1315.48   4
  17   3 -10 6849.80 1620.55   4
   3 -20 -10 4851.69 1490.08   4
  -3 -17 -10 3788.31 1236.24   4
  17   3 -10 5809.57 1899.50   2
  20  -3 -10 6362.19 1897.80   2
 -20  17 -10 5429.18 1124.95   1
 -17  20 -10 5713.91 1180.87   1
  20  -3  -7 2518.33 1197.91   4
   3 -20  -7 3184.20 882.283   2
  -3 -17  -7 3271.82 994.742   2
  -3 -17  -7 2851.28 828.188   4
  17   3  -7 804.506 780.798   4
  17   3  -7 3457.34 1308.51   2
  20  -3  -7 4355.77 1424.17   2
   3 -20  -7 2671.62 968.727   4
 -17  20  -7 2134.45 749.442   1
 -20  17  -7 3165.89 733.580   1
   3 -20  -4 18502.9 1264.09   2
  17   3  -4 18221.3 1820.57   2
  20  -3  -4 17720.7 1704.75   4
  20  -3  -4 17269.3 1870.21   2
  -3 -17  -4 15057.7 954.377   1
   3 -20  -4 16822.0 1380.45   4
  -3 -17  -4 18239.9 1214.29   4
 -17  20  -4 16610.8 1347.27   1
  17   3  -4 21084.3 1341.73   3
 -20  17  -4 15767.6 1211.22   1
  17   3  -4 16416.9 1461.55   4
  20  -3  -4 16671.9 1209.59   3
 -17  20  -1 5527.32 798.760   1
  17   3  -1 5968.68 775.127   4
  20  -3  -1 6550.83 851.956   4
  20  -3  -1 6948.49 1003.97   2
  17   3  -1 5991.46 684.338   1
 -20  17  -1 7551.87 864.829   1
   3 -20  -1 5850.16 411.292   4
  -3 -17  -1 6103.31 762.505   1
  20  -3  -1 6627.41 724.935   1
  17   3  -1 9016.89 1175.75   3
  20  -3  -1 7791.63 1146.18   3
 -20  17   2 4485.26 820.875   1
 -17  20   2 3878.06 754.913   1
 -17  20   2 3700.22 531.362   2
  20  -3   2 3218.04 415.738   1
  17   3   2 4119.54 986.474   3
  20  -3   2 6337.59 1215.14   3
   3 -20   5 2029.61 286.300   4
 -20  17   5 1861.59 882.421   1
 -17  20   5 1936.47 867.623   1
  17   3   5 3574.67 1221.68   3
  20  -3   5 3105.70 1151.51   3
 -17  20   8 4702.11 1304.34   1
 -17  20   8 4350.76 949.503   3
  17   3   8 6774.09 1767.98   3
  20  -3   8 5674.04 1491.68   3
   2 -20  -8 9657.55 1340.05   2
  -2 -18  -8 14371.2 1583.65   2
  20  -2  -8 8400.74 1737.80   4
  18   2  -8 11363.7 2058.59   2
   2 -20  -8 12403.3 1670.64   4
  -2 -18  -8 11039.0 1454.80   4
  20  -2  -8 10711.2 1971.46   2
 -18  20  -8 13587.1 1439.44   1
  18   2  -8 11250.9 1667.56   4
 -20  18  -8 11548.5 1260.45   1
  20  -2  -5 47785.0 1479.55   3
   2 -20  -5 60095.1 2409.39   2
  18   2  -5 61357.9 3374.09   2
  20  -2  -5 60852.7 3149.24   4
   2 -20  -5 56357.2 2497.59   4
  -2 -18  -5 57297.1 2387.11   4
  18   2  -5 57517.2 2901.22   4
 -18  20  -5 61347.5 2476.83   1
 -20  18  -5 52109.7 2217.40   1
  18   2  -5 58897.6 1880.58   3
  20  -2  -5 58779.5 3374.45   2
 -18  20  -2 24845.2 1524.56   1
  18   2  -2 24189.1 1522.31   4
  18   2  -2 27418.2 1866.39   2
 -20  18  -2 24685.8 1506.60   1
  20  -2  -2 27768.0 1865.10   2
   2 -20  -2 27912.6 1162.19   4
  20  -2  -2 21307.9 1500.04   4
  -2 -18  -2 24005.9 1356.92   1
  18   2  -2 29163.9 1793.35   3
  20  -2  -2 23932.9 1706.93   3
  18   2   1 95214.1 1528.82   1
 -18  20   1 106834. 3143.01   1
 -20  18   1 112312. 3254.97   1
  18   2   1 106264. 3810.74   3
  20  -2   1 110213. 3876.52   3
  20  -2   1 93213.6 1853.54   1
 -18  20   4 4820.16 977.099   1
 -20  18   4 2663.79 823.673   1
  18   2   4 2839.23 1024.06   3
  20  -2   4 4011.62 1321.33   3
 -18  20   7 43758.2 2975.72   1
 -20  18   7 37665.7 1816.75   3
 -18  20   7 40321.2 2107.07   3
  18   2   7 45425.4 3270.70   3
  20  -2   7 44226.8 3145.56   3
 -20  18   7 38971.2 2839.01   1
  18   2  10 3489.14 1651.44   3
  20  -2  10 3674.09 1690.99   3
   1 -20  -9 6089.39 1329.76   2
  -1 -19  -9 6204.29 1246.18   2
  20  -1  -9 6941.56 1601.69   4
  19   1  -9 6755.47 1538.41   4
  -1 -19  -9 7287.18 1383.26   4
   1 -20  -9 4811.25 1282.22   4
  19   1  -9 6495.88 1849.17   2
 -19  20  -9 5590.77 1182.71   1
  20  -1  -9 6835.33 1806.89   2
 -20  19  -9 6133.16 1049.60   1
   1 -20  -6 13220.3 1330.52   2
  20  -1  -6 13113.5 1676.23   4
  19   1  -6 15581.6 1971.46   2
  20  -1  -6 17065.7 2045.55   2
   1 -20  -6 14019.6 1463.95   4
  -1 -19  -6 14659.2 1425.03   4
  19   1  -6 12337.0 1643.02   4
 -19  20  -6 13980.8 1296.73   1
 -20  19  -6 12916.9 1227.33   1
 -20  19  -3 9423.06 1010.74   1
  20  -1  -3 8858.69 1110.43   4
  19   1  -3 13327.6 1331.34   4
  19   1  -3 13375.1 1478.50   2
   1 -20  -3 11272.6 931.341   4
  20  -1  -3 14454.8 1577.39   2
  -1 -19  -3 11194.3 881.864   4
  19   1  -3 11813.6 1217.21   3
  20  -1  -3 11896.4 1192.49   3
 -19  20  -3 9435.83 1017.41   1
  20  -1   0 13931.4 832.400   1
 -19  20   0 18027.4 1319.30   1
 -20  19   0 17861.1 1308.59   1
  19   1   0 15020.1 831.533   1
  19   1   0 16360.7 1570.34   3
  20  -1   0 16245.3 1532.77   3
 -19  20   3 2573.95 743.057   1
 -20  19   3 2552.06 813.528   1
  19   1   3 3089.48 1063.81   3
  20  -1   3 1485.59 919.279   3
 -19  20   6 19753.7 2028.30   1
 -20  19   6 13667.4 1724.37   1
  19   1   6 19049.6 2163.68   3
  20  -1   6 17063.6 2060.68   3
  19   1   9 4566.27 1671.42   3
  20  -1   9 4889.25 1667.94   3
   0 -20 -10 25394.6 2316.61   2
   0 -20 -10 22341.7 2406.28   4
  20   0 -10 27160.0 2892.92   4
  20   0 -10 23764.5 3104.15   2
 -20  20 -10 24790.8 2017.38   1
   0 -20  -7-741.121 775.742   2
  20   0  -7 2058.03 1192.90   2
   0 -20  -7 105.753 692.190   4
 -20  20  -7 396.823 599.162   1
  20   0  -7-159.240 872.594   4
  20   0  -4 12736.2 1464.02   4
   0 -20  -4 13198.3 1075.04   4
  20   0  -4 13944.3 1667.95   2
  20   0  -4 12237.4 1142.82   3
 -20  20  -4 11432.4 1129.21   1
  20   0  -1 307.151 439.827   4
  20   0  -1 391.097 543.053   2
 -20  20  -1 224.139 425.940   1
  20   0  -1-40.0300 347.626   1
  20   0  -1 93.0606 758.512   3
 -20  20   2 21895.2 1618.31   1
  20   0   2 23387.4 1999.46   3
 -20  20   5 620.517 804.005   1
  20   0   5 1018.37 1049.09   3
 -20  20   8 21597.8 2400.03   1
 -20  20   8 15956.9 1444.91   3
  20   0   8 20928.6 2452.02   3
   0  21  -9-923.104 939.474   1
  21 -21  -9-1562.63 1339.72   2
  21 -21  -9-2.24668 1236.98   4
   0  21  -6 10069.5 1364.70   1
   0  21  -6 11480.3 1309.75   2
  21 -21  -6 11260.3 1692.60   2
  21 -21  -6 9468.13 1624.73   4
  21 -21  -3 500.990 702.910   4
   0  21  -3 438.665 517.384   2
  21 -21  -3 598.141 673.544   2
   0  21  -3 657.791 613.843   1
  21 -21   0 67813.0 2512.92   4
   0  21   0 68225.1 3127.19   3
  21 -21   0 72278.8 2315.49   2
   0  21   0 71700.3 2229.29   1
  21 -21   3 86.7165 312.898   2
   0  21   3 228.807 509.976   4
   0  21   3 1359.99 785.231   3
   0  21   3-179.006 374.652   1
  21 -21   3 628.610 470.670   2
  21 -21   6 23480.5 2409.51   3
   0  21   6 21396.4 1512.58   1
   0  21   6 24393.9 2220.01   3
  21 -21   9 899.051 1286.18   3
   0  21   9 1320.88 1391.21   3
   1  20  -7 26625.2 2233.86   1
  21 -20  -7 24700.4 2529.45   4
  20 -21  -7 26845.1 2576.82   4
  -1  21  -7 24939.5 2121.96   1
  21 -20  -7 23435.1 2372.10   2
   1  20  -7 27110.2 2046.67   2
  -1  21  -7 23487.7 1822.53   2
  20 -21  -7 21363.8 2326.86   2
  21 -20  -4 7382.22 1280.62   4
   1  20  -4 8494.01 1115.49   1
   1  20  -4 9235.27 1075.90   2
  -1  21  -4 8961.08 958.990   2
  -1  21  -4 8894.78 1194.29   1
  21 -20  -4 8183.71 1312.49   2
  20 -21  -4 8109.86 1284.02   4
  20 -21  -4 6909.26 1163.24   2
   1  20  -1 44568.6 1704.87   2
   1  20  -1 43583.3 1591.13   2
  21 -20  -1 43095.8 2217.78   4
  20 -21  -1 45108.4 2159.40   4
  -1  21  -1 47049.3 1514.51   2
  21 -20  -1 45250.5 2050.75   2
  20 -21  -1 45038.5 1987.05   2
   1  20  -1 47239.3 2585.32   3
   1  20  -1 47801.3 1931.28   1
  -1  21  -1 49850.5 1999.45   1
  -1  21  -1 43773.5 1585.27   2
  21 -20   2 10261.7 808.959   2
  21 -20   2 12296.4 1554.82   3
  21 -20   2 12771.9 869.726   2
  -1  21   2 11789.8 748.099   4
   1  20   2 11216.1 901.781   1
  -1  21   2 12544.9 971.065   1
  20 -21   2 12280.8 755.790   2
  -1  21   2 13181.4 1526.76   3
   1  20   2 13445.6 1551.71   3
   1  20   2 10991.7 800.920   4
  20 -21   2 10485.8 722.276   2
  21 -20   5 40151.0 2949.55   3
  20 -21   5 38278.2 2819.26   3
  -1  21   5 33680.3 1775.68   1
   1  20   5 33817.0 1648.21   1
  -1  21   5 36599.1 2522.62   3
   1  20   5 38440.7 2634.70   3
  21 -20   8 14932.2 2202.02   3
  20 -21   8 15755.6 2137.59   3
  -1  21   8 15590.6 1943.83   3
   1  20   8 18115.2 2242.69   3
  19 -21  -8 8201.66 1675.83   4
  -2  21  -8 10440.7 1572.20   1
   2  19  -8 10576.8 1665.68   1
  21 -19  -8 7710.00 1637.89   4
   2  19  -8 9277.16 1498.62   2
  -2  21  -8 10848.0 1438.76   2
  19 -21  -8 10315.4 1760.61   2
  21 -19  -8 6756.93 1643.35   2
  19 -21  -5 8353.46 1397.70   4
  21 -19  -5 6334.42 1269.90   4
   2  19  -5 7881.07 1159.29   1
   2  19  -5 7537.35 1054.13   2
  -2  21  -5 8352.59 942.335   2
  19 -21  -5 5789.94 1289.58   2
  -2  21  -5 4891.75 958.720   1
  21 -19  -5 6596.62 1325.97   2
  -2  21  -2 1274.15 402.128   2
  19 -21  -2 1390.86 637.158   4
   2  19  -2 953.383 474.313   2
  21 -19  -2 2486.52 758.767   4
  -2  21  -2 1778.62 456.481   2
  21 -19  -2 981.110 671.701   2
  19 -21  -2 1556.33 688.776   2
   2  19  -2 2178.62 602.142   1
  -2  21  -2 2109.37 603.377   1
  -2  21   1 11004.6 938.380   1
  21 -19   1 9537.12 1036.68   4
  21 -19   1 7757.17 1241.89   3
  19 -21   1 11407.2 1025.54   4
  21 -19   1 9225.35 849.666   2
   2  19   1 9119.70 549.964   4
  19 -21   1 9215.36 681.115   2
   2  19   1 10829.0 1335.18   3
  -2  21   1 9954.92 1019.36   2
   2  19   1 8994.06 763.541   1
  21 -19   4 4515.87 1203.53   3
  19 -21   4 4573.83 1266.07   3
  -2  21   4 2810.94 598.693   1
   2  19   4 2537.70 518.351   1
 -21   2   4 2762.39 662.791   3
  -2  21   4 3746.50 1003.20   3
   2  19   4 2007.11 892.152   3
  19 -21   4 2706.44 561.582   2
  21 -19   4 2263.94 680.293   2
  21 -19   7 1878.05 1116.44   3
  19 -21   7 2922.93 1198.01   3
  -2  21   7 5053.56 929.425   1
  -2  21   7 6193.87 1328.61   3
   2  19   7 3876.95 1244.15   3
  21 -19  10 3095.31 1618.56   3
  19 -21  10 1232.18 1470.75   3
  -2  21  10 4072.06 1596.03   3
   2  19  10 3697.84 1467.41   3
  21 -18  -9 2490.42 1315.14   4
   3  18  -9 2349.15 1135.88   1
  18 -21  -9 1674.77 1470.29   4
  -3  21  -9 1231.57 903.274   1
   3  18  -9 3117.78 1178.15   2
  21 -18  -9 2603.76 1685.06   2
  18 -21  -9 950.389 1180.24   2
   3  18  -6 55732.2 2951.10   1
  21 -18  -6 40785.1 2941.43   4
  18 -21  -6 49313.9 3081.83   4
  -3  21  -6 46553.9 2611.87   1
   3  18  -6 50682.1 2590.51   2
   3  18  -6 50000.2 1579.27   4
  21 -18  -6 50569.9 3144.92   2
  -3  21  -6 48725.4 2153.41   2
  18 -21  -6 43783.1 2821.18   2
  21 -18  -3 8041.26 1291.39   4
  18 -21  -3 11096.2 1344.04   4
   3  18  -3 10246.7 1024.64   2
 -21   3  -3 11725.8 720.540   1
  -3  21  -3 10592.8 800.131   2
   3  18  -3 10632.6 1136.54   1
  21 -18  -3 11281.9 1369.78   2
  -3  21  -3 11591.6 1200.96   1
  18 -21  -3 9613.47 1172.87   2
  21 -18   0 17833.4 1664.80   3
  18 -21   0 19757.9 1287.39   4
  21 -18   0 19054.7 1291.15   2
  21 -18   0 20358.7 1431.51   4
  18 -21   0 21581.6 1070.75   2
   3  18   0 22649.8 1799.22   3
   3  18   0 19702.4 1140.57   1
  -3  21   0 19661.8 1110.67   2
  -3  21   0 19562.1 1198.76   1
  21 -18   3 2311.69 573.748   2
  21 -18   3 2727.54 1074.50   3
  18 -21   3 1983.94 278.581   2
  -3  21   3 2690.10 542.515   4
   3  18   3 2635.95 708.418   4
  18 -21   3 2271.02 354.696   2
  -3  21   3 2707.49 984.114   3
   3  18   3 2889.38 1015.09   3
 -21   3   3 924.237 554.731   3
  -3  21   3 1655.09 542.198   1
   3  18   3 2719.39 459.093   1
   3  18   6 16939.0 1217.88   1
  21 -18   6 16593.2 2119.05   3
  18 -21   6 13314.4 1811.09   3
  -3  21   6 16360.4 1777.42   3
   3  18   6 20117.0 2040.99   3
  -3  21   6 14708.3 1363.06   1
  21 -18   9 8348.65 1855.29   3
  18 -21   9 3292.95 1394.47   3
  -3  21   9 8280.70 1668.69   3
   3  18   9 6910.73 1591.47   3
  -4  21 -10 11238.3 1736.17   1
  21 -17 -10 11632.4 2253.39   4
   4  17 -10 9101.67 1788.18   1
  17 -21 -10 10260.5 2101.97   4
   4  17 -10 14238.5 2053.94   2
  21 -17 -10 5971.30 1788.47   2
  17 -21 -10 11021.9 2050.24   2
  21 -17  -7 18670.7 2154.35   4
  -4  21  -7 19445.3 1840.12   1
  17 -21  -7 16150.4 2021.30   4
   4  17  -7 16468.3 1247.26   4
   4  17  -7 20756.2 1918.62   2
  21 -17  -7 16760.4 2129.51   2
  -4  21  -7 21243.0 1546.54   2
  17 -21  -7 17707.1 1961.87   2
   4  17  -7 19147.5 1966.71   1
 -21   4  -4 19104.6 870.511   1
  21 -17  -4 25740.9 2054.27   4
  17 -21  -4 20407.5 1808.80   4
   4  17  -4 21109.6 1648.17   1
   4  17  -4 21490.2 1572.53   2
  21 -17  -4 19172.1 1822.14   2
  -4  21  -4 20774.6 1607.06   1
  -4  21  -4 22514.3 1143.60   2
  17 -21  -4 22841.8 1724.98   2
  -4  21  -1 61818.6 1366.37   2
  21 -17  -1 61042.1 2448.33   4
  21 -17  -1 61465.5 2402.99   2
   4  17  -1 66187.1 2165.08   1
  17 -21  -1 60229.4 1915.43   2
   4  17  -1 65666.7 2820.90   3
 -21   4  -1 63528.5 2104.87   1
  -4  21  -1 60472.6 2206.90   1
  -4  21  -1 60284.0 1541.24   2
  17 -21  -1 58507.6 2276.29   4
   4  17   2 13670.3 860.984   1
  -4  21   2 18035.9 890.352   4
  21 -17   2 16221.1 1692.92   3
  21 -17   2 16519.5 1039.77   2
  -4  21   2 15939.1 1119.04   1
   4  17   2 16369.2 1121.38   4
   4  17   2 16139.0 1587.79   3
  -4  21   2 16458.7 1328.95   2
  21 -17   5 32424.1 2636.00   3
   4  17   5 32771.7 1444.72   1
  -4  21   5 34573.7 1931.32   1
  17 -21   5 30638.7 1368.51   2
  -4  21   5 30412.3 2170.79   3
   4  17   5 38002.1 2677.64   3
  -4  21   8 8860.43 1268.15   1
  21 -17   8 6729.41 1571.54   3
  17 -21   8 6186.21 1459.36   3
  -4  21   8 12121.0 1690.91   3
   4  17   8 10709.2 1836.57   3
   5  16  -8 10653.5 1231.06   4
   5  16  -8 11769.0 1700.74   1
  16 -21  -8 11415.9 1839.03   4
  -5  21  -8 9127.23 1389.26   1
   5  16  -8 9524.13 1545.34   2
  21 -16  -8 10740.2 1971.78   2
   5  16  -8 11466.5 1326.09   3
  21 -16  -8 10971.2 1822.10   4
  -5  21  -8 8319.38 1163.13   2
  16 -21  -8 7913.11 1525.49   2
  21 -16  -5 33.8200 722.574   4
  16 -21  -5 517.642 748.371   4
   5  16  -5 1574.07 752.059   1
   5  16  -5 2255.22 742.195   2
   5  16  -5 1519.02 429.381   4
  21 -16  -5 1344.26 1024.13   2
   5  16  -5 3013.79 883.256   3
  -5  21  -5 1766.41 743.823   1
  -5  21  -5 1385.51 504.182   2
  16 -21  -5 3155.65 984.859   2
 -21   5  -5 1047.38 314.180   1
   5  16  -2 56629.6 2097.69   2
  21 -16  -2 58574.1 2560.18   4
  21 -16  -2 54956.0 2474.52   2
  -5  21  -2 55384.4 1198.71   2
   5  16  -2 53428.0 2128.83   1
 -21   5  -2 54098.4 1786.22   1
   5  16  -2 56975.7 2615.18   3
  16 -21  -2 54033.4 2040.99   2
  -5  21  -2 58096.0 2278.78   1
  16 -21  -2 55510.6 2398.88   4
   5  16   1 503.630 247.055   1
  21 -16   1 344.781 734.527   3
  21 -16   1-51.7141 410.312   2
  -5  21   1 578.928 435.823   1
   5  16   1 667.048 397.731   4
 -21   5   1 193.879 477.824   1
   5  16   1 953.192 739.579   3
  16 -21   1 592.200 393.970   4
  -5  21   1 693.357 464.268   2
  21 -16   4 7544.32 1506.09   3
   5  16   4 7917.25 656.650   1
  16 -21   4 4855.06 315.694   2
  -5  21   4 7133.91 1127.47   3
 -21   5   4 7251.78 803.496   3
  -5  21   4 8157.23 952.731   1
  21 -16   7 2694.70 1283.20   3
  -5  21   7 1736.60 737.816   1
  -5  21   7 557.811 798.890   3
   5  16   7 1370.95 1126.74   3
  21 -16  10 2586.37 1496.18   3
  -5  21  10 4181.96 1468.97   3
   5  16  10 6295.49 1805.59   3
   6  15  -9 8259.58 1755.42   1
  21 -15  -9 10327.1 2018.41   4
  -6  21  -9 8555.89 1460.75   1
  15 -21  -9 7610.09 1872.02   4
   6  15  -9 7518.19 1282.71   4
   6  15  -9 4758.14 1341.12   2
  21 -15  -9 9470.80 2032.96   2
  15 -21  -9 4238.86 1400.04   2
 -21   6  -6 37141.6 1276.45   1
   6  15  -6 34718.4 2401.24   1
  21 -15  -6 35599.0 2695.23   4
  15 -21  -6 38266.6 2678.98   4
   6  15  -6 37967.0 1796.43   4
  -6  21  -6 32721.1 2151.68   1
  21 -15  -6 35368.1 2709.35   2
   6  15  -6 41731.1 2166.25   3
  15 -21  -6 34607.6 2374.87   2
  -6  21  -6 35605.9 1587.39   2
   6  15  -6 34055.8 2304.46   2
   6  15  -3 28787.6 1658.30   2
  21 -15  -3 30675.0 2040.12   4
   6  15  -3 32280.5 1824.43   1
  15 -21  -3 26218.4 1835.50   4
  21 -15  -3 30496.8 2054.54   2
   6  15  -3 28432.3 992.794   4
   6  15  -3 31795.0 1916.25   3
  -6  21  -3 29781.0 1791.03   1
  15 -21  -3 28473.6 1644.42   2
 -21   6  -3 31841.1 1296.96   1
  21 -15   0 32058.6 2095.64   3
 -21   6   0 32877.1 1666.45   1
  21 -15   0 35053.0 1817.00   4
  15 -21   0 29684.5 1453.68   4
   6  15   0 30931.4 1155.30   4
  -6  21   0 31830.6 1165.86   2
   6  15   0 32515.8 2017.46   3
   6  15   0 32279.9 1310.32   1
  21 -15   0 33381.4 1646.33   2
  -6  21   0 33728.5 1608.84   1
  21 -15   3 15392.3 1739.71   3
  -6  21   3 18484.0 1499.91   2
  -6  21   3 19450.7 1355.49   1
  -6  21   3 16982.0 1106.89   4
   6  15   3 17854.3 1754.17   3
 -21   6   3 15743.3 1252.42   3
   6  15   3 17657.5 829.993   1
   6  15   3 17959.3 1414.08   4
  21 -15   6 10923.9 1726.52   3
  -6  21   6 9366.14 1298.82   3
   6  15   6 12012.1 1723.87   3
  -6  21   6 8930.64 1176.75   1
  21 -15   9 13012.6 2104.05   3
  -6  21   9 13008.9 1756.68   3
   6  15   9 12603.1 2027.49   3
   7  14 -10 10727.9 1989.46   1
  -7  21 -10 9470.26 1555.50   1
  21 -14 -10 5693.71 1693.08   4
  14 -21 -10 9520.60 1978.82   4
   7  14 -10 8458.40 1507.22   4
   7  14 -10 6444.59 1724.05   2
  21 -14 -10 7349.94 2105.48   2
  14 -21 -10 7587.36 1710.68   2
  21 -14  -7 16224.2 2001.80   4
  14 -21  -7 15362.2 1978.79   4
   7  14  -7 14529.8 1719.13   1
   7  14  -7 15382.0 1396.47   4
  -7  21  -7 14861.6 1589.40   1
   7  14  -7 19406.2 1937.89   2
  21 -14  -7 14611.3 1869.60   2
   7  14  -7 18024.1 1429.30   3
  14 -21  -7 14961.1 1698.48   2
  -7  21  -7 13293.7 1120.72   2
 -21   7  -7 16315.7 938.248   1
   7  14  -4 7546.49 1045.01   1
  21 -14  -4 7545.39 1221.39   4
   7  14  -4 10185.7 1231.95   2
   7  14  -4 9841.54 816.481   4
  21 -14  -4 9177.83 1349.09   2
 -21   7  -4 10864.1 766.941   1
  -7  21  -4 7408.91 1044.87   1
  14 -21  -4 8173.60 1068.63   2
  14 -21  -4 11093.6 1393.31   4
   7  14  -4 12238.3 1266.92   3
  -7  21  -4 5426.51 336.551   2
  21 -14  -1 37106.1 2152.67   3
  14 -21  -1 35940.2 1726.19   4
  21 -14  -1 37868.5 1918.02   2
  21 -14  -1 35100.5 1926.06   4
 -21   7  -1 37578.6 1657.46   1
   7  14  -1 36461.4 1570.34   1
   7  14  -1 36819.8 1117.12   4
   7  14  -1 40829.9 2203.72   3
  14 -21  -1 34500.8 1189.30   2
  -7  21  -1 37485.8 1757.56   1
   7  14  -1 38372.0 1039.50   4
  21 -14   2 25776.7 2077.69   3
  14 -21   2 26170.7 1199.33   4
   7  14   2 25027.5 907.794   1
  -7  21   2 28162.7 1534.87   1
   7  14   2 24900.2 1450.28   4
  -7  21   2 26986.4 1530.20   2
  -7  21   2 27700.7 1108.91   4
 -21   7   2 26918.6 1777.26   1
  21 -14   5 27941.9 2443.01   3
  -7  21   5 28088.4 2036.15   3
 -21   7   5 17560.5 941.270   3
  -7  21   5 26025.0 1767.00   1
   7  14   5 32547.1 2447.45   3
  21 -14   8 15864.4 2117.81   3
  -7  21   8 20048.1 1903.07   3
  -7  21   8 18603.0 1822.59   1
   8  13  -8 20878.1 2309.34   1
  21 -13  -8 20913.5 2523.48   4
  13 -21  -8 21666.8 2384.24   4
   8  13  -8 21350.2 1802.12   4
  -8  21  -8 19103.4 1810.89   1
   8  13  -8 21453.7 2150.25   2
  21 -13  -8 20086.2 2476.37   2
  13 -21  -8 19695.7 2059.13   2
 -21   8  -8 20069.0 1171.61   1
  -8  21  -8 18569.2 1392.61   2
   8  13  -5 10382.7 1303.33   2
  -8  21  -5 11834.2 1300.09   1
  21 -13  -5 10884.7 1531.89   4
  13 -21  -5 9596.04 1371.06   4
   8  13  -5 11407.2 1071.69   4
   8  13  -5 11225.2 1471.30   1
  21 -13  -5 12147.3 1614.61   2
   8  13  -5 10851.1 1154.28   3
  13 -21  -5 10574.8 1235.07   2
 -21   8  -5 10882.0 801.848   1
  -8  21  -5 6993.91 530.589   2
  21 -13  -2 99739.6 3237.43   3
   8  13  -2 101533. 2962.70   2
  21 -13  -2 114052. 3503.13   4
   8  13  -2 100216. 2020.10   4
   8  13  -2 103374. 2945.40   1
  13 -21  -2 106316. 3176.46   4
  21 -13  -2 105619. 3398.44   2
   8  13  -2 102496. 3248.90   3
  -8  21  -2 107051. 3031.52   1
  13 -21  -2 103463. 2467.10   2
 -21   8  -2 95015.2 2418.55   1
  21 -13   1 20873.4 1809.18   3
  21 -13   1 21687.3 1299.56   2
  -8  21   1 22073.6 1372.43   1
  13 -21   1 20940.0 1067.18   4
  -8  21   1 20726.1 1057.23   2
   8  13   1 21404.6 1220.97   4
   8  13   1 20784.7 1685.78   3
   8  13   1 20736.0 862.785   1
 -21   8   1 20577.7 1502.00   1
  13 -21   4 20721.7 1362.37   4
  -8  21   4 19443.2 1600.42   3
   8  13   4 21197.9 1934.04   3
 -21   8   4 18233.4 1215.31   3
  -8  21   4 22432.1 1573.23   1
  21 -13   4 19886.4 2021.17   3
  -8  21   7 8129.67 1236.24   1
  -8  21   7 6830.24 1207.19   3
   8  13   7 11913.9 1734.07   3
  21 -13   7 9621.13 1760.30   3
  21 -13  10 5423.76 1635.80   3
  -8  21  10 7598.71 1507.15   3
   8  13  10 10303.0 2069.38   3
   9  12  -9 15628.0 2134.48   2
  21 -12  -9 15406.3 2276.13   4
  12 -21  -9 16250.1 2177.88   4
   9  12  -9 19173.5 1932.84   4
  -9  21  -9 17687.4 1917.61   1
  21 -12  -9 16316.6 2375.93   2
 -21   9  -9 16642.1 1184.66   1
  12 -21  -9 15828.0 2024.58   2
 -21   9  -6 13079.4 915.973   1
  21 -12  -6 15419.5 1877.52   4
  12 -21  -6 16309.5 1812.93   4
   9  12  -6 13644.5 1312.60   4
   9  12  -6 14443.4 1656.33   2
  21 -12  -6 10533.8 1652.41   2
  -9  21  -6 11476.6 1307.71   1
   9  12  -6 13084.0 1136.17   3
  12 -21  -6 12412.8 1445.28   2
  -9  21  -6 12568.6 810.336   2
   9  12  -3 33711.0 1902.04   1
  21 -12  -3 29564.5 2064.46   4
   9  12  -3 31628.0 1858.49   2
   9  12  -3 32292.3 1390.38   4
  12 -21  -3 32294.7 1913.90   4
  21 -12  -3 33853.5 2142.76   2
 -21   9  -3 31061.4 1360.21   1
   9  12  -3 35791.3 1908.52   3
  -9  21  -3 32096.4 1784.57   1
  12 -21  -3 34881.8 1700.38   2
  21 -12   0 5103.57 1067.86   3
  21 -12   0 5471.20 762.647   2
  -9  21   0 3647.13 618.789   1
 -21   9   0 4990.08 769.958   1
   9  12   0 5356.84 570.411   1
   9  12   0 5407.17 594.586   4
  21 -12   0 4021.10 756.542   4
   9  12   0 5648.14 1008.83   3
  12 -21   0 5143.13 641.901   4
  -9  21   3 35828.5 1539.08   4
  -9  21   3 38998.9 1980.62   2
  12 -21   3 42319.8 1615.99   4
  -9  21   3 44014.3 2064.16   1
   9  12   3 43596.6 2617.08   3
 -21   9   3 39580.6 2282.50   1
 -21   9   3 42700.0 1990.65   3
   9  12   3 36421.8 727.353   1
  21 -12   3 42611.5 2645.63   3
  21 -12   6 7537.18 1495.34   3
  -9  21   6 8163.45 1200.37   3
  -9  21   6 6656.97 1120.55   1
   9  12   6 6056.17 1285.36   3
   9  12   9 24911.4 2757.05   3
  -9  21   9 30583.9 2440.59   3
  21 -12   9 23980.4 2496.22   3
  21 -11 -10 3810.76 1594.50   4
  11 -21 -10 4615.22 1564.42   4
  10  11 -10 3380.16 1324.68   4
 -10  21 -10 4165.56 1205.38   1
  10  11 -10 5810.05 1857.45   2
  21 -11 -10 4395.06 1651.91   2
  11 -21 -10 6428.73 1607.60   2
  10  11  -7 23129.3 1845.30   4
  11 -21  -7 17886.8 1980.93   4
  10  11  -7 19037.9 2059.37   2
  21 -11  -7 19657.7 2263.46   2
  21 -11  -7 22317.8 2372.94   4
 -10  21  -7 21211.5 1838.68   1
  10  11  -7 25232.7 1391.20   3
  11 -21  -7 19175.1 1824.90   2
 -21  10  -7 22866.3 1289.88   1
 -10  21  -7 17913.1 1107.38   2
  21 -11  -4 22583.5 1932.75   4
 -21  10  -4 26410.8 1256.45   1
  10  11  -4 22776.9 1775.58   2
  10  11  -4 22618.5 1355.12   4
  11 -21  -4 24359.1 1812.84   4
  21 -11  -4 23408.2 2056.78   2
 -10  21  -4 24774.1 1670.33   1
  10  11  -4 26493.9 1597.99   3
  11 -21  -4 24811.9 1632.87   2
  21 -11  -1 38298.7 2154.82   3
  11 -21  -1 30766.1 906.977   2
  21 -11  -1 40413.7 1969.69   4
  10  11  -1 37318.4 1258.72   4
  10  11  -1 39610.8 1602.62   1
  21 -11  -1 38874.8 1941.16   2
  11 -21  -1 35821.9 1635.24   4
  10  11  -1 39210.9 2144.36   3
 -21  10  -1 37083.1 1657.45   1
 -10  21  -1 38655.8 1762.90   1
  11 -21   2 42834.4 1259.01   4
  11 -21   2 37814.1 1285.23   4
  10  11   2 38476.5 771.482   1
 -10  21   2 37828.0 1579.99   2
 -10  21   2 40876.0 1907.60   1
  10  11   2 37929.7 1857.88   4
  10  11   2 41095.1 2425.84   3
 -10  21   2 35981.3 1342.10   4
 -21  10   2 43728.5 2250.79   1
  21 -11   2 36821.9 2381.03   3
  11 -21   5 12272.7 1168.89   4
 -10  21   5 11863.5 1251.00   3
  10  11   5 14359.8 1690.86   3
 -21  10   5 10739.7 899.405   3
 -10  21   5 13977.8 1420.25   1
 -21  10   5 14501.6 1635.29   1
  21 -11   5 10304.2 1626.36   3
 -10  21   8 27226.4 2269.92   1
 -10  21   8 31840.7 2255.98   3
  10  11   8 32882.1 2833.70   3
  21 -11   8 27857.5 2634.47   3
  21 -10  -8 30629.2 2904.59   4
  11  10  -8 29717.6 2241.18   4
  10 -21  -8 32947.1 2714.50   4
  11  10  -8 31283.4 2695.30   2
 -11  21  -8 32173.4 2260.59   1
  21 -10  -8 29989.3 2838.75   2
 -10 -11  -8 37261.5 2312.23   4
 -21  11  -8 35524.6 1723.42   1
  10 -21  -8 28158.9 2348.73   2
 -11  21  -8 29217.6 1531.29   2
  21 -10  -5 11983.4 1567.02   4
 -21  11  -5 14526.3 998.057   1
  11  10  -5 13288.5 1616.04   2
  11  10  -5 13038.4 1235.16   4
  10 -21  -5 15579.0 1588.65   4
  21 -10  -5 15351.7 1824.19   2
 -11  21  -5 14450.9 1392.18   1
  11  10  -5 14407.6 1183.09   3
  10 -21  -5 12960.3 1328.55   2
  21 -10  -2 41587.6 2111.20   3
  21 -10  -2 42784.4 2208.53   2
  11  10  -2 35173.3 1856.64   2
  21 -10  -2 39650.0 2091.15   4
  10 -21  -2 38686.1 1832.14   4
 -21  11  -2 38767.3 1631.15   1
  11  10  -2 41579.7 2114.41   3
  11  10  -2 38710.1 1905.35   1
 -11  21  -2 40267.6 1891.60   1
  11  10  -2 39672.0 1473.71   4
  10 -21  -2 39371.7 1394.02   2
 -11  21   1 35761.9 1078.30   2
 -21  11   1 36622.9 1913.38   1
  10 -21   1 35657.6 1200.98   4
  11  10   1 36452.8 1644.84   4
  11  10   1 33942.1 935.075   1
 -11  21   1 35886.4 1746.32   1
  11  10   1 40181.4 2319.94   3
  21 -10   1 38149.8 2323.31   3
  10 -21   4 25876.7 1351.54   4
 -21  11   4 23901.7 1908.88   1
  11  10   4 29593.6 2298.59   3
 -21  11   4 22999.2 1480.49   3
  21 -10   4 24132.0 2111.49   3
 -11  21   4 24879.4 1735.25   1
 -11  21   7 19570.9 1910.89   1
 -11  21   7 17060.0 1632.86   3
  11  10   7 18046.2 2250.00   3
  21 -10   7 16922.6 2087.23   3
  21 -10  10 5839.38 1718.48   3
 -11  21  10 5624.49 1387.56   3
  11  10  10 6779.56 1760.17   3
  21  -9  -9 27222.4 2885.27   4
  12   9  -9 29104.4 2442.13   4
   9 -21  -9 25844.8 2565.21   4
 -12  21  -9 27421.2 2183.28   1
  12   9  -9 24809.3 2643.77   2
  21  -9  -9 25766.6 2768.49   2
  -9 -12  -9 29971.8 2286.01   4
 -21  12  -9 30350.7 1749.09   1
   9 -21  -9 25501.8 2363.24   2
   9 -21  -6 5873.96 1033.12   2
  21  -9  -6 6102.49 1280.56   4
   9 -21  -6 4045.58 1072.91   4
  12   9  -6 7054.91 1334.92   2
  21  -9  -6 6677.61 1475.35   2
 -12  21  -6 6687.31 1062.54   1
  12   9  -6 6856.39 812.464   3
  12   9  -6 5627.39 992.161   4
 -21  12  -6 4970.09 678.447   1
  21  -9  -3 39891.3 1900.05   3
  12   9  -3 38417.9 2128.22   2
  21  -9  -3 42101.4 2338.40   4
  12   9  -3 37805.2 1674.66   4
  21  -9  -3 38221.3 2373.68   2
 -21  12  -3 38094.1 1595.14   1
   9 -21  -3 40872.8 2038.61   4
  12   9  -3 44113.1 2104.74   3
 -12  21  -3 38289.5 1938.00   1
   9 -21  -3 43467.7 1711.76   2
  21  -9   0 5250.92 1023.31   3
 -12  21   0 5089.34 749.229   1
  21  -9   0 3714.20 649.162   2
   9 -21   0 4075.44 524.718   4
  12   9   0 4455.45 518.197   1
  12   9   0 4252.82 898.295   3
 -21  12   0 5210.44 760.982   1
 -12  21   3 28350.9 1587.98   2
  21  -9   3 28091.0 1447.82   1
   9 -21   3 33829.2 1247.48   4
   9 -21   3 33218.1 951.728   4
 -12  21   3 29377.0 1765.14   1
  12   9   3 30087.3 2228.11   3
 -21  12   3 27660.1 1729.92   3
  21  -9   3 29972.4 2253.31   3
 -21  12   3 27796.7 1981.88   1
 -12  21   6 13807.4 1361.90   3
 -12  21   6 11971.2 1546.98   1
  12   9   6 14387.6 1794.80   3
  21  -9   6 11306.5 1700.42   3
 -12  21   9 12638.4 1633.33   3
  12   9   9 14778.4 2156.65   3
  21  -9   9 12252.3 2053.76   3
   8 -21 -10 6622.50 1520.48   2
  13   8 -10 7819.86 1566.86   4
   8 -21 -10 11835.9 2066.69   4
  21  -8 -10 9761.80 2024.80   4
 -13  21 -10 11036.5 1620.56   1
  -8 -13 -10 9440.24 1507.16   4
  13   8 -10 9848.82 2042.36   2
  21  -8 -10 6764.76 1915.89   2
 -21  13 -10 11211.1 1201.81   1
  21  -8  -7 7215.22 1614.32   4
   8 -21  -7 11297.5 1542.76   4
  13   8  -7 8479.94 1519.60   2
  21  -8  -7 7534.67 1572.42   2
 -13  21  -7 9856.75 1303.86   1
  -8 -13  -7 11232.1 1295.05   4
  13   8  -7 10788.4 1448.47   4
 -21  13  -7 9299.54 946.518   1
   8 -21  -7 10633.3 1456.38   2
 -21  13  -4 21632.4 1233.87   1
  21  -8  -4 14874.2 1090.76   3
  13   8  -4 18268.5 1729.82   2
  13   8  -4 19182.1 1381.02   4
   8 -21  -4 18898.9 1580.37   4
  21  -8  -4 20530.9 1960.99   2
  21  -8  -4 16959.2 1760.96   4
 -13  21  -4 18972.4 1455.68   1
  13   8  -4 22601.6 1471.55   3
   8 -21  -4 20438.4 1413.59   2
 -13  21  -1 21107.2 1368.10   1
  13   8  -1 20927.5 1111.33   4
  21  -8  -1 20243.6 1462.09   4
  21  -8  -1 22535.1 1640.13   2
   8 -21  -1 21409.9 1145.48   4
 -21  13  -1 22257.2 1332.14   1
  13   8  -1 22535.3 1667.83   3
  21  -8  -1 22035.7 1662.10   3
   8 -21   2 94004.2 1460.61   4
 -13  21   2 100845. 2310.24   2
 -21  13   2 102723. 3356.41   1
   8 -21   2 95029.5 1604.54   4
 -13  21   2 98492.9 3026.43   1
  13   8   2 103898. 3794.17   3
  21  -8   2 102243. 3810.52   3
 -13  21   5 12814.2 1426.20   1
   8 -21   5 11541.7 963.769   4
  13   8   5 10621.6 1543.31   3
 -21  13   5 9804.89 1406.20   1
 -21  13   5 8980.64 994.209   3
  21  -8   5 12006.3 1701.25   3
 -13  21   8 14773.8 1567.79   3
  13   8   8 16547.5 2116.70   3
  21  -8   8 19484.7 2294.43   3
 -13  21   8 16779.7 1949.92   1
  21  -7  -8 16498.3 2097.39   4
  14   7  -8 16002.7 1844.13   4
  14   7  -8 16713.4 2153.55   2
   7 -21  -8 17041.1 2020.79   4
  21  -7  -8 21630.0 2594.62   2
 -14  21  -8 19821.5 1783.98   1
  -7 -14  -8 18201.1 1726.88   4
 -21  14  -8 18300.3 1389.03   1
   7 -21  -8 17802.4 1896.27   2
  21  -7  -5 37484.9 2717.83   2
  21  -7  -5 37253.5 2583.36   4
  14   7  -5 34331.6 2065.10   4
   7 -21  -5 35058.6 2143.22   4
 -14  21  -5 35140.2 2031.68   1
  14   7  -5 35620.2 2508.99   2
  14   7  -5 38158.7 1742.43   3
 -21  14  -5 31824.5 1554.83   1
   7 -21  -5 36189.1 1937.97   2
  21  -7  -2 27881.3 1937.61   2
  21  -7  -2 22865.0 1662.83   4
  14   7  -2 25701.1 1364.00   4
 -21  14  -2 28214.1 1459.37   1
   7 -21  -2 26019.3 1432.49   4
  14   7  -2 26101.8 1693.30   2
  14   7  -2 29408.1 1783.66   3
 -14  21  -2 26803.3 1544.37   1
  21  -7  -2 24912.6 1679.84   3
 -21  14   1 38921.3 1944.07   1
  14   7   1 38974.4 969.359   1
 -14  21   1 43129.8 1961.44   1
  14   7   1 37230.9 905.147   1
  14   7   1 46161.2 2494.70   3
  21  -7   1 36522.8 1413.45   1
  21  -7   1 42097.8 2432.00   3
 -14  21   4 9760.25 1234.72   1
 -21  14   4 8261.27 1292.91   1
  21  -7   4 8642.67 834.091   1
   7 -21   4 9642.46 667.447   4
  14   7   4 10807.2 1595.18   3
 -21  14   4 8029.64 1103.83   3
  21  -7   4 9874.27 1487.71   3
 -14  21   7 15409.0 1793.09   1
 -21  14   7 8729.11 745.350   3
 -14  21   7 10744.3 1356.12   3
  14   7   7 17952.9 2108.35   3
  21  -7   7 14251.6 1976.72   3
  21  -7  10 6098.43 1740.65   3
  14   7  10 9145.83 1964.30   3
  21  -6  -9 16403.2 2332.87   4
  15   6  -9 10041.0 1662.50   4
   6 -21  -9 10390.8 1743.78   4
  15   6  -9 12293.3 2144.79   2
  21  -6  -9 17743.8 2461.00   2
  -6 -15  -9 13422.3 1615.72   4
 -15  21  -9 12489.4 1547.59   1
 -21  15  -9 11105.6 1243.57   1
   6 -21  -9 10038.4 1577.88   2
  21  -6  -6 6029.38 1441.15   4
  15   6  -6 7851.77 1207.28   4
   6 -21  -6 8095.39 1282.35   4
  15   6  -6 7055.50 1504.20   2
  21  -6  -6 5446.02 1402.96   2
  -6 -15  -6 7632.39 1065.22   4
 -15  21  -6 8054.02 1068.74   1
  15   6  -6 7129.28 687.819   3
 -21  15  -6 8040.12 938.968   1
   6 -21  -6 6496.69 1048.72   2
  21  -6  -3 20088.7 1405.01   3
   6 -21  -3 20594.3 1182.30   2
 -21  15  -3 19849.7 1288.49   1
  15   6  -3 18946.5 1662.68   2
  15   6  -3 16844.0 1286.93   4
  21  -6  -3 18430.6 1605.00   4
   6 -21  -3 16411.0 1242.04   4
  21  -6  -3 17844.7 1721.81   2
  15   6  -3 20148.2 1454.37   3
 -15  21  -3 20537.1 1433.66   1
  21  -6   0 26798.8 1258.88   1
   6 -21   0 24679.6 726.585   4
  15   6   0 28244.3 1204.58   1
 -21  15   0 29430.8 1668.21   1
  15   6   0 31533.2 1995.59   3
 -15  21   0 31172.0 1661.63   1
  21  -6   0 27161.0 1939.33   3
 -15  21   3 29290.8 1498.91   2
  21  -6   3 26525.5 1204.69   1
 -21  15   3 29519.7 1966.47   1
  15   6   3 26816.2 2126.91   3
 -15  21   3 26659.2 1777.07   1
  21  -6   3 28940.6 2264.88   3
  15   6   6 32088.3 2608.48   3
 -15  21   6 31642.2 2338.13   1
  21  -6   6 32451.0 2663.83   3
 -21  15   6 35429.9 2602.06   1
  21  -6   9 3397.76 1441.36   3
 -15  21   9 5140.98 1162.10   3
  15   6   9 3749.50 1480.48   3
   5 -21 -10 1819.20 1224.01   2
  -5 -16 -10 1444.21 924.847   2
  21  -5 -10 3235.62 1517.00   4
  16   5 -10 3357.96 1346.16   4
   5 -21 -10 3464.93 1384.53   4
  -5 -16 -10 4220.66 1201.08   4
  16   5 -10 3567.15 1612.44   2
  21  -5 -10 3283.16 1807.13   2
 -16  21 -10 4360.59 1115.40   1
 -21  16 -10 1882.40 805.582   1
   5 -21  -7-245.702 710.174   2
  21  -5  -7 1.67342 939.655   4
  16   5  -7 319.340 701.894   4
  16   5  -7 449.233 962.370   2
   5 -21  -7 353.655 795.031   4
  21  -5  -7 562.727 1095.11   2
  -5 -16  -7-737.035 718.087   4
 -16  21  -7 91.5708 600.370   1
 -21  16  -7 1255.30 588.045   1
  21  -5  -4 10267.9 1000.20   3
 -21  16  -4 10887.2 985.369   1
   5 -21  -4 11392.7 1085.35   2
  21  -5  -4 8937.61 1277.98   4
  16   5  -4 11019.8 1194.56   4
  16   5  -4 10070.7 1407.71   2
  -5 -16  -4 11236.2 768.388   1
  21  -5  -4 12281.8 1586.78   2
   5 -21  -4 11116.0 1172.84   4
  16   5  -4 10321.5 1056.74   3
 -16  21  -4 10602.5 1093.48   1
  21  -5  -1 764.308 767.573   3
  16   5  -1 162.470 396.799   4
  21  -5  -1 436.499 454.420   4
 -16  21  -1 358.471 510.497   1
   5 -21  -1 303.607 250.656   4
  21  -5  -1 367.584 555.711   2
 -21  16  -1 49.0125 394.118   1
  16   5  -1 448.509 657.616   3
  16   5  -1 347.252 390.859   1
 -21  16   2 43443.9 2241.53   1
 -16  21   2 44741.3 1486.75   2
  21  -5   2 37615.5 1328.05   1
 -16  21   2 44610.9 2143.12   1
  16   5   2 50116.6 2786.43   3
  21  -5   2 41696.2 2562.71   3
 -16  21   5 2077.64 817.706   1
 -21  16   5 2513.83 931.146   1
  21  -5   5 1647.83 1091.49   3
   5 -21   5 809.113 325.597   4
 -16  21   8 7815.59 1551.79   1
 -16  21   8 8847.20 1271.54   3
  16   5   8 11198.7 1944.10   3
  21  -5   8 7456.41 1698.37   3
   4 -21  -8 11158.8 1451.16   2
  21  -4  -8 11417.9 1886.04   4
  17   4  -8 11830.0 1704.13   4
  17   4  -8 11196.2 2004.86   2
  21  -4  -8 13385.3 2159.74   2
   4 -21  -8 12541.8 1688.68   4
  -4 -17  -8 10165.3 1419.34   4
 -17  21  -8 12527.9 1419.12   1
 -21  17  -8 10349.0 1144.14   1
   4 -21  -5 37681.0 1968.65   2
  21  -4  -5 36869.8 2690.47   2
  21  -4  -5 35533.2 2521.65   4
  17   4  -5 35132.0 2215.87   4
  17   4  -5 40608.5 2784.48   2
  -4 -17  -5 29915.6 1244.84   1
   4 -21  -5 35519.0 2065.62   4
  -4 -17  -5 35790.2 1851.78   4
 -17  21  -5 34093.9 1954.70   1
  17   4  -5 35916.7 1582.89   3
 -21  17  -5 34945.3 1767.13   1
 -17  21  -2 17535.4 1302.56   1
  -4 -17  -2 14836.2 1072.12   1
  17   4  -2 15918.2 1424.50   2
  21  -4  -2 14602.3 1333.47   4
 -21  17  -2 16443.5 1197.38   1
   4 -21  -2 15193.0 957.502   4
  21  -4  -2 14615.5 1450.32   2
  17   4  -2 20229.9 1555.86   3
  17   4  -2 16037.4 1243.74   4
  21  -4  -2 13239.2 1319.84   3
  17   4   1 46585.7 977.561   1
 -17  21   1 56092.7 2343.74   1
  17   4   1 61291.8 2942.58   3
 -21  17   1 44544.2 2168.89   1
  21  -4   1 58853.4 2922.38   3
  21  -4   1 46478.0 1450.00   1
 -17  21   4 21008.6 1721.92   1
 -21  17   4 22327.2 1875.82   1
  17   4   4 22553.1 2099.02   3
  21  -4   4 21237.4 2081.99   3
 -17  21   7 17487.6 1962.59   1
 -21  17   7 19706.5 2192.23   1
 -17  21   7 15914.9 1450.97   3
  17   4   7 19239.2 2227.05   3
  21  -4   7 18028.2 2184.05   3
  17   4  10 11934.7 2293.33   3
  21  -4  10 9432.27 2189.12   3
   3 -21  -9 8257.22 1392.97   2
  -3 -18  -9 7964.07 1383.88   2
  21  -3  -9 4953.88 1502.93   4
  18   3  -9 6036.64 1510.06   4
  -3 -18  -9 9298.55 1453.66   4
   3 -21  -9 7037.46 1483.21   4
  18   3  -9 8304.79 1895.44   2
  21  -3  -9 5516.37 1858.46   2
 -18  21  -9 9487.73 1326.52   1
 -21  18  -9 7294.41 1080.60   1
   3 -21  -6 18608.6 1557.99   2
  21  -3  -6 18384.9 2019.64   4
  18   3  -6 15464.5 1997.14   2
  21  -3  -6 21487.4 2320.44   2
  18   3  -6 15636.9 1791.41   4
   3 -21  -6 15650.8 1564.82   4
  -3 -18  -6 18239.9 1513.74   4
 -18  21  -6 19560.4 1580.93   1
 -21  18  -6 16273.5 1339.31   1
  21  -3  -3 2195.99 733.505   3
 -21  18  -3 4320.82 736.511   1
  21  -3  -3 3473.42 906.593   4
  18   3  -3 1991.38 934.442   2
  21  -3  -3 4114.15 1071.93   2
  -3 -18  -3 3185.22 580.313   1
   3 -21  -3 3309.27 644.025   4
  18   3  -3 4685.36 886.883   4
  18   3  -3 4204.32 893.487   3
 -18  21  -3 4685.32 824.372   1
  21  -3   0 18424.4 1002.56   1
 -18  21   0 16426.3 1315.32   1
 -21  18   0 19830.0 1390.38   1
  18   3   0 19370.1 935.095   1
  18   3   0 22016.1 1859.39   3
  21  -3   0 20806.5 1757.95   3
 -21  18   3 12287.5 1352.83   1
  18   3   3 10471.5 1481.19   3
  21  -3   3 11261.5 1601.30   3
  21  -3   3 9391.09 592.638   1
 -18  21   3 9177.36 1191.91   1
 -21  18   6 39710.4 2759.71   1
  18   3   6 45952.3 3146.62   3
  21  -3   6 44077.8 3131.89   3
 -18  21   6 41628.9 2801.07   1
  18   3   9 1775.83 1585.76   3
  21  -3   9 394.994 1253.21   3
   2 -21 -10 2438.24 1117.91   2
  -2 -19 -10 3589.82 1178.99   2
  19   2 -10 3462.69 1455.37   4
   2 -21 -10 1644.12 1127.96   4
  -2 -19 -10 3853.37 1273.06   4
  19   2 -10 5207.64 2019.76   2
  21  -2 -10 3440.86 1664.79   2
  21  -2 -10 4869.76 1607.62   4
 -19  21 -10 1376.19 815.551   1
 -21  19 -10 4056.63 1000.65   1
   2 -21  -7 6981.67 1200.17   2
  21  -2  -7 5754.54 1361.02   4
  19   2  -7 8780.64 1576.60   4
  19   2  -7 7150.81 1655.59   2
   2 -21  -7 7058.45 1220.00   4
  21  -2  -7 4521.99 1527.77   2
  -2 -19  -7 5850.13 1086.00   4
 -19  21  -7 6099.08 1011.25   1
 -21  19  -7 7009.65 1032.26   1
  21  -2  -4 2669.01 720.467   3
 -19  21  -4 2356.38 717.945   1
 -21  19  -4 1450.39 549.438   1
  19   2  -4 2910.32 975.833   2
   2 -21  -4 1383.34 567.357   4
  -2 -19  -4 2092.85 544.982   4
  21  -2  -4 2032.36 849.651   4
  21  -2  -4 1955.70 966.287   2
  19   2  -4 1923.05 798.298   4
  19   2  -4 2211.37 683.352   3
  21  -2  -1 8464.76 1021.52   4
  21  -2  -1 10571.2 1194.70   2
  19   2  -1 9023.98 1090.15   2
 -19  21  -1 11049.5 1127.19   1
 -21  19  -1 10083.3 1020.20   1
  19   2  -1 9806.24 954.815   4
  19   2  -1 11629.5 1350.97   3
  21  -2  -1 9737.01 1311.67   3
  19   2  -1 8773.32 840.572   1
 -19  21   2 2665.63 763.465   1
 -21  19   2 3017.00 752.850   1
  21  -2   2 1826.09 314.620   1
  19   2   2 3580.35 974.733   3
  21  -2   2 2226.63 1034.09   3
 -19  21   5 10531.6 1425.17   1
  19   2   5 12544.8 1751.48   3
 -21  19   5 7406.33 1279.86   1
  21  -2   5 8118.59 1488.78   3
 -19  21   8 8530.61 1640.48   1
 -21  19   8 8785.16 1692.78   1
 -19  21   8 9825.07 1202.63   3
  19   2   8 9664.82 1923.98   3
  21  -2   8 9591.63 2017.41   3
   1 -21  -8 15064.5 1630.57   2
  -1 -20  -8 16768.7 1710.44   2
  21  -1  -8 16352.9 2095.30   4
  20   1  -8 15673.4 2042.46   4
  20   1  -8 17108.5 2364.31   2
  21  -1  -8 20207.3 2516.83   2
   1 -21  -8 18009.4 1933.07   4
  -1 -20  -8 15534.5 1747.83   4
 -20  21  -8 21671.1 1789.55   1
 -21  20  -8 19421.2 1637.86   1
  21  -1  -5 34183.7 2458.58   4
  20   1  -5 33071.9 2319.95   4
  21  -1  -5 33439.2 2635.07   2
  20   1  -5 32879.9 2677.89   2
  -1 -20  -5 38522.9 1990.70   4
   1 -21  -5 34065.1 1936.58   4
 -20  21  -5 35524.1 1963.39   1
 -21  20  -5 32887.8 1831.75   1
  20   1  -5 39458.1 1609.87   3
  21  -1  -5 32586.2 1410.40   3
 -20  21  -2 11058.1 1102.03   1
  21  -1  -2 8560.82 1234.47   2
 -21  20  -2 8695.98 1042.09   1
  21  -1  -2 7661.84 1040.09   4
  20   1  -2 7902.97 1008.98   4
  20   1  -2 9692.62 1272.08   2
  20   1  -2 11040.6 1333.16   3
  21  -1  -2 9157.19 1216.84   3
  20   1   1 33592.4 978.544   1
 -20  21   1 40309.7 2063.75   1
 -21  20   1 37306.6 2034.21   1
  20   1   1 38695.0 2452.65   3
  21  -1   1 38697.7 2474.59   3
  21  -1   1 33304.0 1087.76   1
 -20  21   4 11094.5 1409.79   1
 -21  20   4 11334.9 1436.86   1
  20   1   4 8751.03 1529.08   3
  21  -1   4 12892.2 1760.27   3
 -20  21   7 20941.1 2232.01   1
 -20  21   7 20287.6 1558.92   3
 -21  20   7 28561.6 2525.81   1
  20   1   7 27368.5 2741.60   3
  21  -1   7 25857.2 2638.39   3
   0 -21  -9 65.6305 836.511   2
  21   0  -9 535.764 993.754   4
  21   0  -9 80.7245 1522.24   2
   0 -21  -9-786.333 974.484   4
 -21  21  -9-938.291 838.509   1
  21   0  -6 26708.5 2332.44   4
  21   0  -6 29675.6 2746.83   2
   0 -21  -6 27492.0 1901.52   4
 -21  21  -6 30105.2 1867.65   1
  21   0  -3-1199.15 729.054   4
  21   0  -3 479.802 842.947   2
 -21  21  -3 782.109 543.919   1
   0 -21  -3 761.704 400.509   4
  21   0  -3-273.981 693.398   3
 -21  21   0 65379.6 2555.60   1
  21   0   0 67556.4 3120.36   3
 -21  21   3 369.660 567.309   1
  21   0   3-188.789 1016.71   3
 -21  21   6 3911.28 1140.42   1
  21   0   6 4854.48 1322.83   3
  21   0   9-103.910 1565.05   3
  22 -22  -7 334.330 1032.14   4
   0  22  -7 486.542 833.742   1
   0  22  -7 1016.30 833.655   2
  22 -22  -7 1143.17 1206.53   2
  22 -22  -4 25462.0 2192.06   4
   0  22  -4 24545.7 1543.65   2
   0  22  -4 27555.2 1905.51   1
  22 -22  -4 23579.7 2008.60   2
   0  22  -1 182.418 447.599   2
  22 -22  -1-382.555 596.829   4
   0  22  -1-234.912 356.902   2
  22 -22  -1-578.882 537.330   2
   0  22  -1 393.221 468.406   1
  22 -22   2 35909.7 1387.93   2
   0  22   2 29940.6 1489.24   1
   0  22   2 30834.0 2313.15   3
  22 -22   2 32913.2 1828.56   4
  22 -22   2 29361.7 1241.92   2
  22 -22   5 448.785 1063.41   3
   0  22   5-175.752 454.151   1
   0  22   5-45.2091 842.167   3
  22 -22   8 27443.5 2820.08   3
   0  22   8 36832.6 2956.21   3
  21 -22  -8 3095.58 1257.44   4
   1  21  -8 4250.22 1161.41   1
  -1  22  -8 3169.08 1102.29   1
   1  21  -8 2009.89 1000.54   2
  22 -21  -8 1707.96 1270.16   4
  22 -21  -8 1629.76 1361.30   2
  21 -22  -8 2299.89 1340.31   2
  21 -22  -5 18368.4 2046.77   4
   1  21  -5 18498.4 1668.43   1
   1  21  -5 19914.8 1564.14   2
  -1  22  -5 16964.7 1586.58   1
  -1  22  -5 19366.7 1439.65   2
  22 -21  -5 20925.1 2040.89   2
  21 -22  -5 17772.7 1852.23   2
  22 -21  -5 17155.1 1942.23   4
  -1  22  -2 7970.19 741.537   2
  22 -21  -2 9067.30 1212.23   4
  21 -22  -2 7409.45 1076.98   4
  22 -21  -2 9005.44 1146.89   2
  21 -22  -2 10161.2 1198.00   2
   1  21  -2 9827.56 1048.84   1
  -1  22  -2 8499.58 790.761   2
  -1  22  -2 10558.9 1083.46   1
   1  21  -2 8552.14 833.327   2
   1  21   1 31180.0 1469.34   1
  -1  22   1 34755.7 1596.78   1
  22 -21   1 31151.4 1788.15   4
  21 -22   1 33431.0 1781.69   4
  21 -22   1 35616.5 1447.03   2
  -1  22   1 38153.0 2457.95   3
   1  21   1 36203.4 2443.36   3
  22 -21   1 34918.6 1574.90   2
  -1  22   1 31555.7 1736.40   2
  22 -21   4 2144.07 1031.13   3
  21 -22   4 909.901 934.849   3
  21 -22   4 2542.16 417.225   2
   1  21   4 844.679 439.797   1
  -1  22   4 1571.82 540.059   1
  -1  22   4 400.520 872.555   3
   1  21   4 3038.43 1019.61   3
  22 -21   7 13353.0 2147.02   3
  21 -22   7 14364.3 2083.67   3
  -1  22   7 15012.2 1918.39   3
  -1  22   7 14559.5 1376.86   1
   2  20  -9 12634.8 1936.23   1
  20 -22  -9 11838.2 2156.32   4
  -2  22  -9 9629.13 1634.62   1
  22 -20  -9 9521.37 1944.64   4
   2  20  -9 8374.73 1509.26   2
  22 -20  -9 9246.81 1876.06   2
  20 -22  -9 8193.21 1840.10   2
  22 -20  -6 1510.63 1265.20   2
  20 -22  -6 3188.48 1120.95   4
   2  20  -6 2610.08 881.678   1
  -2  22  -6 1725.84 810.787   1
   2  20  -6 1028.82 737.173   2
  -2  22  -6 2517.91 795.228   2
  20 -22  -6 2538.22 1147.02   2
  22 -20  -6 595.043 935.640   4
   2  20  -3 21519.4 1367.70   2
  22 -20  -3 19724.1 1728.15   4
  -2  22  -3 17817.3 1099.27   2
  22 -20  -3 17266.9 1631.86   2
   2  20  -3 20129.0 1503.69   1
  20 -22  -3 18232.2 1680.55   4
  20 -22  -3 20960.9 1637.92   2
  -2  22  -3 19119.4 1509.92   1
  22 -20   0 5477.60 876.847   4
  20 -22   0 6293.54 878.639   4
  22 -20   0 6929.98 828.609   2
  20 -22   0 5751.41 711.797   2
   2  20   0 8076.96 1250.79   3
   2  20   0 6896.32 749.264   1
  -2  22   0 6254.68 782.087   2
  -2  22   0 5802.24 744.374   1
  22 -20   3 14039.4 1782.51   3
  -2  22   3 14147.2 1070.02   4
  20 -22   3 15201.7 725.471   2
   2  20   3 14128.5 1192.08   4
  -2  22   3 10906.0 1029.65   1
   2  20   3 13306.4 983.697   1
  -2  22   3 15072.6 1646.74   3
   2  20   3 10327.2 1404.90   3
  20 -22   3 15267.4 866.502   2
  22 -20   3 16102.2 1001.36   2
  22 -20   3 11073.1 981.699   2
  22 -20   6 4105.29 1479.52   3
  20 -22   6 3982.71 1424.43   3
  -2  22   6 4215.42 1125.36   3
   2  20   6 5432.14 1371.88   3
  -2  22   6 5366.51 877.364   1
   2  20   6 4139.69 744.692   1
  22 -20   9 9312.24 1840.08   3
  20 -22   9 7629.57 1925.23   3
  -2  22   9 13758.2 1997.85   3
   2  20   9 11355.5 2014.95   3
  22 -19  -7 2722.22 1305.73   4
  19 -22  -7 5651.98 1595.78   4
   3  19  -7 2583.19 1013.80   1
  -3  22  -7 860.982 759.248   1
   3  19  -7 2289.54 917.972   2
  22 -19  -7 982.888 1073.26   2
  -3  22  -7 2878.63 803.285   2
  19 -22  -7 1257.76 1080.86   2
  22 -19  -4 18271.7 1823.62   4
  19 -22  -4 17767.2 1762.39   4
   3  19  -4 20002.6 1495.55   2
   3  19  -4 17621.4 1537.90   1
  22 -19  -4 19277.4 1855.96   2
  -3  22  -4 21609.5 1245.90   2
  -3  22  -4 18539.1 1557.09   1
  19 -22  -4 22934.3 1847.15   2
 -22   3  -4 18146.2 733.907   1
  -3  22  -1 10937.8 678.104   2
  19 -22  -1 8765.40 1044.83   4
  22 -19  -1 9161.57 1124.09   4
  22 -19  -1 12812.8 1196.08   2
  19 -22  -1 10949.7 969.598   2
   3  19  -1 11192.5 1387.07   3
   3  19  -1 10672.5 955.222   1
  -3  22  -1 8705.13 948.243   1
  -3  22  -1 10688.6 817.043   2
  22 -19   2 48761.1 1748.73   2
  22 -19   2 44360.3 2794.85   3
  -3  22   2 52068.4 1967.75   1
  -3  22   2 50101.4 1366.19   4
  22 -19   2 58018.2 1899.70   2
   3  19   2 49635.8 1658.88   1
   3  19   2 50130.7 1802.73   4
  -3  22   2 49879.6 2719.64   3
   3  19   2 48473.1 2675.38   3
  -3  22   2 49951.0 2304.67   2
  19 -22   2 50039.0 2040.91   4
  -3  22   5 2764.63 716.166   1
  22 -19   5 2447.16 1140.19   3
  -3  22   5 1727.20 884.154   3
   3  19   5 3406.29 1185.34   3
   3  19   5 2564.08 581.310   1
  22 -19   8 10656.5 1924.44   3
  19 -22   8 7209.17 1613.31   3
  -3  22   8 17129.0 2009.42   3
   3  19   8 16386.3 2170.77   3
  22 -18  -8 3043.70 1342.00   4
  18 -22  -8 4793.61 1403.58   4
   4  18  -8 4982.93 1318.48   1
   4  18  -8 5773.52 1447.01   2
  -4  22  -8 3620.58 1167.11   1
  22 -18  -8 2077.50 1356.40   2
  18 -22  -8 3242.47 1318.17   2
 -22   4  -5 13948.4 698.137   1
  22 -18  -5 14902.0 1825.18   4
   4  18  -5 15251.3 1489.10   1
  18 -22  -5 15221.8 1729.17   4
   4  18  -5 16004.9 1491.31   2
  22 -18  -5 15158.6 1826.30   2
  -4  22  -5 16420.9 1549.51   1
   4  18  -5 12006.4 623.036   4
  -4  22  -5 15491.1 1068.98   2
  18 -22  -5 14624.5 1636.80   2
  22 -18  -2 12333.4 1298.48   4
   4  18  -2 11989.1 1039.13   2
  18 -22  -2 9228.73 1118.24   4
  -4  22  -2 11722.5 706.085   2
  22 -18  -2 10376.7 1243.05   2
 -22   4  -2 13512.9 941.492   1
   4  18  -2 12973.1 1126.92   1
  18 -22  -2 11208.0 1138.21   2
   4  18  -2 14213.9 1501.11   3
  -4  22  -2 12188.5 1118.28   1
  -4  22  -2 9778.52 612.648   2
  -4  22   1 7373.72 816.718   1
  22 -18   1 9912.63 1444.23   3
  22 -18   1 8473.87 1017.40   4
  22 -18   1 8295.77 850.611   2
   4  18   1 8748.59 671.442   4
   4  18   1 9565.95 1262.40   3
  -4  22   1 8842.85 942.183   2
   4  18   1 9036.13 723.632   1
  18 -22   1 8585.98 870.372   4
  22 -18   4 1913.91 1115.20   3
  -4  22   4 2664.22 685.609   1
  18 -22   4 1187.51 261.522   2
  -4  22   4 2411.86 988.238   3
 -22   4   4 2247.32 623.285   3
   4  18   4 968.456 828.140   3
   4  18   4 2116.80 459.252   1
  22 -18   7 3809.67 1502.40   3
  -4  22   7 6679.43 1090.83   1
  -4  22   7 7836.89 1505.03   3
   4  18   7 5904.08 1453.19   3
  22 -18  10-301.507 1475.59   3
  -4  22  10 2410.74 1360.21   3
   4  18  10 712.249 1309.22   3
  22 -17  -9 12506.5 2198.18   4
  17 -22  -9 12972.2 2108.09   4
  -5  22  -9 9490.23 1586.76   1
   5  17  -9 13162.0 1942.98   2
  22 -17  -9 8703.45 1903.66   2
   5  17  -9 10909.5 1895.02   1
  17 -22  -9 8028.49 1690.28   2
  22 -17  -6 4392.47 1367.01   4
  17 -22  -6 1400.14 1119.38   4
   5  17  -6 1776.14 992.512   1
   5  17  -6 3103.36 610.181   4
   5  17  -6 2430.29 837.795   2
  22 -17  -6 2610.07 1251.85   2
   5  17  -6 2780.94 870.821   3
  -5  22  -6 2730.98 877.191   1
  -5  22  -6 1190.89 626.387   2
  17 -22  -6 4557.19 1207.06   2
 -22   5  -6 2256.92 364.838   1
  -5  22  -3 10870.3 520.623   2
  22 -17  -3 14550.2 1514.74   4
   5  17  -3 18298.4 1379.32   2
  17 -22  -3 15539.0 1523.50   4
   5  17  -3 13677.1 1278.13   1
  22 -17  -3 15707.8 1576.35   2
 -22   5  -3 17194.3 983.473   1
  -5  22  -3 15756.0 719.983   2
   5  17  -3 17737.6 1622.15   3
  -5  22  -3 18815.2 1470.94   1
  17 -22  -3 16118.0 1433.19   2
   5  17   0 10397.8 581.576   4
  22 -17   0 11239.4 1395.23   3
  17 -22   0 15417.9 1156.53   4
  22 -17   0 12776.2 1209.95   4
  22 -17   0 13715.2 1169.53   2
   5  17   0 12986.6 456.385   4
   5  17   0 11696.3 1369.36   3
  17 -22   0 10546.2 610.770   2
  -5  22   0 13720.9 884.849   2
   5  17   0 12294.7 888.172   1
  -5  22   0 12730.2 1052.32   1
 -22   5   0 13256.5 1110.28   1
  22 -17   3 16914.9 1862.73   3
   5  17   3 19146.7 1469.99   4
  -5  22   3 19465.8 1367.81   1
  -5  22   3 18614.3 1667.87   3
   5  17   3 22406.6 1990.86   3
   5  17   3 19924.4 976.849   1
 -22   5   3 16988.0 1346.64   3
  -5  22   3 18355.0 1124.50   4
  22 -17   6 5940.71 1512.72   3
  -5  22   6 7343.42 1039.32   1
  -5  22   6 6834.75 1238.34   3
   5  17   6 7385.75 1498.48   3
  -5  22   9 21430.3 2233.44   3
   5  17   9 19316.8 2457.54   3
   6  16 -10 15630.5 2255.21   1
  22 -16 -10 18293.3 2705.56   4
  -6  22 -10 20481.3 2157.56   1
   6  16 -10 14712.9 2080.58   2
  22 -16 -10 13388.4 2441.16   2
  16 -22 -10 13321.5 2100.65   2
  16 -22 -10 15400.8 2514.32   4
 -22   6  -7 8910.63 670.601   1
   6  16  -7 8599.28 1437.24   1
  22 -16  -7 7678.19 1544.14   4
  16 -22  -7 9897.36 1649.49   4
  -6  22  -7 10930.0 1409.63   1
   6  16  -7 10135.2 1128.54   4
   6  16  -7 12997.1 1689.45   2
   6  16  -7 11332.4 1297.02   3
  22 -16  -7 6940.09 1548.91   2
  16 -22  -7 7313.50 1442.48   2
  -6  22  -7 9272.37 999.001   2
   6  16  -4 21939.6 1663.00   1
   6  16  -4 24407.8 1730.23   2
  16 -22  -4 22837.4 1899.22   4
  22 -16  -4 25809.6 2113.45   2
   6  16  -4 20435.2 955.721   4
  -6  22  -4 22969.3 1697.89   1
   6  16  -4 25424.0 1801.07   3
  22 -16  -4 23718.5 1991.00   4
  16 -22  -4 20223.8 1664.57   2
 -22   6  -4 23625.7 1098.47   1
  22 -16  -1 3029.65 954.651   3
  16 -22  -1 6050.16 857.209   4
   6  16  -1 4127.91 308.412   4
  22 -16  -1 4174.21 879.842   4
  22 -16  -1 6051.36 927.512   2
   6  16  -1 3948.82 327.190   4
   6  16  -1 4467.72 659.933   1
  -6  22  -1 3192.21 330.096   2
   6  16  -1 5467.98 1049.02   3
  -6  22  -1 4606.85 321.336   2
  16 -22  -1 4870.45 603.762   2
  -6  22  -1 5295.82 757.448   1
 -22   6  -1 3683.04 624.533   1
  22 -16   2 39359.9 2587.93   3
   6  16   2 32787.3 1171.06   1
  -6  22   2 36585.2 1206.74   4
  -6  22   2 38070.2 1791.69   1
   6  16   2 39964.4 1827.25   4
 -22   6   2 40463.6 2172.23   1
  -6  22   2 37398.2 1870.57   2
   6  16   2 40864.6 2436.03   3
  16 -22   2 37797.7 1538.38   4
   6  16   5 554.483 340.152   1
  22 -16   5 642.029 942.050   3
  16 -22   5 165.545 163.681   2
  -6  22   5 257.236 791.389   3
  -6  22   5 821.112 630.560   1
  22 -16   8 30806.0 2875.89   3
  -6  22   8 31750.0 2494.46   3
   6  16   8 37112.9 3078.38   3
  -7  22  -8 5673.57 1136.35   1
   7  15  -8 4432.18 1350.10   1
  22 -15  -8 4086.77 1354.80   4
  15 -22  -8 3347.77 1258.44   4
   7  15  -8 4037.03 881.299   4
   7  15  -8 3849.83 1190.51   2
  22 -15  -8 3545.65 1339.31   2
  15 -22  -8 5600.38 1370.74   2
   7  15  -5 17171.6 1599.58   2
  22 -15  -5 13235.6 1689.03   4
  15 -22  -5 11223.9 1507.01   4
   7  15  -5 15225.7 1079.49   4
 -22   7  -5 14019.1 858.815   1
  22 -15  -5 15462.4 1839.41   2
  -7  22  -5 14999.6 1435.78   1
   7  15  -5 16704.2 1475.63   3
  15 -22  -5 12153.4 1392.90   2
  -7  22  -5 11390.6 680.340   2
   7  15  -5 13889.4 1459.07   1
   7  15  -2 28108.3 1594.98   2
  22 -15  -2 26647.7 1912.89   4
  15 -22  -2 27367.5 1730.60   4
   7  15  -2 26899.0 929.867   4
  22 -15  -2 28271.3 1915.66   2
   7  15  -2 23636.3 791.958   4
   7  15  -2 29143.0 1911.69   3
  15 -22  -2 29302.9 1423.33   2
  -7  22  -2 29167.8 1662.94   1
   7  15  -2 30219.0 1662.51   1
 -22   7  -2 31222.8 1481.32   1
  22 -15   1 3599.89 1016.78   3
  -7  22   1 4037.41 708.565   1
  15 -22   1 4705.72 611.486   4
 -22   7   1 3277.09 727.797   1
   7  15   1 4456.58 661.589   4
  -7  22   1 4670.91 627.799   2
   7  15   1 2689.34 836.229   3
  22 -15   1 5097.13 710.268   2
   7  15   1 4023.07 455.526   1
  22 -15   4 4328.01 1282.09   3
  -7  22   4 1409.13 606.650   1
  -7  22   4 2238.65 812.565   3
   7  15   4 3351.74 1103.78   3
 -22   7   4 2627.55 636.933   3
   7  15   4 2394.51 383.343   1
  22 -15   7 11118.0 1814.44   3
  -7  22   7 9082.63 1299.15   1
  -7  22   7 10631.6 1520.68   3
   7  15   7 14426.4 2055.55   3
  22 -15  10-797.977 1322.86   3
  -7  22  10 1349.55 1188.39   3
   7  15  10 883.528 1293.48   3
   8  14  -9 22894.1 2486.32   1
  22 -14  -9 19557.8 2562.03   4
  14 -22  -9 22235.1 2590.52   4
  -8  22  -9 23081.5 2147.93   1
   8  14  -9 20668.5 1911.39   4
   8  14  -9 26384.9 2555.04   2
  22 -14  -9 18187.7 2547.86   2
  14 -22  -9 19507.9 2280.91   2
 -22   8  -6 11105.4 822.151   1
  22 -14  -6 11535.0 1864.22   4
  14 -22  -6 13033.6 1696.13   4
   8  14  -6 7352.62 1309.11   2
   8  14  -6 11729.1 1144.21   4
  22 -14  -6 9566.71 1618.15   2
  -8  22  -6 8974.01 1283.88   1
   8  14  -6 13937.7 1297.15   3
  14 -22  -6 9259.14 1352.02   2
   8  14  -6 9572.37 1428.27   1
  -8  22  -6 7795.91 693.480   2
   8  14  -3 35248.3 1939.72   2
   8  14  -3 34309.8 1897.69   1
  14 -22  -3 40203.7 2208.62   4
   8  14  -3 35670.2 1347.58   4
  22 -14  -3 36327.6 2258.25   2
   8  14  -3 38529.3 2074.62   3
  -8  22  -3 38099.5 1990.35   1
 -22   8  -3 34692.1 1455.46   1
  14 -22  -3 32748.4 1714.62   2
  22 -14  -3 35223.2 2295.51   4
  -8  22   0 6322.77 799.732   1
  22 -14   0 7497.61 1195.44   3
  22 -14   0 7843.15 928.399   2
  14 -22   0 8491.43 841.886   4
  -8  22   0 6283.48 397.643   2
   8  14   0 8031.97 710.501   4
   8  14   0 7730.45 663.985   1
   8  14   0 8945.31 1141.76   3
 -22   8   0 8000.09 917.873   1
  22 -14   0 6396.92 949.108   4
   8  14   3 52323.7 1186.37   1
  22 -14   3 54284.6 3043.37   3
  -8  22   3 53516.0 1860.78   4
 -22   8   3 60578.1 2835.30   1
  -8  22   3 51674.8 2298.96   2
  14 -22   3 52466.4 1921.69   4
  -8  22   3 58274.2 2387.23   1
   8  14   3 56025.7 3036.34   3
 -22   8   3 52607.7 2243.59   3
  22 -14   6 3435.95 1350.33   3
  -8  22   6 262.389 751.063   3
  -8  22   6 800.752 693.484   1
   8  14   6 1582.72 1036.13   3
  22 -14   9 16818.3 2336.24   3
  -8  22   9 21426.5 2163.77   3
   8  14   9 19688.2 2426.12   3
   9  13 -10 14402.6 2208.64   1
  22 -13 -10 13437.8 2298.77   4
  13 -22 -10 11991.4 2200.75   4
  -9  22 -10 11120.6 1640.90   1
   9  13 -10 13736.5 1764.82   4
  22 -13 -10 15457.4 2507.82   2
   9  13 -10 8616.55 1899.70   2
  13 -22 -10 11581.9 1894.14   2
   9  13  -7 7878.84 1536.20   1
  22 -13  -7 7646.64 1587.32   4
   9  13  -7 7730.72 1121.78   4
   9  13  -7 7325.54 1438.64   2
  13 -22  -7 6962.31 1500.00   4
  -9  22  -7 7626.98 1235.74   1
  22 -13  -7 6889.46 1603.48   2
   9  13  -7 6531.02 961.451   3
  -9  22  -7 6350.26 762.342   2
  13 -22  -7 6624.06 1259.01   2
 -22   9  -7 7238.22 744.967   1
   9  13  -4 29698.4 1997.73   1
   9  13  -4 32146.4 1531.04   4
  13 -22  -4 28074.4 2019.64   4
  22 -13  -4 31739.6 2314.32   2
 -22   9  -4 33861.8 1395.87   1
  -9  22  -4 31879.6 1932.66   1
   9  13  -4 34534.0 1924.30   3
   9  13  -4 31591.9 2073.39   2
  22 -13  -4 28370.1 2259.77   4
  13 -22  -4 28909.3 1763.66   2
  22 -13  -1 14003.1 1453.02   3
 -22   9  -1 14259.9 1119.53   1
  22 -13  -1 11954.5 1248.24   2
  22 -13  -1 13903.8 1341.72   4
   9  13  -1 13915.4 759.147   4
   9  13  -1 14592.3 1042.20   1
  13 -22  -1 14376.0 1130.11   4
   9  13  -1 12527.2 783.069   4
   9  13  -1 15807.3 1475.67   3
  -9  22  -1 12515.7 1092.07   1
  13 -22  -1 11341.7 594.860   2
  22 -13   2 41360.5 2630.89   3
  -9  22   2 36061.4 1310.19   4
  13 -22   2 39658.1 1374.15   4
   9  13   2 40042.4 979.936   1
  -9  22   2 39632.1 1886.87   1
  -9  22   2 38944.6 1671.92   2
   9  13   2 36049.2 1833.83   4
 -22   9   2 39336.8 2185.43   1
   9  13   2 43010.4 2550.36   3
  22 -13   5 2108.49 945.883   3
  -9  22   5-71.4442 699.801   3
   9  13   5 432.428 1022.78   3
 -22   9   5-446.500 501.396   3
  -9  22   5 690.864 629.132   1
  -9  22   8 21157.8 2043.16   3
   9  13   8 24529.5 2545.15   3
  -9  22   8 18219.0 1891.49   1
  22 -13   8 21485.1 2405.57   3
  22 -12  -8 2370.19 1346.91   4
  12 -22  -8 3147.61 1361.43   4
  10  12  -8 2788.10 959.510   4
  10  12  -8 5096.24 1319.89   2
  22 -12  -8 7032.93 1714.48   2
 -10  22  -8 2461.37 894.444   1
 -22  10  -8 2987.83 637.989   1
  12 -22  -8 2744.12 1163.67   2
 -22  10  -5 13493.2 920.792   1
  22 -12  -5 12826.1 1740.53   4
  10  12  -5 14086.9 1593.19   2
  10  12  -5 13742.4 1234.03   4
  12 -22  -5 11985.7 1547.50   4
  22 -12  -5 11827.8 1614.39   2
 -10  22  -5 14963.4 1437.85   1
  10  12  -5 11661.0 1141.39   3
  12 -22  -5 13325.4 1356.42   2
  22 -12  -2 24043.2 1704.32   3
  10  12  -2 21522.7 1459.18   2
  22 -12  -2 22522.6 1676.83   4
  10  12  -2 22506.1 1101.15   4
  12 -22  -2 19587.5 1415.12   4
  10  12  -2 23209.0 1469.80   1
  22 -12  -2 24164.0 1739.16   2
  10  12  -2 19712.8 1551.65   3
 -22  10  -2 25422.3 1346.64   1
 -10  22  -2 22743.3 1475.63   1
  12 -22  -2 23140.4 1134.45   2
  22 -12   1 18389.8 1716.13   3
  12 -22   1 22140.1 1063.58   4
 -10  22   1 21869.1 921.292   2
  10  12   1 20210.6 1303.22   4
 -22  10   1 22963.3 1576.09   1
  10  12   1 25090.2 1959.66   3
  10  12   1 22109.7 828.779   1
 -10  22   1 21719.5 1448.82   1
 -22  10   4 17028.0 1652.02   1
  12 -22   4 16119.8 1187.23   4
  10  12   4 19021.7 1902.96   3
 -22  10   4 14004.3 1201.39   3
 -10  22   4 18009.2 1521.78   1
  22 -12   4 18901.8 2031.63   3
  22 -12   7 3010.74 1173.71   3
 -10  22   7 3055.66 953.254   3
  10  12   7 2664.19 1339.29   3
 -10  22   7 3075.18 971.657   1
  22 -12  10 5366.01 1754.66   3
 -10  22  10 8253.96 1640.07   3
  10  12  10 7378.99 1863.02   3
  22 -11  -9 22089.8 2664.64   4
  11  11  -9 24808.6 2194.43   4
  11 -22  -9 24295.4 2603.09   4
 -11  22  -9 22291.9 2090.14   1
  11  11  -9 27289.2 2716.51   2
  22 -11  -9 25479.2 2946.55   2
 -22  11  -9 26991.4 1579.86   1
  11 -22  -9 21417.9 2198.52   2
 -22  11  -6 5444.58 692.317   1
  22 -11  -6 7358.91 1454.23   4
  11  11  -6 6159.86 1010.82   4
  11 -22  -6 5358.38 1198.31   4
  11  11  -6 5688.25 1387.02   2
  22 -11  -6 4938.42 1379.70   2
  11  11  -6 5234.17 831.911   3
 -11  22  -6 5139.66 944.743   1
  11 -22  -6 6101.33 1096.62   2
  22 -11  -3 40537.2 2016.89   3
  11  11  -3 44874.4 2231.93   1
  11 -22  -3 42885.5 2203.28   4
  11  11  -3 47305.9 2337.04   2
  22 -11  -3 42810.8 2504.19   4
  11  11  -3 44234.5 1740.92   4
  22 -11  -3 48708.9 2603.91   2
 -22  11  -3 48439.4 1754.36   1
  11  11  -3 49410.8 2293.61   3
 -11  22  -3 47830.9 2178.78   1
  11 -22  -3 42624.9 1781.31   2
  22 -11   0 1933.71 812.621   3
  22 -11   0 2377.21 663.964   2
  11 -22   0 2704.99 511.700   4
 -11  22   0 2687.98 646.234   1
  11  11   0 2544.16 518.981   4
  11  11   0 2253.32 403.392   1
  22 -11   0 1769.55 599.513   4
  11  11   0 3015.85 867.752   3
 -22  11   0 2949.45 660.644   1
  11 -22   3 50943.9 1365.30   4
 -22  11   3 45181.8 2487.48   1
 -11  22   3 40618.7 1945.86   2
  11 -22   3 41888.5 1551.34   4
 -11  22   3 48695.2 2263.17   1
  11  11   3 49668.4 2838.85   3
  22 -11   3 42665.0 2733.42   3
  22 -11   6 3692.45 1394.39   3
 -11  22   6 4477.08 1010.38   3
 -11  22   6 5496.78 1111.94   1
  11  11   6 7085.87 1523.51   3
 -11  22   9 21677.1 2048.39   3
  22 -11   9 18502.8 2404.13   3
  10 -22 -10 5848.56 1575.51   2
  22 -10 -10 6758.99 1897.23   4
  12  10 -10 3372.24 1182.87   4
  10 -22 -10 7081.52 1883.45   4
  12  10 -10 9625.58 2200.01   2
 -10 -12 -10 7002.07 1350.24   4
  22 -10 -10 7468.46 1956.30   2
 -12  22 -10 6100.49 1275.86   1
 -22  12 -10 6520.03 955.395   1
 -12  22  -7 2952.84 506.736   2
  22 -10  -7 1788.98 983.145   4
  12  10  -7 4573.99 1030.55   4
  10 -22  -7 4555.21 1179.60   4
  12  10  -7 3849.37 1216.34   2
  22 -10  -7 1619.80 1185.60   2
 -12  22  -7 3156.27 858.229   1
 -22  12  -7 3529.21 638.496   1
  10 -22  -7 3641.38 1042.54   2
 -22  12  -4 18692.9 1157.99   1
  22 -10  -4 20793.8 1865.32   4
  22 -10  -4 18432.0 1845.76   2
  10 -22  -4 18483.9 1552.40   4
  12  10  -4 19555.9 1388.85   4
  12  10  -4 22338.5 1533.46   3
 -12  22  -4 17280.9 1423.72   1
  12  10  -4 23443.3 1927.05   2
  10 -22  -4 18688.3 1363.72   2
  22 -10  -1 21757.1 1709.77   3
  22 -10  -1 19684.4 1494.56   2
  12  10  -1 20929.3 1243.35   1
  10 -22  -1 19599.1 1215.21   4
  12  10  -1 21409.1 1664.20   3
 -22  12  -1 20892.7 1309.51   1
  12  10  -1 18558.9 987.651   4
  22 -10  -1 21179.4 1565.80   4
 -12  22  -1 18920.2 1318.74   1
  10 -22   2 24759.6 923.778   4
 -12  22   2 24032.1 1221.82   2
 -12  22   2 25883.6 1603.98   1
  10 -22   2 25163.1 998.775   4
 -22  12   2 23402.8 1735.84   1
  12  10   2 27569.1 2095.01   3
  22 -10   2 22522.7 1975.73   3
 -22  12   5 11114.9 1455.41   1
 -12  22   5 15199.8 1562.97   1
  10 -22   5 12833.6 1137.16   4
  12  10   5 11673.3 1623.15   3
 -22  12   5 7697.17 931.714   3
  22 -10   5 9698.64 1558.85   3
  22 -10   8 3188.31 1412.62   3
 -12  22   8 1675.61 982.394   3
 -12  22   8 2850.39 1120.74   1
  12  10   8 256.710 1113.86   3
  22  -9  -8 23115.1 2553.17   4
  13   9  -8 22082.5 2080.45   4
   9 -22  -8 23600.0 2337.11   4
  13   9  -8 27476.1 2625.99   2
  22  -9  -8 23483.1 2617.56   2
 -13  22  -8 24214.9 2022.86   1
  -9 -13  -8 24300.8 1912.74   4
 -22  13  -8 22996.6 1467.41   1
   9 -22  -8 18719.4 1950.51   2
   9 -22  -5 1023.52 704.696   2
  22  -9  -5 826.483 870.419   4
 -22  13  -5 338.586 384.240   1
  13   9  -5-276.582 540.003   4
  13   9  -5 451.435 849.890   2
   9 -22  -5-295.322 660.426   4
  22  -9  -5-168.088 851.096   2
  13   9  -5 1046.43 575.821   3
 -13  22  -5 1508.92 646.459   1
  22  -9  -2 33413.6 1969.35   3
   9 -22  -2 35622.5 1258.45   2
  13   9  -2 31568.5 1870.37   2
  22  -9  -2 31413.7 1964.58   4
  13   9  -2 34964.1 1511.99   4
  22  -9  -2 37118.3 2132.41   2
 -22  13  -2 33111.8 1579.36   1
   9 -22  -2 31117.0 1621.97   4
  13   9  -2 35936.0 2028.77   3
 -13  22  -2 30994.0 1720.42   1
  13   9   1 13211.3 677.813   1
 -22  13   1 11720.6 1183.61   1
   9 -22   1 13741.3 732.173   4
 -13  22   1 10494.7 529.050   2
  13   9   1 12636.1 553.509   1
  13   9   1 15661.1 1573.43   3
 -13  22   1 15751.3 1269.24   1
  22  -9   1 13598.1 1523.57   3
 -13  22   4 28829.3 1949.50   1
 -22  13   4 29130.1 2172.79   1
   9 -22   4 27477.4 1279.02   4
  13   9   4 28483.6 2380.71   3
 -22  13   4 22900.8 1575.64   3
  22  -9   4 22411.6 1376.40   1
  22  -9   4 25722.1 2258.42   3
  22  -9   7 4372.23 1532.70   3
 -13  22   7 8729.15 1468.85   1
 -13  22   7 7208.66 1193.22   3
  13   9   7 11622.4 1949.54   3
  22  -9  10 8640.40 1913.57   3
 -13  22  10 13869.7 1806.71   3
  13   9  10 14966.3 2374.83   3
  22  -8  -9 21068.2 2678.10   4
  14   8  -9 19652.8 2189.71   4
   8 -22  -9 16799.9 2148.54   4
  14   8  -9 17239.5 2414.13   2
  22  -8  -9 13852.6 2239.95   2
 -14  22  -9 14322.1 1714.39   1
  -8 -14  -9 17894.5 1847.93   4
 -22  14  -9 15676.9 1346.64   1
   8 -22  -9 14674.1 1893.23   2
   8 -22  -6 2592.95 846.893   2
 -22  14  -6 3350.84 622.023   1
  22  -8  -6 1957.38 945.679   4
  14   8  -6 3242.89 899.744   4
  14   8  -6 3065.51 1222.34   2
   8 -22  -6 4159.82 1000.32   4
  22  -8  -6 3077.43 1258.05   2
  14   8  -6 4128.10 718.602   3
 -14  22  -6 2409.45 771.084   1
  22  -8  -3 52825.3 2301.42   3
   8 -22  -3 52835.1 1872.91   2
  22  -8  -3 51681.2 2660.66   4
  14   8  -3 46478.7 2477.21   2
  14   8  -3 52421.6 2098.28   4
 -22  14  -3 51104.5 1937.26   1
  22  -8  -3 48014.7 2684.45   2
   8 -22  -3 50831.9 2240.86   4
  14   8  -3 60082.6 2527.49   3
 -14  22  -3 55127.4 2317.03   1
   8 -22   0 8198.30 625.102   4
  14   8   0 10009.0 753.057   1
  22  -8   0 9952.02 1030.76   2
  14   8   0 9045.04 1265.81   3
  14   8   0 9637.36 784.939   1
 -22  14   0 8835.40 965.000   1
 -14  22   0 9822.89 1038.52   1
  22  -8   0 9442.18 1279.60   3
   8 -22   3 29600.5 736.380   4
   8 -22   3 27117.4 925.690   4
  22  -8   3 26828.6 1342.74   1
 -22  14   3 32453.8 2138.08   1
  14   8   3 32205.2 2329.88   3
 -14  22   3 32325.0 1924.00   1
  22  -8   3 29833.2 2316.14   3
 -14  22   3 31850.3 1623.37   2
  22  -8   6 8398.42 1639.02   3
 -22  14   6 11714.5 1618.32   1
 -14  22   6 8497.58 1137.34   3
 -14  22   6 9058.56 1375.65   1
  14   8   6 12319.2 1802.73   3
 -14  22   9 18731.6 1883.53   3
 -14  22   9 18544.9 2240.20   1
  14   8   9 23433.4 2640.74   3
  22  -8   9 15619.4 2289.03   3
   7 -22 -10 370.476 981.797   2
  22  -7 -10 174.397 1220.41   4
  15   7 -10 1185.84 1034.92   4
   7 -22 -10-401.575 1119.23   4
  -7 -15 -10-662.886 948.609   4
  15   7 -10-125.739 1347.31   2
  22  -7 -10 1215.04 1990.40   2
 -15  22 -10 577.516 844.090   1
 -22  15 -10-34.0143 662.322   1
  22  -7  -7 9636.11 1801.73   4
  15   7  -7 9158.79 1390.66   4
  15   7  -7 8556.95 1660.34   2
   7 -22  -7 11565.7 1611.79   4
  22  -7  -7 8192.41 1711.75   2
  -7 -15  -7 10495.2 1282.33   4
 -15  22  -7 10159.8 1295.50   1
 -22  15  -7 10801.5 1034.81   1
   7 -22  -7 10997.9 1412.25   2
 -22  15  -4 3444.46 655.500   1
   7 -22  -4 3541.24 722.249   2
  22  -7  -4 1500.63 572.699   3
  15   7  -4 4163.64 857.448   4
  22  -7  -4 1622.37 772.374   4
  22  -7  -4 3854.37 1110.76   2
   7 -22  -4 3813.20 837.809   4
  15   7  -4 3770.26 798.506   3
  15   7  -4 2826.53 1062.12   2
 -15  22  -4 2438.90 691.951   1
  22  -7  -1 3334.17 937.955   3
  15   7  -1 2087.49 566.574   1
  15   7  -1 2077.68 485.374   4
  22  -7  -1 1532.23 567.225   4
  22  -7  -1 1832.15 754.850   2
 -15  22  -1 797.065 548.440   1
   7 -22  -1 2520.78 449.303   4
  15   7  -1 2832.14 875.518   3
 -22  15  -1 2826.17 660.004   1
 -15  22   2 26596.3 1146.70   2
 -22  15   2 25038.4 1761.72   1
 -15  22   2 27483.8 1728.22   1
  22  -7   2 22758.7 1190.05   1
  15   7   2 27258.4 2114.27   3
  22  -7   2 30296.0 2285.70   3
 -15  22   5 13226.7 1503.18   1
 -22  15   5 17319.2 1779.32   1
  15   7   5 16173.1 1948.46   3
  22  -7   5 11426.2 1728.89   3
  22  -7   8 3433.31 1421.49   3
 -15  22   8 3285.23 967.997   3
 -15  22   8 4427.75 1186.99   1
  15   7   8 4125.83 1397.57   3
  22  -6  -8 32815.0 2940.29   4
  16   6  -8 30719.9 2480.27   4
  16   6  -8 34178.3 3097.63   2
  22  -6  -8 29428.0 2931.21   2
  -6 -16  -8 30595.0 2201.40   4
 -16  22  -8 32836.0 2244.51   1
 -22  16  -8 30504.6 1816.82   1
   6 -22  -8 29406.0 2455.74   4
   6 -22  -8 32717.8 2310.16   2
   6 -22  -5-408.774 595.982   2
  22  -6  -5 675.011 925.305   4
  16   6  -5-158.129 689.584   4
 -22  16  -5 553.053 451.653   1
  16   6  -5 674.096 1084.60   2
  22  -6  -5 990.442 1099.71   2
   6 -22  -5 1113.31 747.474   4
  16   6  -5-84.1073 531.818   3
 -16  22  -5-486.617 688.985   1
  16   6  -2 35814.1 2070.89   2
  16   6  -2 38359.8 1755.10   4
  22  -6  -2 41296.1 2334.83   2
 -22  16  -2 35774.1 1750.40   1
   6 -22  -2 36607.2 1551.86   4
  22  -6  -2 35662.4 2047.28   4
  16   6  -2 40414.1 2176.13   3
  22  -6  -2 38111.5 2132.24   3
 -16  22  -2 38618.4 1907.70   1
  16   6   1 3566.53 324.378   1
 -16  22   1 5607.60 837.629   1
  16   6   1 3459.72 289.141   1
  16   6   1 4765.88 1067.96   3
  22  -6   1 3681.69 572.251   1
 -22  16   1 4590.61 813.498   1
  22  -6   1 4144.04 1056.02   3
 -16  22   4 17056.2 1661.87   1
  22  -6   4 15728.3 986.741   1
  16   6   4 22606.6 2148.30   3
 -22  16   4 21404.0 1873.30   1
  22  -6   4 16663.0 1913.67   3
 -16  22   7 8505.36 1556.24   1
 -22  16   7 7522.32 1464.25   1
 -16  22   7 7713.25 1121.08   3
  16   6   7 9978.13 1709.66   3
  22  -6   7 7008.76 1471.57   3
  22  -6  10 14272.6 2272.18   3
  16   6  10 18397.2 2637.02   3
   5 -22  -9 12311.9 1663.89   2
  22  -5  -9 15276.9 2301.91   4
  17   5  -9 14719.9 1988.32   4
   5 -22  -9 13260.7 1881.12   4
  22  -5  -9 16952.5 2514.13   2
  -5 -17  -9 14721.4 1758.74   4
 -17  22  -9 16301.2 1706.31   1
 -22  17  -9 14706.3 1447.60   1
  17   5  -9 13043.7 2176.26   2
   5 -22  -6 6769.88 1064.71   2
  22  -5  -6 8769.06 1481.83   4
  17   5  -6 7676.94 1669.67   2
   5 -22  -6 8417.89 1258.89   4
  22  -5  -6 7314.52 1575.00   2
  -5 -17  -6 9136.67 1121.60   4
 -17  22  -6 9539.08 1148.00   1
 -22  17  -6 7382.44 915.548   1
  17   5  -6 8075.87 1275.99   4
  17   5  -3 17988.2 1409.83   4
 -22  17  -3 18411.5 1281.12   1
  -5 -17  -3 17114.3 1056.85   1
  22  -5  -3 12131.1 1366.55   4
  22  -5  -3 17421.8 1663.64   2
   5 -22  -3 13549.7 1127.43   4
  17   5  -3 22503.3 1626.03   3
  17   5  -3 17529.9 1685.27   2
 -17  22  -3 16924.6 1353.21   1
  22  -5  -3 17430.1 1456.31   3
  17   5   0 11633.5 766.947   1
  22  -5   0 11653.5 869.072   1
 -17  22   0 10021.0 1065.47   1
 -22  17   0 14934.9 1262.25   1
  17   5   0 12988.7 1543.37   3
  22  -5   0 15645.2 1610.75   3
 -17  22   3 12834.9 1039.50   2
  22  -5   3 12949.2 810.326   1
 -22  17   3 12377.6 1371.16   1
  17   5   3 14451.4 1792.45   3
 -17  22   3 14032.9 1400.33   1
  22  -5   3 12267.1 1604.82   3
 -17  22   6 1200.18 772.104   1
 -22  17   6 2096.83 974.942   1
  17   5   6 3363.72 1281.77   3
  22  -5   6 2176.85 1198.19   3
 -17  22   9 10560.7 1471.49   3
 -17  22   9 8979.64 1678.84   1
  17   5   9 7675.83 1795.39   3
  22  -5   9 10766.8 2137.47   3
   4 -22 -10 896.339 1076.51   2
  -4 -18 -10 1610.57 1000.25   2
  22  -4 -10 1839.15 1470.06   4
  18   4 -10 580.404 1107.92   4
   4 -22 -10 677.278 1158.67   4
  -4 -18 -10 467.814 936.226   4
  18   4 -10 1863.28 2069.62   2
  22  -4 -10-434.199 1407.89   2
 -18  22 -10 1206.65 953.639   1
 -22  18 -10 1165.08 693.899   1
   4 -22  -7 9079.09 1359.49   2
  18   4  -7 7982.15 1409.48   4
  18   4  -7 7753.84 1655.49   2
  22  -4  -7 6316.98 1659.93   2
   4 -22  -7 7336.98 1238.30   4
  -4 -18  -7 7787.80 1157.58   4
 -18  22  -7 9646.34 1229.52   1
 -22  18  -7 6681.51 938.275   1
  22  -4  -7 6228.30 1497.37   4
  22  -4  -4 1618.85 587.564   3
 -18  22  -4 1159.90 612.207   1
  22  -4  -4 1648.11 880.280   4
  18   4  -4 1672.88 706.357   4
 -22  18  -4 1698.44 547.460   1
  18   4  -4 605.470 779.490   2
  22  -4  -4-541.985 898.111   2
  -4 -18  -4 1728.64 476.903   1
   4 -22  -4 1903.71 655.672   4
  18   4  -4 1697.28 702.446   3
  18   4  -1 9637.14 942.926   4
  22  -4  -1 10530.3 1177.61   2
 -18  22  -1 10270.6 1084.73   1
  22  -4  -1 9700.99 1052.06   4
  18   4  -1 9269.63 867.993   1
 -22  18  -1 10438.0 1023.23   1
   4 -22  -1 8677.55 470.790   4
  18   4  -1 12280.0 1362.04   3
  18   4  -1 10349.2 1132.60   2
  22  -4  -1 10194.1 1364.02   3
 -22  18   2 12981.4 1370.05   1
  22  -4   2 10519.7 708.640   1
 -18  22   2 13243.5 1289.86   1
  18   4   2 14325.2 1636.36   3
  22  -4   2 13591.5 1648.17   3
 -22  18   5 16034.3 1745.93   1
 -18  22   5 18118.2 1773.58   1
  18   4   5 14989.1 1924.86   3
  22  -4   5 16349.7 2039.03   3
 -18  22   8 3607.79 930.038   3
 -18  22   8 3145.20 1197.13   1
  18   4   8 7392.39 1704.15   3
  22  -4   8 4332.48 1533.25   3
   3 -22  -8 15987.5 1779.24   2
  22  -3  -8 13494.2 2038.65   4
  19   3  -8 13623.2 1868.26   4
  19   3  -8 16554.6 2404.97   2
  22  -3  -8 16668.5 2417.52   2
   3 -22  -8 15532.4 1816.16   4
  -3 -19  -8 16640.5 1738.35   4
 -19  22  -8 14436.7 1533.91   1
 -22  19  -8 14500.8 1430.82   1
 -19  22  -5 3005.05 822.690   1
  22  -3  -5 443.877 413.545   3
 -22  19  -5 2600.66 654.251   1
  22  -3  -5 1920.90 960.757   4
  19   3  -5 1406.64 808.158   4
  19   3  -5 2731.28 1088.65   2
  22  -3  -5 2631.37 1198.13   2
   3 -22  -5 1789.49 719.406   4
  -3 -19  -5 2481.14 658.434   4
  19   3  -5 1879.37 648.414   3
 -19  22  -2 51384.4 2215.85   1
  19   3  -2 48000.2 2452.05   2
  22  -3  -2 46770.9 2322.19   4
  19   3  -2 50017.4 2208.27   4
  -3 -19  -2 45710.3 1984.91   1
 -22  19  -2 51380.7 2178.53   1
   3 -22  -2 48653.1 1467.57   4
  22  -3  -2 51764.9 2641.17   2
  19   3  -2 51472.5 2511.18   3
  22  -3  -2 55671.8 2615.96   3
  19   3   1 6325.94 409.274   1
 -19  22   1 8803.86 1053.40   1
 -22  19   1 10618.9 1189.70   1
  19   3   1 10163.7 1437.03   3
  22  -3   1 8580.01 1408.87   3
  22  -3   1 7489.81 626.265   1
 -19  22   4 24169.8 1917.17   1
 -22  19   4 23967.0 1994.22   1
  19   3   4 26482.3 2302.04   3
  22  -3   4 25311.0 2362.81   3
 -19  22   7 1058.93 887.894   1
 -19  22   7 1872.73 711.907   3
  19   3   7 2192.78 1501.44   3
 -22  19   7 988.352 994.675   1
  22  -3   7 1843.76 1225.16   3
   2 -22  -9 12282.2 1656.93   2
  -2 -20  -9 11367.8 1555.83   2
  22  -2  -9 12552.8 2126.41   4
  20   2  -9 10557.7 1875.29   4
  22  -2  -9 12046.7 2321.51   2
   2 -22  -9 11149.7 1631.01   4
  -2 -20  -9 12634.6 1712.00   4
  20   2  -9 12571.2 2309.72   2
 -20  22  -9 12112.5 1456.58   1
 -22  20  -9 12707.5 1446.30   1
 -22  20  -6 4858.36 826.989   1
   2 -22  -6 5606.19 962.907   2
  22  -2  -6 4041.92 1216.83   4
  20   2  -6 3952.89 1143.68   4
  20   2  -6 6145.43 1483.63   2
  22  -2  -6 6138.53 1569.68   2
   2 -22  -6 6283.10 1106.27   4
  -2 -20  -6 5153.33 956.271   4
 -20  22  -6 6015.56 1009.27   1
 -20  22  -3 17605.6 1426.60   1
 -22  20  -3 14996.7 1285.40   1
  20   2  -3 17118.5 1510.14   4
  20   2  -3 17526.4 1761.20   2
  22  -2  -3 16832.4 1745.91   2
   2 -22  -3 19538.2 1168.14   4
  22  -2  -3 15990.2 1506.75   4
  20   2  -3 18732.7 1581.88   3
  22  -2  -3 20335.9 1556.78   3
  22  -2   0 5220.91 605.362   1
 -20  22   0 6738.81 932.496   1
  20   2   0 5093.54 557.491   1
 -22  20   0 4112.44 805.633   1
  20   2   0 5553.02 1143.09   3
  22  -2   0 6465.87 1227.30   3
 -20  22   3 20384.2 1681.04   1
 -22  20   3 21440.4 1809.04   1
  20   2   3 23785.5 2160.45   3
  22  -2   3 22425.0 2120.60   3
 -20  22   6 1543.21 880.162   1
  20   2   6-808.508 1088.15   3
  22  -2   6-114.103 1165.77   3
 -22  20   6 1848.48 931.327   1
  20   2   9 11399.3 2176.71   3
  22  -2   9 6193.62 1885.62   3
   1 -22  -7 18135.1 1639.11   2
  22  -1  -7 18734.9 2246.43   4
  21   1  -7 17317.9 2432.32   2
  22  -1  -7 17912.4 2408.53   2
  21   1  -7 15131.9 1942.38   4
   1 -22  -7 18849.9 1752.25   4
  -1 -21  -7 18151.1 1678.81   4
 -21  22  -7 17466.5 1572.33   1
 -22  21  -7 18116.9 1538.80   1
  22  -1  -4 734.168 655.281   3
 -22  21  -4 1315.31 629.134   1
  22  -1  -4 1763.37 873.257   4
  21   1  -4 138.124 656.337   4
  21   1  -4 2215.42 1088.40   2
  22  -1  -4 2143.15 1083.14   2
   1 -22  -4 1381.03 577.210   4
  -1 -21  -4 2024.68 573.453   4
 -21  22  -4 718.422 515.202   1
  21   1  -4 1973.90 788.150   3
  21   1  -1 38303.3 2132.05   2
  22  -1  -1 34440.3 2062.66   2
  21   1  -1 37200.2 1841.20   4
 -22  21  -1 39041.9 1983.24   1
 -21  22  -1 37095.7 2004.45   1
  22  -1  -1 37712.5 1912.54   4
  21   1  -1 40655.5 2385.28   3
  22  -1  -1 35278.6 2285.25   3
  21   1   2 5276.07 293.650   1
  22  -1   2 6597.52 445.090   1
 -21  22   2 9000.89 1118.47   1
  21   1   2 8513.52 1408.06   3
 -22  21   2 8261.02 1147.07   1
  22  -1   2 7310.72 1386.88   3
 -21  22   5 18551.3 1924.41   1
 -22  21   5 18788.9 1917.85   1
  21   1   5 19578.6 2223.40   3
  22  -1   5 18723.5 2193.84   3
 -21  22   8 2721.50 1245.41   1
 -22  21   8 3999.16 1342.03   1
  21   1   8 1589.23 1390.82   3
  22  -1   8 2988.65 1423.09   3
  22   0  -8 37987.1 3075.43   4
  22   0  -8 45884.5 3837.78   2
   0 -22  -8 41929.3 2675.83   4
 -22  22  -8 37782.4 2282.37   1
  22   0  -5 207.487 791.072   4
  22   0  -5 497.023 559.619   3
 -22  22  -5 89.0177 519.145   1
  22   0  -5 712.261 995.826   2
   0 -22  -5-131.437 509.404   4
  22   0  -2 31187.3 2153.44   2
 -22  22  -2 30501.1 1817.80   1
  22   0  -2 28949.7 1808.94   4
  22   0  -2 32308.8 2095.52   3
 -22  22   1 761.828 634.223   1
  22   0   1 298.201 257.465   1
  22   0   1-295.992 940.891   3
 -22  22   4 18777.2 1803.51   1
  22   0   4 23670.5 2377.69   3
 -22  22   7 386.514 1066.56   1
  22   0   7 1319.67 1306.20   3
  23 -23  -8 26636.6 2880.14   4
   0  23  -8 27504.6 2420.93   1
  23 -23  -8 27353.7 2799.80   2
  23 -23  -5 921.459 936.779   4
   0  23  -5 778.036 647.549   2
   0  23  -5 780.667 814.319   1
  23 -23  -5 864.625 911.876   2
   0  23  -2 16529.6 1106.70   2
  23 -23  -2 17709.6 1642.18   4
  23 -23  -2 18559.9 1575.70   2
   0  23  -2 18137.7 1421.96   1
   0  23   1 7.11616 418.356   1
  23 -23   1 435.057 478.114   2
  23 -23   1-10.5655 485.539   4
   0  23   1 639.732 826.953   3
  23 -23   4 21955.7 2334.76   3
   0  23   4 25239.5 2206.37   3
  23 -23   4 28636.3 1205.30   2
   0  23   4 24634.7 1447.38   1
  23 -23   7-1062.04 1301.78   3
   0  23   7-239.884 969.484   3
   1  22  -9 11748.3 1825.63   1
  23 -22  -9 7578.43 1894.26   4
  22 -23  -9 9640.33 1959.54   4
  -1  23  -9 10811.6 1764.76   1
  23 -22  -9 8688.36 2014.05   2
  22 -23  -9 8835.84 1981.87   2
  23 -22  -6 2622.93 1212.65   4
  22 -23  -6 4250.16 1363.79   4
   1  22  -6 5254.25 1122.80   1
   1  22  -6 4964.45 1031.54   2
  -1  23  -6 3825.33 1037.37   1
  -1  23  -6 4338.79 922.425   2
  23 -22  -6 4514.91 1353.71   2
  22 -23  -6 4648.26 1268.35   2
  -1  23  -3 17117.8 1186.84   2
  23 -22  -3 17273.5 1830.26   4
  22 -23  -3 16119.5 1658.27   4
   1  22  -3 17155.4 1268.20   2
  23 -22  -3 14329.1 1529.88   2
  22 -23  -3 14128.3 1496.13   2
   1  22  -3 19183.0 1538.29   1
  -1  23  -3 17346.3 1463.70   1
  23 -22   0 19206.3 1563.14   4
  22 -23   0 20764.2 1510.74   4
  23 -22   0 17908.2 1317.45   2
  22 -23   0 17816.6 1236.57   2
  -1  23   0 18962.5 1825.58   3
   1  22   0 19717.2 1852.53   3
   1  22   0 19723.4 1239.70   1
  -1  23   0 19397.2 1278.34   1
  23 -22   3 14984.4 1861.27   3
  23 -22   3 15896.6 980.993   2
  -1  23   3 13353.7 1110.15   1
   1  22   3 12712.3 998.764   1
  -1  23   3 13723.1 1654.89   3
   1  22   3 13150.5 1591.19   3
  22 -23   3 14195.9 811.316   2
  23 -22   6 2567.23 1289.55   3
  22 -23   6 3298.24 1374.66   3
  -1  23   6 2324.45 682.682   1
  -1  23   6 2693.70 1112.53   3
   1  22   6 762.711 1015.90   3
   1  22   6 2524.17 695.698   1
  23 -22   9 5122.37 1716.00   3
  22 -23   9 4711.71 1758.26   3
  -1  23   9 6558.82 1624.00   3
   1  22   9 6267.89 1649.86   3
  23 -21  -7 15555.6 2079.18   4
  21 -23  -7 13453.6 1986.50   4
   2  21  -7 15978.2 1806.94   1
  -2  23  -7 16694.3 1796.85   1
   2  21  -7 14332.3 1675.33   2
  23 -21  -7 14439.7 2023.20   2
  21 -23  -7 15399.8 2081.42   2
  21 -23  -4 6790.29 1383.04   4
  23 -21  -4 5438.85 1215.54   4
   2  21  -4 5123.27 880.935   2
  -2  23  -4 6488.96 836.386   2
   2  21  -4 6688.63 1052.99   1
  -2  23  -4 5501.96 1032.32   1
  23 -21  -4 6186.39 1237.61   2
  21 -23  -4 4530.65 1091.47   2
   2  21  -1 30850.2 1446.20   2
  -2  23  -1 31899.3 1242.30   2
  23 -21  -1 29403.8 1944.34   4
  23 -21  -1 31327.8 1846.47   2
  21 -23  -1 30199.7 1602.17   2
   2  21  -1 35014.5 2347.57   3
  21 -23  -1 29078.3 1842.45   4
   2  21  -1 30998.5 1624.98   1
  -2  23  -1 30797.6 1676.08   1
  -2  23  -1 31190.2 1392.73   2
  23 -21   2 5504.81 726.946   2
  23 -21   2 8951.45 1583.09   3
  21 -23   2 8470.53 944.812   4
   2  21   2 7735.74 759.472   1
  -2  23   2 8457.26 860.080   1
  21 -23   2 7672.39 604.126   2
  -2  23   2 7263.20 1231.17   3
   2  21   2 10427.8 1408.20   3
  21 -23   2 6381.18 564.126   2
  23 -21   2 10101.7 872.059   2
  23 -21   5 20568.4 2321.03   3
  -2  23   5 26483.7 1671.13   1
   2  21   5 23219.8 1389.92   1
  -2  23   5 28790.0 2306.12   3
   2  21   5 28646.6 2403.45   3
  23 -21   8 268.063 1314.73   3
  21 -23   8 598.722 1357.96   3
  -2  23   8 2696.55 1326.57   3
   2  21   8 1683.42 1186.98   3
  23 -20  -8 2161.94 1281.47   4
  20 -23  -8 3476.58 1528.80   4
   3  20  -8 1318.62 895.837   1
  -3  23  -8 4362.79 1207.76   1
   3  20  -8 5288.85 1290.13   2
  23 -20  -8 5478.20 1596.84   2
  20 -23  -8 3013.99 1488.93   2
  20 -23  -5 3770.72 1256.19   4
  23 -20  -5 2970.97 995.097   4
   3  20  -5 2604.01 818.567   2
   3  20  -5 3501.24 935.763   1
  23 -20  -5 2987.44 1147.68   2
  -3  23  -5 3624.03 710.962   2
  -3  23  -5 2683.50 806.990   1
  20 -23  -5 2571.45 989.941   2
   3  20  -2 38193.9 1748.08   2
  20 -23  -2 31047.8 1987.41   4
  23 -20  -2 30649.2 1986.89   2
   3  20  -2 35422.7 1862.88   1
  20 -23  -2 31542.1 1810.31   2
   3  20  -2 36308.4 2368.30   3
  -3  23  -2 33903.6 1831.02   1
  -3  23  -2 32961.7 1281.60   2
  -3  23  -2 29572.9 1161.67   2
  23 -20  -2 29419.7 2004.06   4
  20 -23   1 725.780 238.792   2
  23 -20   1 2680.70 1005.95   3
  23 -20   1 1472.88 578.619   4
   3  20   1 1006.31 393.065   1
   3  20   1 1538.65 278.467   4
  23 -20   1 2891.18 661.147   2
  -3  23   1 1247.43 495.289   1
  20 -23   1 755.539 259.724   2
   3  20   1 1087.84 723.811   3
  -3  23   1 900.722 626.771   2
  20 -23   1 1170.39 531.870   4
  23 -20   4 5542.60 1402.92   3
  20 -23   4 2162.74 298.016   2
   3  20   4 3235.57 542.465   1
  -3  23   4 2051.78 987.368   3
   3  20   4 4255.11 1240.52   3
  -3  23   4 3695.20 770.387   1
  23 -20   7-168.188 1134.73   3
  -3  23   7 402.805 640.414   1
  -3  23   7-10.5702 994.750   3
   3  20   7 820.941 1076.00   3
  23 -19  -9 2272.80 1417.85   4
  19 -23  -9 3685.06 1515.10   4
   4  19  -9 5347.16 1402.94   1
  -4  23  -9 4699.38 1280.59   1
   4  19  -9 3455.06 1249.51   2
  23 -19  -9 4088.95 1630.04   2
  19 -23  -9 3628.33 1583.23   2
  23 -19  -6 25441.5 2420.04   4
   4  19  -6 23424.4 2000.27   1
  19 -23  -6 24815.6 2305.93   4
   4  19  -6 27364.4 2038.89   2
  -4  23  -6 25336.2 2004.22   1
  23 -19  -6 28038.0 2506.66   2
  -4  23  -6 21599.2 1396.79   2
  19 -23  -6 21931.9 2089.97   2
  23 -19  -3 9585.01 1340.01   4
  19 -23  -3 13062.0 1443.90   4
 -23   4  -3 12203.6 816.317   1
  23 -19  -3 12871.4 1500.35   2
   4  19  -3 13428.6 1234.23   1
  -4  23  -3 11535.1 756.536   2
   4  19  -3 12095.7 1449.02   3
  19 -23  -3 11912.6 1264.50   2
  -4  23  -3 11973.7 1217.93   1
   4  19  -3 11172.6 1170.12   2
  23 -19   0 48471.9 2746.37   3
  23 -19   0 51797.0 2293.26   4
  19 -23   0 46790.5 2052.29   4
  23 -19   0 50654.8 2140.85   2
   4  19   0 52576.4 2801.01   3
  -4  23   0 51793.0 1792.26   2
   4  19   0 46208.9 1792.84   1
  -4  23   0 49219.6 2004.88   1
  23 -19   3 8899.18 1531.93   3
  -4  23   3 6073.38 830.166   1
   4  19   3 6412.57 625.677   1
  -4  23   3 7051.25 746.664   4
  -4  23   3 7654.42 1165.70   3
   4  19   3 9465.10 1409.49   3
  -4  23   6 26482.5 2207.87   3
  -4  23   6 23379.3 1728.21   1
   4  19   6 24803.5 2381.08   3
  23 -19   9 3048.92 1640.45   3
  -4  23   9 1884.47 1301.42   3
   4  19   9 1203.29 1334.11   3
   5  18  -7 16047.4 1908.98   1
  23 -18  -7 12396.9 2004.59   4
  18 -23  -7 13591.3 1957.03   4
  -5  23  -7 13123.8 1601.49   1
   5  18  -7 14643.8 1695.10   2
  23 -18  -7 14167.2 1993.84   2
   5  18  -7 16718.5 1704.21   3
  18 -23  -7 13611.2 1823.31   2
  23 -18  -4 6489.09 1319.61   4
   5  18  -4 6055.05 1014.30   2
 -23   5  -4 4471.52 536.600   1
   5  18  -4 4764.98 917.690   1
  23 -18  -4 6112.77 1216.29   2
   5  18  -4 6206.35 1096.51   3
  -5  23  -4 4925.15 526.206   2
  -5  23  -4 4681.94 913.512   1
  18 -23  -4 3168.64 837.410   2
  18 -23  -4 3814.27 991.519   4
  23 -18  -1 36752.4 2185.08   4
  -5  23  -1 41329.5 1098.60   2
  18 -23  -1 42897.7 2090.49   4
  23 -18  -1 49084.0 2292.27   2
   5  18  -1 43867.1 1862.42   1
   5  18  -1 51108.3 2740.84   3
  18 -23  -1 42144.6 1576.46   2
 -23   5  -1 42862.7 1854.95   1
  -5  23  -1 38131.0 1232.70   2
  -5  23  -1 44886.6 2003.25   1
  23 -18   2 9515.46 1501.38   3
  18 -23   2 12582.8 1030.39   4
  23 -18   2 12662.4 1005.33   2
  -5  23   2 11194.1 681.595   4
   5  18   2 11362.5 776.406   1
  -5  23   2 13729.4 1111.37   1
   5  18   2 12418.1 1050.85   4
  -5  23   2 10906.4 1170.80   2
   5  18   2 11494.8 1507.01   3
   5  18   5 28943.2 1316.98   1
  23 -18   5 25692.8 2406.20   3
  -5  23   5 27841.5 1819.09   1
  -5  23   5 32837.8 2322.29   3
   5  18   5 35719.9 2705.73   3
  23 -18   8 2436.57 1381.77   3
  -5  23   8 1774.30 867.535   1
  -5  23   8 593.455 957.557   3
   5  18   8 396.695 1158.48   3
  23 -17  -8 3299.44 1394.90   4
   6  17  -8 4905.42 1436.01   1
  17 -23  -8 1958.30 1411.85   4
   6  17  -8 3767.75 1403.92   2
  -6  23  -8 2347.80 921.043   1
  23 -17  -8 1933.86 1318.55   2
  17 -23  -8 2303.94 1260.88   2
   6  17  -5 6404.42 1136.72   1
  23 -17  -5 5039.53 1153.53   4
  17 -23  -5 7103.89 1275.01   4
   6  17  -5 7129.89 1138.96   2
   6  17  -5 6612.74 634.713   4
  -6  23  -5 6853.64 1064.70   1
  23 -17  -5 5853.59 1363.58   2
   6  17  -5 7904.17 1154.19   3
  -6  23  -5 5578.62 570.341   2
 -23   6  -5 7273.43 630.586   1
  17 -23  -5 6018.67 1172.32   2
  23 -17  -2 3411.67 811.470   4
   6  17  -2 3865.31 704.413   2
  17 -23  -2 4291.11 869.124   4
  23 -17  -2 1448.47 699.627   2
   6  17  -2 3743.55 644.989   1
   6  17  -2 3707.43 943.039   3
 -23   6  -2 4418.31 637.526   1
  -6  23  -2 4928.40 832.764   1
  17 -23  -2 3389.90 673.421   2
  -6  23   1 3767.50 674.482   1
  23 -17   1 4438.80 1088.48   3
  17 -23   1 4910.56 684.069   4
  23 -17   1 4827.36 827.057   4
 -23   6   1 5104.71 866.503   1
   6  17   1 5540.88 680.109   4
  -6  23   1 3889.36 707.136   2
   6  17   1 4967.66 1089.11   3
  23 -17   1 4989.26 790.696   2
   6  17   1 4003.10 479.949   1
  23 -17   4 10625.4 1674.94   3
   6  17   4 10167.7 708.606   1
  -6  23   4 12551.1 1466.92   3
 -23   6   4 8253.83 938.406   3
  -6  23   4 8380.79 1046.05   1
  23 -17   7 4119.56 1482.26   3
  -6  23   7 6331.21 1307.67   3
   6  17   7 5782.87 1518.26   3
  -6  23   7 5430.46 1055.41   1
  23 -16  -9 7858.34 1903.69   4
  16 -23  -9 8596.94 1923.18   4
  -7  23  -9 5598.68 1301.77   1
   7  16  -9 6713.33 1590.05   2
  23 -16  -9 7108.86 1835.37   2
   7  16  -9 9308.22 1824.98   1
  16 -23  -9 5615.69 1562.99   2
   7  16  -6 65859.4 3325.60   1
  23 -16  -6 67709.2 3863.80   4
  16 -23  -6 62090.9 3458.74   4
 -23   7  -6 61434.1 1711.50   1
   7  16  -6 63831.3 3164.65   2
   7  16  -6 63447.6 2281.42   4
  23 -16  -6 61653.5 3600.48   2
  -7  23  -6 57303.9 2849.61   1
  16 -23  -6 62425.6 3147.58   2
   7  16  -3 1804.74 688.866   2
  23 -16  -3 2582.90 906.264   4
  16 -23  -3 2659.35 847.808   4
   7  16  -3 1434.52 298.614   4
  23 -16  -3 2451.84 933.201   2
   7  16  -3 1747.38 648.442   1
   7  16  -3 2394.02 776.443   3
 -23   7  -3 1231.96 445.051   1
  16 -23  -3 1031.56 636.084   2
  -7  23  -3 2075.60 707.862   1
  -7  23   0 49328.5 2016.26   1
 -23   7   0 50597.7 2201.45   1
  23 -16   0 44630.6 2607.20   3
   7  16   0 47796.8 1102.61   4
  23 -16   0 41658.2 2142.31   4
  16 -23   0 43763.4 1851.87   4
  23 -16   0 47430.0 2127.06   2
   7  16   0 45548.5 1433.86   4
  -7  23   0 44335.6 1263.67   2
   7  16   0 45813.1 2504.92   3
   7  16   0 48652.9 1609.23   1
  23 -16   3 249.464 1015.10   3
  -7  23   3 1137.49 478.870   4
   7  16   3 529.020 857.106   3
   7  16   3 685.151 280.584   1
  -7  23   3 942.059 562.115   1
  23 -16   6 26923.8 2568.00   3
  -7  23   6 23966.5 1863.75   1
  -7  23   6 24587.8 2048.63   3
  23 -16   9 1270.43 1340.07   3
  -7  23   9-9.44130 1062.84   3
   7  16   9-1677.71 1332.51   3
   8  15 -10 828.168 1321.33   1
  23 -15 -10-35.2161 1285.78   4
  15 -23 -10 832.706 1270.85   4
  -8  23 -10 2110.57 1069.69   1
   8  15 -10 1629.81 1211.47   2
  23 -15 -10-1207.07 1478.01   2
  15 -23 -10 2449.95 1334.26   2
 -23   8  -7 21186.6 1119.67   1
  23 -15  -7 21502.5 2376.95   4
  15 -23  -7 22199.7 2401.17   4
   8  15  -7 18619.7 1527.13   4
   8  15  -7 20902.7 2029.03   2
  -8  23  -7 22524.4 1932.57   1
  23 -15  -7 20334.5 2424.46   2
   8  15  -7 23356.6 1665.38   3
   8  15  -7 25232.7 2380.48   1
  15 -23  -7 21246.4 2064.98   2
  23 -15  -4 28818.4 2289.86   4
   8  15  -4 29007.2 1933.98   2
  15 -23  -4 28208.2 2056.02   4
   8  15  -4 27305.0 1299.16   4
  23 -15  -4 27952.2 2237.11   2
   8  15  -4 31610.5 1975.03   3
  -8  23  -4 30508.4 1938.01   1
 -23   8  -4 26266.2 1252.22   1
  15 -23  -4 27193.9 1785.85   2
   8  15  -4 31254.3 2016.73   1
  23 -15  -1 38226.5 2356.63   3
  23 -15  -1 38706.1 2092.45   4
   8  15  -1 41749.7 1143.61   4
  15 -23  -1 42730.8 1985.55   4
  23 -15  -1 42054.7 2198.98   2
   8  15  -1 44665.8 1789.65   1
 -23   8  -1 42995.4 1905.53   1
   8  15  -1 42681.0 1294.62   4
   8  15  -1 45018.0 2446.84   3
  15 -23  -1 34444.8 1093.19   2
  -8  23  -1 43276.1 1971.57   1
  23 -15   2 2245.70 1178.61   3
  -8  23   2 1918.84 408.748   4
  15 -23   2 2123.43 457.349   4
   8  15   2 1749.30 622.878   4
  -8  23   2 2400.22 629.940   2
   8  15   2 2763.20 331.700   1
  -8  23   2 2155.59 620.279   1
   8  15   2 2474.09 945.299   3
 -23   8   2 2780.96 798.514   1
  23 -15   5 26526.9 2397.30   3
  -8  23   5 31616.2 2040.37   1
  -8  23   5 30265.8 2098.83   3
   8  15   5 31866.9 2548.86   3
  23 -15   8 8500.09 1752.95   3
  -8  23   8 10812.0 1550.06   3
   8  15   8 13405.6 2059.31   3
  -8  23   8 12394.5 1595.19   1
   9  14  -8 2475.52 1097.48   1
  23 -14  -8 3013.11 1325.91   4
  14 -23  -8 3746.04 1406.40   4
   9  14  -8 4417.07 1005.06   4
   9  14  -8 3779.42 1248.48   2
  23 -14  -8 4333.75 1544.77   2
  -9  23  -8 4188.18 1103.62   1
  14 -23  -8 5953.27 1409.60   2
 -23   9  -8 3478.67 588.600   1
   9  14  -5 6714.36 1209.58   1
  23 -14  -5 6396.55 1351.98   4
   9  14  -5 7463.43 1208.54   2
  14 -23  -5 7331.60 1312.52   4
 -23   9  -5 5391.89 640.145   1
   9  14  -5 6940.72 906.911   4
  23 -14  -5 6123.90 1408.99   2
   9  14  -5 6061.39 1012.43   3
  -9  23  -5 5207.51 941.768   1
  14 -23  -5 4549.54 964.284   2
 -23   9  -2 5098.79 694.934   1
  23 -14  -2 6515.49 1103.61   3
   9  14  -2 4382.59 797.064   2
  23 -14  -2 3471.21 848.367   4
   9  14  -2 5081.27 534.544   4
  23 -14  -2 6558.87 1091.96   2
   9  14  -2 4416.43 729.522   1
  14 -23  -2 4106.63 807.480   4
   9  14  -2 4750.84 916.853   3
  -9  23  -2 4176.23 764.199   1
  14 -23  -2 5298.36 675.477   2
  23 -14   1 19229.8 1900.71   3
 -23   9   1 22183.9 1622.05   1
  14 -23   1 20759.1 1152.19   4
  -9  23   1 20648.3 1013.09   2
   9  14   1 20929.1 1296.42   4
  23 -14   1 19141.8 1338.94   2
   9  14   1 22996.9 1863.16   3
   9  14   1 22626.0 919.118   1
  -9  23   1 22216.4 1427.94   1
  23 -14   4 3357.26 1126.41   3
  -9  23   4 4236.84 853.082   1
   9  14   4 5971.93 1306.65   3
 -23   9   4 2938.11 747.624   3
  23 -14   7 11446.2 1787.46   3
  -9  23   7 12426.8 1501.50   1
  -9  23   7 13886.1 1593.14   3
   9  14   7 15726.1 2052.14   3
  23 -14  10-351.455 1348.84   3
  -9  23  10 2445.76 1272.62   3
   9  14  10 1056.45 1483.01   3
  10  13  -9 346.116 1105.59   1
  23 -13  -9 4258.83 1602.82   4
  13 -23  -9 3224.08 1273.30   4
  10  13  -9 2846.58 1027.67   4
  10  13  -9 3173.35 1355.74   2
  23 -13  -9 3392.72 1601.08   2
 -10  23  -9 859.808 905.958   1
  13 -23  -9 1909.48 1128.96   2
 -23  10  -6 35831.9 1519.47   1
  10  13  -6 35832.3 2564.34   1
  23 -13  -6 37572.7 2837.74   4
  13 -23  -6 33135.3 2478.22   4
  10  13  -6 33231.9 2528.67   2
  10  13  -6 37193.0 2036.08   4
  23 -13  -6 31897.6 2687.80   2
 -10  23  -6 28813.6 2040.14   1
  10  13  -6 39660.2 1977.02   3
  13 -23  -6 33414.9 2275.62   2
  10  13  -3 4926.39 900.382   1
  23 -13  -3 3522.10 957.875   4
  10  13  -3 3241.41 783.068   2
  10  13  -3 3615.10 560.060   4
  13 -23  -3 3353.73 864.541   4
  23 -13  -3 5233.62 1130.11   2
 -23  10  -3 5026.97 669.431   1
  10  13  -3 2931.19 772.296   3
 -10  23  -3 4562.45 841.774   1
  13 -23  -3 3162.00 640.185   2
  23 -13   0 32410.5 2202.64   3
 -10  23   0 35782.4 1794.04   1
  23 -13   0 32389.2 1791.77   4
  13 -23   0 35508.1 1579.78   4
  23 -13   0 34731.7 1890.61   2
 -23  10   0 35712.0 1889.86   1
  10  13   0 35249.1 1510.56   4
  10  13   0 34038.4 1324.23   1
  10  13   0 36126.4 2246.15   3
  23 -13   3 4303.12 1129.72   3
 -10  23   3 4443.85 881.696   2
  13 -23   3 4652.58 666.082   4
 -23  10   3 4771.74 997.994   1
 -10  23   3 6054.07 953.027   1
  13 -23   3 6546.25 612.201   4
  10  13   3 5939.48 1152.58   3
 -10  23   6 21641.2 1885.57   1
 -10  23   6 19623.1 1770.45   3
  23 -13   6 17422.7 2077.93   3
  23 -13   9 135.733 1207.22   3
 -10  23   9 2641.19 1043.32   3
  10  13   9 2802.00 1563.66   3
  23 -12 -10 560.106 1393.60   4
  12 -23 -10 602.904 1257.31   4
  11  12 -10 1063.43 1136.86   4
  11  12 -10 2651.56 1500.58   2
 -11  23 -10 1105.87 969.196   1
  23 -12 -10-900.345 1524.93   2
  12 -23 -10 2542.43 1288.49   2
  23 -12  -7 33473.0 2873.96   4
  11  12  -7 32200.9 2136.17   4
  12 -23  -7 40135.4 2893.24   4
  11  12  -7 36753.3 2823.78   2
  23 -12  -7 33513.5 2876.29   2
 -11  23  -7 33530.7 2286.04   1
  12 -23  -7 33917.6 2364.00   2
 -23  11  -7 32587.7 1516.34   1
  11  12  -4 9152.19 1233.62   1
  23 -12  -4 5222.44 1113.10   4
  12 -23  -4 5298.51 1053.84   4
  11  12  -4 8363.19 917.371   4
  23 -12  -4 9363.63 1385.77   2
 -23  11  -4 7559.96 773.279   1
  11  12  -4 7997.34 1060.67   3
 -11  23  -4 6449.96 1004.97   1
  11  12  -4 6709.73 1107.05   2
  12 -23  -4 6579.53 950.574   2
 -23  11  -1 48982.1 2068.99   1
  23 -12  -1 49266.7 2548.65   3
  11  12  -1 49400.3 1505.98   4
  23 -12  -1 52800.6 2417.31   2
  12 -23  -1 47126.6 1957.13   4
  11  12  -1 48654.0 1850.43   1
  23 -12  -1 47251.1 2223.74   4
  11  12  -1 52405.1 2586.13   3
 -11  23  -1 47858.0 2072.02   1
 -11  23   2 37443.1 1576.00   2
  11  12   2 32087.6 730.855   1
 -11  23   2 39777.9 1967.59   1
  12 -23   2 34653.9 1285.28   4
  11  12   2 44715.4 2637.07   3
  12 -23   2 38976.5 1296.11   4
  23 -12   2 35579.7 2515.60   3
 -23  11   2 40730.5 2306.49   1
 -11  23   5 23515.9 1868.92   1
 -11  23   5 23298.4 1776.44   3
 -23  11   5 24816.0 2111.74   1
  11  12   5 27551.4 2344.51   3
  23 -12   5 23289.7 2363.82   3
  23 -12   8 3458.23 1458.91   3
 -11  23   8 6238.96 1275.45   1
 -11  23   8 5207.81 1187.52   3
  11  12   8 6993.83 1627.15   3
  23 -11  -8 5244.22 1475.73   4
  12  11  -8 4563.63 1079.20   4
  11 -23  -8 4897.95 1303.01   4
  12  11  -8 5620.43 1568.14   2
  23 -11  -8 4766.74 1459.66   2
 -12  23  -8 4465.75 1072.62   1
 -23  12  -8 5200.37 770.129   1
  11 -23  -8 3939.58 1248.08   2
  12  11  -5 31903.1 2368.39   2
 -23  12  -5 30964.0 1486.42   1
  23 -11  -5 32459.7 2532.88   4
  12  11  -5 30295.2 1848.18   4
  11 -23  -5 32301.9 2263.53   4
  23 -11  -5 26416.6 2414.10   2
 -12  23  -5 29288.7 1943.03   1
  12  11  -5 34715.6 1908.46   3
  11 -23  -5 30592.7 1907.07   2
  11 -23  -2 37621.8 1314.91   2
  23 -11  -2 36637.7 2134.01   3
  12  11  -2 38042.1 1855.69   1
  23 -11  -2 35353.8 2121.60   4
  12  11  -2 35356.7 1941.01   2
  12  11  -2 37816.8 1496.23   4
  23 -11  -2 34034.7 2222.60   2
  11 -23  -2 32851.4 1786.00   4
 -23  12  -2 37620.9 1724.90   1
  12  11  -2 37694.3 2173.39   3
 -12  23  -2 38423.7 1923.14   1
  11 -23   1 52339.9 1593.29   4
 -12  23   1 55727.8 2275.38   1
 -23  12   1 53239.9 2448.09   1
  12  11   1 48868.5 2003.36   4
  12  11   1 46962.5 1124.71   1
  12  11   1 52795.7 2744.56   3
  23 -11   1 50846.3 2781.22   3
  23 -11   4 7871.11 1484.10   3
  11 -23   4 7424.35 823.610   4
 -23  12   4 6892.38 1257.77   1
  12  11   4 9900.70 1564.31   3
 -23  12   4 5746.61 983.245   3
 -12  23   4 8011.15 1083.63   1
 -12  23   7 31583.6 2441.92   1
 -12  23   7 30166.4 2123.02   3
  12  11   7 31156.5 2872.25   3
  23 -11   7 27086.3 2606.21   3
  23 -11  10 1178.75 1524.91   3
 -12  23  10 1795.02 1099.13   3
  12  11  10 1991.39 1799.19   3
  10 -23  -9 1414.41 1096.82   2
 -23  13  -9 2836.77 729.452   1
  23 -10  -9 1908.22 1426.34   4
  13  10  -9 2097.81 1139.23   4
  10 -23  -9 1827.86 1156.02   4
  13  10  -9-110.524 1217.75   2
  23 -10  -9 2049.61 1420.55   2
 -13  23  -9 730.186 886.947   1
 -23  13  -6 26637.3 1434.12   1
  23 -10  -6 24681.3 2409.65   4
  13  10  -6 24681.5 1852.94   4
  13  10  -6 23140.0 2229.50   2
  10 -23  -6 28687.2 2276.11   4
  23 -10  -6 25901.3 2462.99   2
 -13  23  -6 25573.1 1924.14   1
  13  10  -6 28723.2 1632.95   3
  10 -23  -6 25080.4 1908.43   2
 -13  23  -3 3471.70 778.833   1
  23 -10  -3 6664.32 991.770   3
  10 -23  -3 3876.92 619.496   2
  13  10  -3 4746.07 741.262   4
  23 -10  -3 4109.47 1112.90   2
  10 -23  -3 3912.92 825.991   4
 -23  13  -3 4471.42 698.290   1
  13  10  -3 6069.96 983.704   3
  13  10  -3 3478.78 916.569   2
  23 -10  -3 3345.74 1005.02   4
 -23  13   0 32480.7 1802.91   1
 -13  23   0 35060.4 1797.62   1
  23 -10   0 32689.4 1800.78   4
  23 -10   0 31137.3 1754.61   2
  10 -23   0 30591.9 1274.25   4
  13  10   0 31450.3 1224.22   1
  13  10   0 29429.3 1441.37   4
  13  10   0 29221.0 2042.99   3
  23 -10   0 30561.3 2116.56   3
  23 -10   3 3656.29 1162.36   3
 -13  23   3 3681.92 861.895   1
  10 -23   3 3339.82 362.645   4
 -13  23   3 3058.30 717.453   2
  10 -23   3 2799.87 465.365   4
 -23  13   3 2504.53 822.500   1
  13  10   3 3572.97 1097.63   3
 -13  23   6 31112.7 2052.78   3
 -13  23   6 33541.3 2389.61   1
  23 -10   6 34202.1 2768.69   3
  23 -10   9 2320.20 1396.85   3
 -13  23   9 2154.20 1100.06   1
 -13  23   9 2694.03 1169.89   3
  13  10   9 4472.21 1569.38   3
   9 -23 -10 2129.06 1153.86   2
  23  -9 -10 1869.21 1476.34   4
  14   9 -10 1923.49 1227.27   4
   9 -23 -10 2198.81 1293.03   4
  -9 -14 -10 1669.56 900.901   4
  14   9 -10 3128.93 1575.59   2
  23  -9 -10-816.081 1482.55   2
 -14  23 -10 1685.61 1017.43   1
 -23  14 -10 2280.28 752.268   1
  23  -9  -7 14977.4 2062.51   4
  14   9  -7 11437.1 1446.96   4
  14   9  -7 13965.1 2024.32   2
   9 -23  -7 12360.6 1673.87   4
  23  -9  -7 11746.8 1876.07   2
 -14  23  -7 12583.2 1462.37   1
 -23  14  -7 10653.8 1023.15   1
   9 -23  -7 10092.2 1388.75   2
   9 -23  -4 2946.40 678.737   2
  23  -9  -4 2425.89 656.535   3
 -23  14  -4 3926.03 643.111   1
  23  -9  -4 2164.88 891.096   4
  14   9  -4 4140.85 799.022   4
  14   9  -4 4568.39 1107.36   2
  23  -9  -4 3568.67 1131.16   2
   9 -23  -4 2499.27 854.210   4
  14   9  -4 5129.87 988.237   3
 -14  23  -4 3629.57 814.742   1
 -14  23  -1 23124.4 1514.64   1
  14   9  -1 21555.8 1163.45   4
  23  -9  -1 21882.2 1618.29   2
  23  -9  -1 23291.9 1651.62   4
   9 -23  -1 22846.6 1225.16   4
  14   9  -1 22283.4 1355.84   1
  14   9  -1 24941.3 1861.45   3
 -23  14  -1 22196.4 1409.22   1
  14   9  -1 23183.2 1358.51   1
  23  -9  -1 22302.1 1805.09   3
  23  -9   2 3693.08 1039.75   3
   9 -23   2 3006.71 316.296   4
 -14  23   2 3104.93 490.419   2
 -23  14   2 3352.22 839.627   1
   9 -23   2 2754.27 319.867   4
 -14  23   2 4267.61 825.533   1
  14   9   2 5065.22 1100.67   3
 -14  23   5 4979.64 1011.87   1
  14   9   5 6819.64 1468.25   3
 -23  14   5 6318.55 1273.20   1
  23  -9   5 8876.75 1648.52   3
  23  -9   8 2050.60 1366.58   3
 -14  23   8 1957.40 1123.90   1
 -14  23   8 2766.11 1017.28   3
  14   9   8 3994.56 1496.65   3
  23  -8  -8 9636.73 1940.75   4
  15   8  -8 13081.2 1693.61   4
  15   8  -8 13152.5 2055.71   2
   8 -23  -8 12299.8 1848.67   4
  23  -8  -8 13165.5 2228.68   2
  -8 -15  -8 11026.4 1386.33   4
 -15  23  -8 10547.2 1395.20   1
 -23  15  -8 9679.46 1053.71   1
   8 -23  -8 11547.8 1559.06   2
  23  -8  -5 33168.4 2564.41   4
 -23  15  -5 31636.3 1627.42   1
  15   8  -5 33157.7 2042.42   4
  15   8  -5 36681.7 2726.75   2
  23  -8  -5 35091.4 2640.51   2
   8 -23  -5 32937.0 2204.25   4
 -15  23  -5 32932.0 2012.13   1
  15   8  -5 37533.0 1885.29   3
   8 -23  -5 32824.1 1877.20   2
  23  -8  -2 1140.92 722.395   2
  23  -8  -2 1219.44 684.440   3
 -15  23  -2 1836.11 568.618   1
  23  -8  -2 2080.75 703.210   4
  15   8  -2 1487.98 673.766   2
  15   8  -2 1405.50 528.538   4
   8 -23  -2 1314.65 521.895   4
  15   8  -2 888.733 773.457   3
 -23  15  -2 2000.46 517.761   1
  15   8   1 43012.6 1020.06   1
 -23  15   1 50959.1 2410.22   1
 -15  23   1 54490.7 2294.81   1
  15   8   1 50604.3 2709.97   3
  23  -8   1 46098.1 2647.33   3
 -15  23   4 27161.1 1953.77   1
 -23  15   4 29453.0 2238.67   1
   8 -23   4 24687.9 722.071   4
   8 -23   4 24304.4 897.263   4
  15   8   4 29916.0 2543.65   3
  23  -8   4 22737.9 2177.95   3
 -15  23   7 23944.7 2220.53   1
 -15  23   7 19706.7 1695.09   3
  15   8   7 23494.2 2427.17   3
  23  -8   7 16776.4 2262.96   3
  23  -8  10 1266.77 1419.11   3
  15   8  10 2001.53 1673.03   3
 -23  16  -9 1078.39 649.912   1
   7 -23  -9 1123.16 966.969   2
  23  -7  -9 39.7071 1186.39   4
  16   7  -9-467.608 1057.22   4
   7 -23  -9 450.985 1040.60   4
  16   7  -9-2063.68 1408.50   2
  -7 -16  -9 391.895 784.818   4
  23  -7  -9 800.458 1320.63   2
 -16  23  -9 237.252 791.417   1
   7 -23  -6 24246.4 1781.27   2
  23  -7  -6 22251.4 2330.19   4
  16   7  -6 22914.1 1896.42   4
  16   7  -6 24867.6 2418.44   2
  23  -7  -6 20630.6 2362.63   2
   7 -23  -6 21142.8 1851.12   4
 -16  23  -6 22970.4 1745.95   1
 -23  16  -6 23934.6 1487.35   1
  16   7  -3 1226.31 587.317   4
  23  -7  -3 492.188 632.268   3
 -16  23  -3 461.880 452.736   1
  16   7  -3 2082.92 873.796   2
  23  -7  -3 1023.74 713.319   4
  23  -7  -3 1013.96 883.922   2
   7 -23  -3 682.859 621.268   4
 -23  16  -3 518.185 420.219   1
  16   7  -3 149.715 604.167   3
  16   7   0 51649.8 1667.44   1
  23  -7   0 48840.5 2225.46   2
 -16  23   0 55377.0 2324.71   1
  16   7   0 45263.9 1510.79   1
  16   7   0 50657.1 2673.36   3
 -23  16   0 52893.4 2281.91   1
  23  -7   0 48937.1 2644.98   3
 -16  23   3 1648.84 681.473   1
 -16  23   3 1297.40 555.791   2
  23  -7   3 1740.34 478.187   1
 -23  16   3 2712.95 773.881   1
  16   7   3 2930.99 1119.46   3
  23  -7   3 2257.48 978.289   3
 -23  16   6 59334.6 3398.60   1
 -16  23   6 63854.0 3358.26   1
  16   7   6 59209.2 3681.62   3
  23  -7   6 53910.2 3579.73   3
  23  -7   9 3566.29 1635.83   3
 -16  23   9 5464.27 1219.21   3
  16   7   9 8660.87 1916.29   3
 -16  23   9 7207.19 1646.66   1
   6 -23  -7 3755.36 993.971   2
  23  -6  -7 8947.69 1713.24   4
  17   6  -7 5396.74 1163.62   4
  17   6  -7 8921.41 1690.30   2
   6 -23  -7 4184.75 1075.74   4
  23  -6  -7 6881.96 1693.46   2
  -6 -17  -7 3402.44 870.738   4
 -17  23  -7 5581.70 1049.10   1
 -23  17  -7 6002.48 898.318   1
  23  -6  -4 9752.27 1044.29   3
   6 -23  -4 10672.2 1055.37   2
 -23  17  -4 10107.4 1006.16   1
  17   6  -4 10650.6 1238.37   4
  17   6  -4 13076.9 1671.59   2
  23  -6  -4 12857.0 1665.43   2
   6 -23  -4 11176.7 1240.04   4
  23  -6  -4 10185.3 1510.77   4
  17   6  -4 14843.2 1315.52   3
 -17  23  -4 12037.7 1222.95   1
  23  -6  -1 2783.84 935.641   3
  23  -6  -1 1750.41 625.005   4
  17   6  -1 2421.76 555.548   4
  23  -6  -1 2720.45 804.400   2
 -17  23  -1 1237.29 547.873   1
   6 -23  -1 1689.57 330.697   4
  17   6  -1 1468.72 497.754   1
  17   6  -1 4012.26 1002.60   3
 -23  17  -1 3536.70 728.732   1
 -17  23   2 3409.08 483.738   2
  23  -6   2 3583.42 545.728   1
 -17  23   2 4103.18 853.540   1
  17   6   2 6091.22 1336.33   3
 -23  17   2 3403.77 853.906   1
  23  -6   2 6113.01 1244.25   3
 -23  17   5 8104.05 1408.07   1
 -17  23   5 6584.97 1258.76   1
  17   6   5 7504.48 1502.95   3
  23  -6   5 7964.28 1551.74   3
  23  -6   8 516.958 1260.32   3
 -17  23   8 3349.34 981.393   3
 -17  23   8 2642.43 1184.37   1
  17   6   8 1844.33 1246.38   3
 -23  18  -8 1312.25 670.956   1
   5 -23  -8 610.650 832.101   2
  23  -5  -8 1829.90 1196.61   4
  18   5  -8 1648.06 1078.31   4
   5 -23  -8 1863.15 996.773   4
  18   5  -8 1343.49 1314.45   2
  23  -5  -8 2046.23 1379.70   2
  -5 -18  -8 328.615 763.431   4
 -18  23  -8 371.224 702.556   1
 -23  18  -5 32584.8 1751.66   1
   5 -23  -5 35608.9 1905.91   2
  23  -5  -5 31576.3 2505.55   4
  18   5  -5 29633.5 2098.32   4
  18   5  -5 35972.5 2728.34   2
  23  -5  -5 35862.1 2765.03   2
   5 -23  -5 31982.8 2083.73   4
 -18  23  -5 36187.0 2072.57   1
  18   5  -5 27153.7 1783.08   3
 -18  23  -2 11848.5 1149.05   1
  18   5  -2 13062.4 1352.74   2
  23  -5  -2 10535.3 1286.79   4
  18   5  -2 11705.7 1130.37   4
  23  -5  -2 13112.2 1413.39   2
 -23  18  -2 12013.5 1122.44   1
   5 -23  -2 12433.8 882.874   4
  18   5  -2 14442.0 1440.26   3
  23  -5  -2 12948.8 1438.62   3
  18   5   1 36347.9 1028.58   1
 -18  23   1 38685.1 2021.60   1
  18   5   1 41774.8 2607.33   3
  23  -5   1 34696.1 1343.64   1
 -23  18   1 42881.2 2239.65   1
  23  -5   1 40143.2 2505.64   3
 -18  23   4 3331.87 948.202   1
  18   5   4 4818.28 1262.51   3
 -23  18   4 4202.77 1052.32   1
  23  -5   4 2873.89 1252.97   3
 -18  23   7 19978.3 2151.01   1
 -23  18   7 14925.9 1900.64   1
 -18  23   7 14139.8 1440.68   3
  18   5   7 21562.7 2489.46   3
  23  -5   7 17092.1 2356.96   3
   4 -23  -9 2854.52 1094.01   2
  23  -4  -9 2324.82 1496.11   4
  19   4  -9 2553.71 1310.07   4
   4 -23  -9 2859.91 1235.49   4
  19   4  -9 2977.23 1552.00   2
  23  -4  -9 2354.58 1672.95   2
  -4 -19  -9 1779.31 1054.05   4
 -19  23  -9 2351.35 933.612   1
 -23  19  -9 3681.50 900.499   1
   4 -23  -6 24971.1 1783.22   2
  23  -4  -6 22175.4 2297.19   4
  19   4  -6 24086.5 2081.12   4
  19   4  -6 20754.8 2358.32   2
  23  -4  -6 19582.5 2330.68   2
   4 -23  -6 24644.2 1953.26   4
  -4 -19  -6 24591.2 1699.63   4
 -19  23  -6 21565.8 1678.00   1
 -23  19  -6 22082.7 1548.09   1
  -4 -19  -3 7659.55 863.128   1
  23  -4  -3 7586.23 1178.76   4
  19   4  -3 12644.8 1507.73   2
  19   4  -3 8147.58 1101.92   4
  23  -4  -3 10437.4 1391.21   2
   4 -23  -3 9786.10 915.908   4
 -23  19  -3 8205.56 1041.05   1
  19   4  -3 9925.98 1221.50   3
  23  -4  -3 9474.07 1214.00   3
 -19  23  -3 7696.62 979.753   1
  23  -4   0 41326.5 1546.00   1
 -19  23   0 55620.0 2391.66   1
 -23  19   0 51276.2 2317.62   1
  19   4   0 45877.3 1412.96   1
  19   4   0 55053.9 2846.39   3
  23  -4   0 49610.0 2775.56   3
 -23  19   3 12119.3 1403.08   1
  19   4   3 14373.3 1877.43   3
  23  -4   3 14932.3 1838.69   3
 -19  23   3 13412.4 1425.84   1
 -23  19   6 25798.2 2382.02   1
 -19  23   6 26661.7 2350.45   1
  19   4   6 25648.7 2495.01   3
  23  -4   6 25359.8 2566.05   3
 -19  23   9 6657.67 1625.71   1
  19   4   9 6766.26 1894.50   3
  23  -4   9 5015.82 1781.51   3
 -23  20  -7-677.384 637.233   1
   3 -23  -7 510.500 741.490   2
  23  -3  -7 165.950 1029.54   4
  20   3  -7 1099.31 1267.99   2
  20   3  -7 901.856 855.454   4
   3 -23  -7-298.472 800.243   4
  -3 -20  -7 155.804 640.647   4
 -20  23  -7 1905.20 798.244   1
 -23  20  -4 5489.31 907.079   1
 -20  23  -4 3476.88 809.229   1
  23  -3  -4 5750.53 1297.68   4
  20   3  -4 6260.32 1084.09   4
  20   3  -4 4164.59 1074.32   2
  23  -3  -4 4563.97 1321.96   2
   3 -23  -4 5330.63 847.968   4
  20   3  -4 5699.47 983.409   3
  23  -3  -4 7505.58 999.965   3
  23  -3  -1 1415.47 627.340   4
  20   3  -1 1364.84 746.114   2
  23  -3  -1 1257.07 649.232   2
  20   3  -1 1776.70 597.728   4
  20   3  -1 1419.77 488.660   1
 -20  23  -1 1273.31 568.602   1
 -23  20  -1 2438.14 687.451   1
  20   3  -1 453.124 858.790   3
  23  -3  -1 2537.17 880.033   3
 -23  20   2 29240.4 1988.26   1
 -20  23   2 30058.3 1986.24   1
  20   3   2 29977.2 2361.55   3
  23  -3   2 35177.1 2521.19   3
 -23  20   5 4619.87 1109.25   1
 -20  23   5 4180.83 1092.62   1
  20   3   5 5350.85 1367.17   3
  23  -3   5 4452.32 1309.33   3
 -23  20   8 3676.80 1248.15   1
 -20  23   8 1354.59 763.178   3
 -20  23   8 4528.59 1491.69   1
  20   3   8 2846.75 1673.69   3
  23  -3   8 2907.53 1677.23   3
 -23  21  -8 2092.82 767.527   1
   2 -23  -8 778.271 800.403   2
  21   2  -8 1711.37 1163.81   4
  23  -2  -8 3607.51 1394.57   4
  21   2  -8 427.944 1406.90   2
  23  -2  -8 3510.45 1771.55   2
   2 -23  -8 1539.29 948.238   4
  -2 -21  -8 1873.61 921.131   4
 -21  23  -8 2521.44 866.673   1
  23  -2  -5 29980.2 2514.19   4
  21   2  -5 26394.8 2153.67   4
  21   2  -5 27970.2 2549.62   2
  23  -2  -5 30744.6 2721.94   2
   2 -23  -5 25129.5 1692.46   4
  -2 -21  -5 30269.5 1727.45   4
 -21  23  -5 29699.8 1879.25   1
  21   2  -5 30278.9 1650.84   3
 -23  21  -5 25856.0 1719.91   1
 -21  23  -2 10016.4 1107.79   1
  23  -2  -2 9180.25 1130.58   4
  21   2  -2 9697.53 1263.68   2
  21   2  -2 8910.37 1073.61   4
  23  -2  -2 8418.08 1274.49   2
 -23  21  -2 10815.0 1114.42   1
  21   2  -2 13203.5 1515.59   3
  23  -2  -2 8698.09 1272.07   3
 -21  23   1 31291.6 1936.96   1
 -23  21   1 29029.2 1884.06   1
  21   2   1 30855.4 2315.86   3
  23  -2   1 31194.7 2368.21   3
  23  -2   1 21924.9 956.079   1
 -21  23   4 6065.07 1172.69   1
 -23  21   4 5060.80 1083.06   1
  21   2   4 5202.49 1301.36   3
  23  -2   4 5961.89 1406.88   3
 -21  23   7 18799.4 2195.39   1
 -21  23   7 13137.5 1367.71   3
 -23  21   7 18194.8 2127.34   1
  21   2   7 19877.0 2600.40   3
  23  -2   7 16659.8 2248.50   3
   1 -23  -9 8544.98 1416.10   2
  23  -1  -9 11190.9 2067.71   4
  22   1  -9 5968.68 1596.25   4
   1 -23  -9 9713.79 1614.79   4
  -1 -22  -9 11873.6 1688.81   4
  22   1  -9 8779.36 2089.38   2
  23  -1  -9 6444.41 1920.94   2
 -22  23  -9 8578.51 1299.47   1
 -23  22  -9 9004.10 1327.32   1
 -22  23  -6 2066.89 739.931   1
 -23  22  -6 3125.89 825.955   1
  23  -1  -6 2942.24 1102.78   4
  22   1  -6 1198.79 1055.37   4
  22   1  -6 1927.88 1458.61   2
  23  -1  -6 2106.41 1248.30   2
   1 -23  -6 2214.21 764.091   4
  -1 -22  -6 3366.86 823.242   4
  23  -1  -3 22241.9 2118.78   2
 -22  23  -3 15956.5 1365.31   1
 -23  22  -3 17534.1 1477.11   1
  23  -1  -3 18617.9 1681.43   4
  22   1  -3 18215.6 1598.11   4
   1 -23  -3 17689.0 1024.99   4
  22   1  -3 16985.8 1599.79   3
  22   1  -3 18079.8 1741.92   2
  23  -1  -3 15996.5 1613.66   3
 -22  23   0 19303.6 1509.14   1
 -23  22   0 16853.3 1464.23   1
  22   1   0 19789.4 1876.61   3
  23  -1   0 21240.9 2031.06   3
 -22  23   3 16883.7 1677.64   1
 -23  22   3 14651.0 1586.19   1
  22   1   3 18658.0 2134.35   3
  23  -1   3 15556.0 1928.41   3
 -22  23   6 4195.76 1125.45   1
 -23  22   6 2630.46 1123.92   1
  22   1   6 5721.77 1525.77   3
  23  -1   6 2470.31 1294.35   3
 -22  23   9 7036.88 1617.09   1
  22   1   9 3047.38 1749.87   3
  23  -1   9 7100.44 2123.59   3
 -23  23  -7-361.519 601.865   1
  23   0  -7 19.2425 1031.79   4
  23   0  -7 209.941 1473.07   2
   0 -23  -7 995.665 837.621   4
 -23  23  -4 28640.0 1804.87   1
  23   0  -4 27202.7 2191.88   4
  23   0  -4 25680.8 2398.45   2
   0 -23  -4 30099.3 1512.83   4
  23   0  -4 29463.8 1888.64   3
  23   0  -1-284.862 518.710   4
  23   0  -1-821.076 607.943   2
 -23  23  -1 68.2019 520.782   1
  23   0  -1-224.133 796.786   3
  23   0   2 14051.7 1923.25   3
 -23  23   2 17376.0 1594.08   1
 -23  23   5-576.867 766.722   1
  23   0   5-801.951 1143.70   3
 -23  23   8 30173.9 2920.16   1
  23   0   8 30659.6 3170.96   3
  24 -24  -6 18151.6 2187.63   4
   0  24  -6 19821.9 1835.27   1
  24 -24  -6 15143.4 2163.28   2
  24 -24  -3-595.147 805.271   4
   0  24  -3 395.610 525.132   2
  24 -24  -3-955.525 748.592   2
   0  24  -3 840.183 688.989   1
  24 -24   0 38177.9 2207.55   4
  24 -24   0 40253.2 1878.24   2
   0  24   0 43454.9 2791.90   3
   0  24   0 37591.6 1775.15   1
  24 -24   3-221.546 382.000   2
   0  24   3-817.087 873.142   3
   0  24   3 55.5484 420.929   1
  24 -24   6 3343.24 1525.55   3
   0  24   6 3722.41 840.664   1
  24 -23  -7 10882.6 1958.87   4
  23 -24  -7 10583.5 1828.49   4
   1  23  -7 11871.5 1643.34   1
  -1  24  -7 11589.7 1557.64   1
  24 -23  -7 12960.9 2049.50   2
  23 -24  -7 9641.89 1865.88   2
  24 -23  -4 4240.09 1184.90   4
   1  23  -4 3663.61 729.439   2
  -1  24  -4 3969.21 788.863   2
   1  23  -4 6121.51 1054.38   1
  23 -24  -4 5109.15 1172.67   4
  24 -23  -4 2431.31 982.304   2
  23 -24  -4 3358.95 1120.84   2
  -1  24  -4 4020.61 958.138   1
   1  23  -1 21465.2 1213.38   2
  -1  24  -1 18852.9 1090.30   2
  24 -23  -1 20923.3 1665.67   4
  23 -24  -1 19791.4 1660.54   4
  24 -23  -1 20524.7 1550.78   2
  23 -24  -1 20463.7 1493.71   2
   1  23  -1 22432.6 2008.69   3
   1  23  -1 24793.0 1522.77   1
  -1  24  -1 20683.0 1378.02   1
  23 -24   2 7751.02 991.995   4
  24 -23   2 6427.39 1023.36   4
  24 -23   2 6322.92 753.306   2
  -1  24   2 7416.70 840.106   1
  23 -24   2 7005.82 667.328   2
   1  23   2 7663.10 774.940   1
  -1  24   2 7788.36 1360.97   3
   1  23   2 7919.96 1428.64   3
  24 -23   5 22049.4 2445.92   3
  -1  24   5 22467.7 1492.78   1
   1  23   5 21075.6 1383.29   1
  -1  24   5 22421.1 2168.94   3
   1  23   5 21829.8 2196.18   3
  24 -23   8 2241.76 1510.20   3
  23 -24   8 2605.77 1384.76   3
  -1  24   8 5984.10 1607.29   3
   1  23   8 3375.26 1342.00   3
   2  22  -8 11000.3 1733.53   1
  24 -22  -8 6889.81 1697.27   4
  22 -24  -8 9088.92 1942.00   4
  -2  24  -8 11990.6 1666.22   1
  22 -24  -8 8498.84 1806.50   2
  24 -22  -5 11738.0 1697.73   4
  22 -24  -5 10470.1 1661.11   4
   2  22  -5 12045.4 1328.52   2
   2  22  -5 10605.0 1340.99   1
  -2  24  -5 10718.5 1343.75   1
  24 -22  -5 10948.7 1678.42   2
  22 -24  -5 11764.8 1626.47   2
   2  22  -2 13847.4 1076.62   2
  24 -22  -2 10944.3 1403.81   4
  22 -24  -2 10698.7 1328.00   4
  -2  24  -2 14040.0 941.279   2
  24 -22  -2 13174.6 1458.38   2
  22 -24  -2 11118.9 1211.55   2
   2  22  -2 13404.3 1651.95   3
   2  22  -2 12456.6 1194.70   1
  -2  24  -2 12334.3 1209.96   1
   2  22   1 30280.2 1468.40   1
  -2  24   1 30508.0 1574.13   1
  24 -22   1 34047.7 1916.63   4
  22 -24   1 29329.0 1731.92   4
  24 -22   1 28099.1 1561.30   2
  22 -24   1 27582.2 1226.00   2
  -2  24   1 31389.0 2360.81   3
   2  22   1 34361.2 2514.88   3
  24 -22   4 1608.10 1099.91   3
  -2  24   4 1864.87 640.099   1
   2  22   4 2038.91 509.093   1
  -2  24   4 2622.34 1011.78   3
   2  22   4 2012.50 1039.98   3
  24 -22   7 22242.9 2586.11   3
  -2  24   7 21395.7 1671.45   1
  -2  24   7 26971.5 2521.99   3
   2  22   7 28151.8 2612.61   3
  24 -21  -9 320.464 1233.67   4
  21 -24  -9 998.351 1237.60   4
   3  21  -9 1310.07 1153.59   1
  -3  24  -9-444.915 1015.91   1
  24 -21  -9 1853.93 1451.62   2
  21 -24  -9 2970.17 1465.92   2
  24 -21  -6 11844.5 1914.42   4
  21 -24  -6 12167.4 1784.56   4
   3  21  -6 12996.0 1556.81   1
   3  21  -6 14044.2 1484.00   2
  -3  24  -6 14543.0 1596.14   1
  24 -21  -6 12569.1 1861.86   2
  21 -24  -6 14089.7 1768.78   2
  24 -21  -3 830.812 755.518   4
  21 -24  -3 1592.32 798.384   4
  -3  24  -3 2150.09 485.656   2
  24 -21  -3 2038.91 938.217   2
   3  21  -3 2531.69 897.185   3
   3  21  -3 1391.53 636.334   1
  21 -24  -3 1853.02 828.449   2
   3  21  -3 1687.56 662.589   2
  -3  24  -3 1948.85 694.963   1
  24 -21   0 42745.0 2249.46   4
  24 -21   0 47699.1 2138.02   2
  21 -24   0 45581.8 2160.88   4
  21 -24   0 43885.0 1609.67   2
   3  21   0 46050.4 2731.24   3
   3  21   0 49928.3 1864.24   1
  -3  24   0 49509.7 2049.86   1
  24 -21   3 2418.26 1265.49   3
   3  21   3 3419.21 563.350   1
  -3  24   3 3648.90 1098.28   3
   3  21   3 3540.46 1062.02   3
  24 -21   3 4529.64 684.840   2
  -3  24   3 3029.58 673.058   1
  24 -21   6 15590.6 2164.64   3
  -3  24   6 17370.6 1913.19   3
   3  21   6 19526.6 2212.72   3
  -3  24   6 15572.8 1451.08   1
  24 -21   9 1214.34 1423.86   3
  -3  24   9 5665.22 1624.82   3
   3  21   9 2497.34 1428.41   3
  24 -20  -7 10027.1 1783.74   4
   4  20  -7 13430.6 1765.78   1
  20 -24  -7 8284.64 1655.96   4
  -4  24  -7 10103.5 1421.65   1
   4  20  -7 10097.4 1454.64   2
   4  20  -7 13532.9 1653.11   3
  24 -20  -7 8011.29 1676.19   2
  20 -24  -7 9653.53 1623.42   2
  20 -24  -4 16306.2 1838.66   4
   4  20  -4 17160.5 1479.83   2
   4  20  -4 17708.9 1569.94   1
  24 -20  -4 16931.5 1797.50   2
  -4  24  -4 15986.7 965.321   2
  -4  24  -4 18239.8 1582.29   1
   4  20  -4 19951.3 1922.02   3
  20 -24  -4 13153.8 1476.26   2
 -24   4  -4 14635.0 759.607   1
  24 -20  -4 15749.3 1773.92   4
  24 -20  -1 19234.5 1621.72   4
   4  20  -1 19547.1 1284.28   2
  -4  24  -1 16721.3 802.240   2
  20 -24  -1 16989.3 1437.91   4
  24 -20  -1 16921.0 1459.81   2
  20 -24  -1 17741.4 1195.66   2
   4  20  -1 18224.7 1796.20   3
   4  20  -1 17706.7 1215.86   1
  -4  24  -1 17370.1 983.275   2
  -4  24  -1 20576.5 1425.42   1
  24 -20   2 368.781 951.280   3
  24 -20   2 630.987 472.089   2
  20 -24   2 214.866 410.312   4
   4  20   2 508.551 354.517   1
  -4  24   2 1558.23 955.396   3
  -4  24   2 822.206 473.864   1
   4  20   2 1894.68 871.872   3
  24 -20   5 21717.4 2382.76   3
  -4  24   5 18764.7 1493.70   1
  -4  24   5 19727.0 1924.64   3
   4  20   5 18750.6 2064.53   3
   4  20   5 16321.0 1104.45   1
  24 -20   8 5515.06 1728.71   3
  -4  24   8 5351.63 1085.40   1
  -4  24   8 6283.77 1542.00   3
  24 -19  -8 5509.58 1562.58   4
  19 -24  -8 6389.19 1529.20   4
   5  19  -8 5667.18 1329.32   1
   5  19  -8 6377.69 1382.52   2
  -5  24  -8 6143.48 1239.26   1
  24 -19  -8 5230.96 1583.92   2
  19 -24  -8 6011.39 1530.59   2
  24 -19  -5 10948.1 1640.61   4
  19 -24  -5 9943.36 1566.28   4
   5  19  -5 13051.1 1480.78   1
   5  19  -5 11564.0 1353.24   2
  24 -19  -5 11631.5 1711.64   2
  -5  24  -5 12727.5 1401.36   1
   5  19  -5 13026.0 1558.03   3
  19 -24  -5 11779.1 1541.09   2
   5  19  -2 37649.0 1831.97   2
  19 -24  -2 33036.7 2069.88   4
  24 -19  -2 34997.5 2184.97   2
  -5  24  -2 30746.7 946.024   2
   5  19  -2 35793.0 1851.30   1
 -24   5  -2 37798.0 1641.08   1
   5  19  -2 40246.3 2441.95   3
  19 -24  -2 34279.8 1741.57   2
  -5  24  -2 37093.4 1964.38   1
  -5  24  -2 27814.4 873.727   2
  24 -19  -2 32890.5 2152.85   4
  24 -19   1 13289.5 1675.11   3
  -5  24   1 17545.9 1278.40   1
  24 -19   1 13328.0 1277.19   4
  19 -24   1 14110.9 1129.21   4
  24 -19   1 16193.6 1253.70   2
   5  19   1 15119.8 877.957   4
  -5  24   1 14823.4 1161.07   2
   5  19   1 15201.4 1689.16   3
   5  19   1 14302.6 911.023   1
  24 -19   4 3269.01 1250.26   3
   5  19   4 4301.84 583.347   1
  -5  24   4 3065.85 737.038   1
  -5  24   4 5214.98 1204.13   3
   5  19   4 6546.29 1425.35   3
  -5  24   7 15124.7 1615.44   1
  24 -19   7 12229.4 2014.44   3
  -5  24   7 15223.6 1900.81   3
   5  19   7 18653.0 2193.38   3
  24 -18  -9 17152.9 2537.52   4
  18 -24  -9 13540.3 2127.89   4
  -6  24  -9 15059.7 1914.74   1
   6  18  -9 11983.8 1956.29   1
   6  18  -9 13355.8 2005.89   2
  24 -18  -9 15644.7 2392.90   2
  18 -24  -9 12048.5 2099.72   2
   6  18  -6 42873.3 2649.71   1
  24 -18  -6 43089.9 3188.35   4
  18 -24  -6 36637.2 2809.00   4
   6  18  -6 43855.8 2670.99   2
  24 -18  -6 38269.3 3008.99   2
  -6  24  -6 43010.9 2567.13   1
   6  18  -6 49668.2 2696.37   3
  18 -24  -6 46541.2 2860.06   2
   6  18  -3 14558.1 1302.56   2
  18 -24  -3 12671.5 1427.56   4
  24 -18  -3 10826.0 1450.34   2
   6  18  -3 15593.5 1363.63   1
 -24   6  -3 13938.2 989.821   1
   6  18  -3 16161.2 1642.14   3
  -6  24  -3 12018.6 1224.01   1
  18 -24  -3 11065.6 1166.43   2
  24 -18  -3 14531.2 1575.23   4
  18 -24   0 20077.4 1367.21   4
  24 -18   0 16117.1 1759.93   3
   6  18   0 19492.6 595.131   4
  24 -18   0 25711.3 1636.41   2
   6  18   0 16234.8 741.296   4
  -6  24   0 21246.7 1070.12   2
   6  18   0 22365.2 1889.45   3
   6  18   0 20849.3 1130.98   1
  24 -18   0 20509.0 1556.66   4
  -6  24   0 20146.6 1359.74   1
 -24   6   0 19367.9 1417.43   1
  24 -18   3 22296.6 2164.13   3
  -6  24   3 21883.6 1493.70   1
  -6  24   3 26543.5 2028.06   3
   6  18   3 24236.6 2109.33   3
   6  18   3 22822.3 1022.34   1
  24 -18   6 18842.9 2236.32   3
  -6  24   6 17870.1 1644.29   1
  -6  24   6 18952.6 1851.27   3
   6  18   6 22787.3 2339.00   3
  24 -18   9 8233.80 1889.37   3
  -6  24   9 13750.7 1960.92   3
   6  18   9 12031.5 2063.32   3
   7  17  -7 9880.36 1548.10   1
  17 -24  -7 12111.6 1842.95   4
   7  17  -7 12773.7 1685.51   2
  -7  24  -7 9646.19 1363.23   1
  24 -17  -7 11204.8 1898.41   2
   7  17  -7 10799.1 1426.48   3
  17 -24  -7 10553.2 1553.75   2
  24 -17  -7 10347.4 1892.64   4
  24 -17  -4 1976.45 877.872   4
  17 -24  -4 620.622 796.579   4
   7  17  -4 1562.24 748.124   2
   7  17  -4 2059.01 349.299   4
   7  17  -4 2695.52 775.078   1
  24 -17  -4 1623.15 839.443   2
 -24   7  -4 2765.40 510.730   1
   7  17  -4 2167.60 869.733   3
  -7  24  -4 997.075 597.015   1
  17 -24  -4 3843.90 956.905   2
 -24   7  -1 3497.42 728.921   1
  24 -17  -1 5592.71 1067.33   3
  24 -17  -1 6217.15 1011.80   4
  24 -17  -1 4410.49 947.870   2
   7  17  -1 3081.22 313.746   4
   7  17  -1 4024.79 636.418   1
  17 -24  -1 3173.46 746.811   4
   7  17  -1 4833.10 1020.60   3
   7  17  -1 3619.16 306.796   4
  17 -24  -1 3858.16 478.675   2
  -7  24  -1 4416.91 740.756   1
  17 -24   2 7066.64 749.124   4
  24 -17   2 6597.01 1370.12   3
  -7  24   2 5983.42 554.351   4
  24 -17   2 7461.60 908.250   2
   7  17   2 6716.45 574.592   1
 -24   7   2 7701.57 1100.12   1
  -7  24   2 7456.83 930.833   1
   7  17   2 6570.79 907.459   4
  -7  24   2 6116.91 912.754   2
   7  17   2 6596.96 1213.09   3
  24 -17   5 18902.3 2200.63   3
  -7  24   5 21455.5 1718.86   1
  -7  24   5 19887.1 1896.56   3
  -7  24   8 7541.25 1441.41   3
   7  17   8 12480.9 2032.02   3
  -7  24   8 10036.3 1479.72   1
  24 -16  -8 13320.8 2128.47   4
  16 -24  -8 15063.7 2162.52   4
   8  16  -8 21839.9 2327.06   1
   8  16  -8 19919.4 2223.41   2
  -8  24  -8 15463.0 1754.03   1
  24 -16  -8 17138.4 2402.38   2
  16 -24  -8 16066.9 1997.71   2
  24 -16  -5 6283.66 1364.28   4
  16 -24  -5 6056.94 1285.50   4
   8  16  -5 4853.39 1036.21   1
   8  16  -5 5598.65 724.861   4
   8  16  -5 6466.48 1121.86   2
  24 -16  -5 3503.31 1156.65   2
 -24   8  -5 4780.78 594.034   1
   8  16  -5 6419.68 1019.18   3
  -8  24  -5 5145.96 999.522   1
  16 -24  -5 5396.01 1113.39   2
  24 -16  -2 8147.13 1202.12   4
  16 -24  -2 9877.04 1165.64   4
   8  16  -2 7764.31 542.815   4
  24 -16  -2 8436.48 1208.75   2
 -24   8  -2 7456.77 857.224   1
   8  16  -2 9318.11 979.844   1
   8  16  -2 10765.1 1099.20   2
   8  16  -2 7435.93 490.313   4
   8  16  -2 8316.34 1180.36   3
  16 -24  -2 8443.38 818.091   2
  -8  24  -2 9094.53 1031.17   1
  24 -16   1 2406.52 958.453   3
  16 -24   1 1977.40 528.092   4
  24 -16   1 3021.77 736.751   2
 -24   8   1 1570.02 623.089   1
  -8  24   1 1983.03 622.593   1
   8  16   1 3176.49 628.774   4
  -8  24   1 2137.85 486.645   2
   8  16   1 3794.61 1108.79   3
   8  16   1 2380.34 389.812   1
  24 -16   4 21393.7 2226.32   3
   8  16   4 23212.9 857.988   1
  -8  24   4 26269.0 2008.97   3
  -8  24   4 24076.2 1726.50   1
  24 -16   7 478.474 1133.75   3
  -8  24   7 2331.79 1061.11   3
  -8  24   7 706.763 858.346   1
   8  16   7 2510.52 1251.81   3
   9  15  -9 23955.9 2624.91   1
  24 -15  -9 18377.8 2744.41   4
  15 -24  -9 18083.4 2418.09   4
  -9  24  -9 19459.9 2026.99   1
   9  15  -9 17966.0 2279.06   2
  24 -15  -9 21017.9 2800.67   2
  15 -24  -9 15299.3 2057.57   2
   9  15  -6 22820.9 2113.56   1
  24 -15  -6 21735.0 2383.30   4
 -24   9  -6 22397.4 1176.92   1
  15 -24  -6 18659.8 2063.85   4
   9  15  -6 22087.0 2069.18   2
   9  15  -6 24890.8 1602.75   4
  24 -15  -6 22442.6 2327.97   2
  -9  24  -6 23467.0 1891.72   1
   9  15  -6 24009.8 1726.72   3
  15 -24  -6 22523.8 1949.59   2
   9  15  -3 40963.6 2184.90   2
   9  15  -3 40574.2 2145.73   1
  15 -24  -3 41963.9 2340.86   4
   9  15  -3 42448.9 1491.37   4
  24 -15  -3 44361.8 2615.32   2
  24 -15  -3 43483.6 2566.49   4
   9  15  -3 48367.0 2443.92   3
  -9  24  -3 50870.8 2337.66   1
  15 -24  -3 44314.8 1933.39   2
 -24   9  -3 45058.0 1774.95   1
  -9  24   0 21214.9 1430.46   1
  24 -15   0 20176.2 1882.27   3
   9  15   0 21562.4 874.144   4
  24 -15   0 19605.9 1501.61   4
  15 -24   0 19740.9 1256.27   4
  24 -15   0 22797.4 1590.35   2
   9  15   0 18327.3 1086.72   4
   9  15   0 21759.9 1093.14   1
   9  15   0 23780.2 1912.20   3
 -24   9   0 20500.5 1496.97   1
  24 -15   3 18413.3 2017.34   3
   9  15   3 15650.2 632.075   1
  15 -24   3 18073.6 1053.44   4
 -24   9   3 19283.3 1770.33   1
  -9  24   3 17916.6 1447.06   1
   9  15   3 20376.6 2030.58   3
  24 -15   6 6581.79 1534.18   3
  -9  24   6 9553.72 1354.81   1
  -9  24   6 7970.40 1326.46   3
   9  15   6 10406.0 1765.04   3
  24 -15   9 10561.4 2201.64   3
  -9  24   9 14876.6 1963.65   3
   9  15   9 11975.2 2126.47   3
 -24  10  -7 9818.26 880.874   1
  10  14  -7 12082.4 1846.79   1
  24 -14  -7 8893.42 1700.97   4
  10  14  -7 10179.4 1279.35   4
  10  14  -7 12205.3 1777.91   2
  14 -24  -7 7518.32 1483.65   4
  24 -14  -7 11364.2 1935.90   2
 -10  24  -7 10472.6 1425.12   1
  14 -24  -7 11063.7 1552.45   2
  10  14  -4 5502.38 992.224   1
  24 -14  -4 4384.93 1118.00   4
  10  14  -4 3621.40 907.876   2
  10  14  -4 2331.28 609.772   4
  14 -24  -4 2710.77 894.745   4
  24 -14  -4 3759.51 1234.18   2
 -24  10  -4 4225.86 616.895   1
  10  14  -4 5302.50 998.501   3
 -10  24  -4 3672.06 824.343   1
  14 -24  -4 3361.80 801.813   2
  24 -14  -1 24127.8 1929.85   3
  10  14  -1 26767.2 1076.87   4
  24 -14  -1 23767.5 1750.11   2
  14 -24  -1 25760.3 1547.24   4
  10  14  -1 28994.2 1415.11   1
  10  14  -1 24419.8 1145.35   4
  10  14  -1 30766.1 2092.36   3
  24 -14  -1 25046.8 1819.86   4
 -24  10  -1 25989.1 1575.97   1
 -10  24  -1 27346.7 1616.67   1
  24 -14   2 16669.5 1838.02   3
  10  14   2 20317.0 702.351   1
 -24  10   2 21193.0 1718.12   1
 -10  24   2 18787.5 1203.40   2
 -10  24   2 19598.9 1435.00   1
  10  14   2 17009.8 1405.33   4
  14 -24   2 20609.2 1093.26   4
  10  14   2 24683.0 2072.11   3
  24 -14   5 23562.8 2412.82   3
 -10  24   5 24636.2 1918.01   1
 -10  24   5 22543.0 1847.49   3
  10  14   5 28063.3 2582.75   3
  24 -14   8 9734.01 1985.28   3
 -10  24   8 8849.45 1566.69   3
 -10  24   8 13248.0 1651.45   1
  10  14   8 12841.1 2099.13   3
  11  13  -8 7958.06 1618.22   1
  24 -13  -8 8095.22 1881.27   4
  13 -24  -8 7029.26 1584.41   4
  11  13  -8 5352.13 1098.21   4
 -11  24  -8 7284.57 1261.66   1
  11  13  -8 5047.30 1480.00   2
  24 -13  -8 7302.47 1870.05   2
  13 -24  -8 3946.97 1121.55   2
 -24  11  -8 4887.91 677.745   1
  11  13  -5 5590.86 1129.96   1
  24 -13  -5 2973.59 1217.36   4
 -24  11  -5 4628.28 642.806   1
  11  13  -5 7562.88 998.614   4
  11  13  -5 6621.94 1275.56   2
  13 -24  -5 5442.35 1096.60   4
  24 -13  -5 2278.54 1196.97   2
  11  13  -5 7131.94 1027.18   3
 -11  24  -5 4428.38 912.815   1
  13 -24  -5 2978.46 891.021   2
  24 -13  -2 33466.9 2085.97   3
  11  13  -2 34020.3 1915.12   2
  24 -13  -2 34335.6 2181.19   4
  11  13  -2 31647.6 1343.21   4
  11  13  -2 32739.4 1756.82   1
  24 -13  -2 29790.7 2153.22   2
  13 -24  -2 31287.9 1836.69   4
  11  13  -2 36167.1 2159.24   3
 -24  11  -2 33780.3 1675.87   1
 -11  24  -2 34125.3 1859.99   1
  13 -24  -2 30820.0 1207.51   2
  24 -13   1 8246.45 1288.72   3
 -11  24   1 7994.78 531.396   2
  24 -13   1 9996.03 1108.46   2
  13 -24   1 9972.49 824.965   4
 -11  24   1 11965.8 1141.52   1
  11  13   1 8284.72 931.042   4
  11  13   1 11952.8 1499.23   3
 -24  11   1 10389.8 1204.83   1
  11  13   1 8915.78 562.842   1
  24 -13   4 5845.77 1339.40   3
 -24  11   4 7680.08 1265.11   1
  11  13   4 9716.06 1491.16   3
 -11  24   4 7193.67 1054.10   1
  24 -13   7 1620.55 1226.94   3
 -11  24   7 1398.26 895.550   3
 -11  24   7 622.704 788.407   1
  11  13   7-184.640 1036.51   3
  12 -24  -9 7455.46 1526.52   2
  24 -12  -9 6860.55 1824.07   4
  12  12  -9 9098.35 1530.88   4
  12 -24  -9 8822.83 1752.89   4
  12  12  -9 10967.4 1938.36   2
 -12  24  -9 8968.64 1444.97   1
  24 -12  -9 5799.37 1828.39   2
 -24  12  -6 9389.56 886.705   1
  24 -12  -6 6916.91 1503.27   4
  12  12  -6 9075.67 1185.15   4
  12  12  -6 13489.5 1884.39   2
  12 -24  -6 7942.13 1438.64   4
  24 -12  -6 8855.30 1633.88   2
 -12  24  -6 11057.2 1378.81   1
  12  12  -6 12092.4 1186.68   3
  12 -24  -6 6828.03 1189.29   2
  24 -12  -3 14996.7 1411.26   3
  12  12  -3 17581.8 1467.21   1
  12  12  -3 17040.2 1554.10   2
  24 -12  -3 18871.3 1770.85   4
  12  12  -3 16610.3 1152.19   4
  24 -12  -3 20075.7 1877.21   2
  12 -24  -3 16946.5 1473.65   4
 -24  12  -3 16815.6 1186.07   1
  12  12  -3 21793.3 1653.12   3
 -12  24  -3 18056.6 1439.56   1
  12 -24  -3 16471.7 1123.09   2
  24 -12   0 12889.8 1546.24   3
 -12  24   0 13024.6 1163.58   1
  24 -12   0 10022.8 1137.66   4
  24 -12   0 13305.2 1220.22   2
 -24  12   0 13198.3 1242.86   1
  12 -24   0 12081.9 957.885   4
  12  12   0 10785.7 757.070   1
  12  12   0 11584.2 961.436   4
  12  12   0 11686.6 1399.67   3
  12 -24   3 18465.2 873.967   4
 -24  12   3 17457.1 1680.87   1
 -12  24   3 14088.4 1235.05   2
  12 -24   3 16487.4 1045.22   4
 -12  24   3 17153.8 1486.83   1
  12  12   3 17004.8 1952.55   3
  24 -12   3 17020.1 1957.72   3
 -12  24   6 11235.7 1474.61   1
 -12  24   6 10749.1 1361.17   3
  12  12   6 14477.4 2090.83   3
  24 -12   6 11575.3 1857.18   3
  24 -12   9 4899.12 1781.50   3
 -12  24   9 10180.8 1610.91   3
 -12  24   9 9036.65 1586.87   1
  12  12   9 8762.42 2004.18   3
  11 -24  -7 2290.51 950.227   2
 -24  13  -7 835.926 467.245   1
  24 -11  -7 2390.26 1224.29   4
  13  11  -7 1326.22 832.449   4
  11 -24  -7 1715.03 980.515   4
  13  11  -7 49.6129 961.317   2
  24 -11  -7-1129.34 1099.46   2
 -13  24  -7 647.809 642.687   1
  24 -11  -4 8777.65 1465.54   4
  13  11  -4 9844.00 1389.68   2
  24 -11  -4 9229.25 1475.48   2
 -24  13  -4 8851.00 854.746   1
  11 -24  -4 9681.85 1216.22   4
  13  11  -4 9590.73 1021.64   4
  13  11  -4 10636.0 1187.91   3
 -13  24  -4 9412.68 1176.09   1
  11 -24  -4 8477.07 978.148   2
 -13  24  -1 9994.09 1034.79   1
  24 -11  -1 7836.51 1220.21   3
  24 -11  -1 6241.76 1050.67   4
  13  11  -1 9126.94 773.839   4
  13  11  -1 10359.9 932.486   1
  24 -11  -1 9383.77 1206.03   2
  11 -24  -1 8643.23 877.879   4
  13  11  -1 10514.3 1275.58   3
 -24  13  -1 11128.3 1074.89   1
  11 -24   2 29440.2 1072.88   4
 -13  24   2 28715.3 1250.16   2
 -13  24   2 32394.5 1874.33   1
  11 -24   2 27299.9 1083.52   4
 -24  13   2 30212.1 2048.68   1
  24 -11   2 27384.8 2284.88   3
  24 -11   5 5527.44 1433.66   3
 -24  13   5 4846.39 1171.81   1
  13  11   5 6166.74 1458.60   3
 -13  24   5 3788.19 987.266   1
  24 -11   8 6052.94 1566.12   3
 -13  24   8 5963.42 1438.91   1
 -13  24   8 4144.42 1172.30   3
  13  11   8 5045.07 1573.89   3
  24 -10  -8 15598.6 2259.33   4
  14  10  -8 13709.6 1704.73   4
  10 -24  -8 14607.0 1943.50   4
  14  10  -8 16539.2 2240.32   2
  24 -10  -8 15526.2 2360.98   2
 -14  24  -8 13707.3 1579.05   1
  10 -24  -8 14378.4 1742.89   2
 -24  14  -8 13283.6 1154.91   1
 -24  14  -5 29578.0 1555.60   1
  24 -10  -5 28402.5 2472.83   4
  14  10  -5 28031.5 2284.50   2
  14  10  -5 26648.1 1815.36   4
  24 -10  -5 29309.9 2571.45   2
  10 -24  -5 28815.2 2117.66   4
 -14  24  -5 26428.5 1870.88   1
  14  10  -5 33412.5 1908.02   3
  10 -24  -5 26365.6 1756.73   2
  24 -10  -2 18709.0 1647.50   3
  14  10  -2 21030.9 1509.06   1
  14  10  -2 18439.5 1505.82   2
  24 -10  -2 21404.0 1721.70   4
  14  10  -2 20030.9 1223.35   4
  24 -10  -2 19108.3 1741.61   2
  10 -24  -2 17801.4 1305.25   4
 -24  14  -2 19402.4 1349.54   1
  14  10  -2 22391.5 1733.59   3
 -14  24  -2 19748.4 1447.85   1
 -24  14   1 26261.5 1760.03   1
  10 -24   1 23841.6 980.025   4
 -14  24   1 28506.2 1731.16   1
  10 -24   1 24866.7 841.440   4
  14  10   1 24235.7 740.068   1
  14  10   1 29114.1 2180.67   3
  14  10   1 26055.0 954.844   1
  24 -10   1 22846.6 2048.88   3
  24 -10   4 4573.29 1399.94   3
  10 -24   4 7257.75 494.525   4
 -24  14   4 3892.38 943.478   1
  14  10   4 6811.55 1405.87   3
 -14  24   4 6343.77 1105.01   1
  24 -10   7 10440.0 1886.91   3
 -14  24   7 10851.9 1588.46   1
 -14  24   7 9827.42 1438.28   3
  14  10   7 14233.7 2154.27   3
  24  -9  -9 17527.4 2433.83   4
  15   9  -9 14386.1 1884.82   4
   9 -24  -9 14611.6 2069.97   4
  24  -9  -9 15371.1 2440.08   2
  15   9  -9 12308.1 2127.62   2
 -15  24  -9 12107.7 1554.86   1
 -24  15  -9 12311.5 1242.58   1
   9 -24  -9 10510.7 1753.59   2
 -24  15  -6 8130.95 923.531   1
  24  -9  -6 8677.38 1596.50   4
  15   9  -6 8367.39 1229.11   4
  15   9  -6 9127.54 1702.88   2
  24  -9  -6 9321.52 1812.00   2
   9 -24  -6 8725.43 1347.49   4
 -15  24  -6 7975.67 1205.42   1
  15   9  -6 10722.4 1075.85   3
   9 -24  -6 7075.20 1115.17   2
  24  -9  -3 18474.5 1531.04   3
   9 -24  -3 18841.0 1135.83   2
  15   9  -3 17676.1 1645.55   2
  15   9  -3 17204.0 1306.89   4
  24  -9  -3 19076.0 1834.16   2
   9 -24  -3 18779.2 1454.29   4
 -24  15  -3 20714.8 1343.46   1
  24  -9  -3 15819.1 1596.29   4
  15   9  -3 21581.9 1677.61   3
 -15  24  -3 16191.4 1418.20   1
  15   9   0 14842.4 963.531   1
  24  -9   0 16345.2 1354.07   2
 -15  24   0 18954.1 1447.39   1
  24  -9   0 15024.7 1290.40   4
   9 -24   0 13493.4 792.422   4
  15   9   0 17062.1 918.880   1
  15   9   0 19419.8 1751.71   3
 -24  15   0 16830.8 1371.25   1
  24  -9   0 14840.4 1655.84   3
 -15  24   3 35027.8 1657.08   2
 -15  24   3 41543.4 2283.33   1
  15   9   3 49007.7 2965.30   3
 -24  15   3 40474.7 2437.13   1
  24  -9   3 39803.2 2707.06   3
 -24  15   6 23310.1 2275.75   1
 -15  24   6 18975.6 1639.78   3
 -15  24   6 20973.8 2020.30   1
  15   9   6 24192.1 2502.67   3
  24  -9   6 18259.2 2299.12   3
 -15  24   9 17208.1 2162.44   1
 -15  24   9 15465.1 1831.00   3
  15   9   9 12748.3 2354.60   3
   8 -24  -7 862.856 834.806   2
 -24  16  -7 2114.34 605.687   1
  24  -8  -7 196.202 1024.73   4
  16   8  -7 1992.21 1019.19   4
  16   8  -7 1425.18 1268.24   2
   8 -24  -7 1838.61 931.531   4
  24  -8  -7 2447.11 1323.78   2
 -16  24  -7 2122.86 812.111   1
   8 -24  -4 31012.4 1636.66   2
  24  -8  -4 27858.6 1662.17   3
 -24  16  -4 34808.5 1765.33   1
  24  -8  -4 31097.4 2410.30   4
  16   8  -4 30927.0 1887.15   4
  16   8  -4 29021.8 2262.40   2
  24  -8  -4 32452.9 2569.41   2
   8 -24  -4 30230.4 1888.60   4
  16   8  -4 34485.4 1965.84   3
 -16  24  -4 33086.7 1937.98   1
  24  -8  -1 1227.60 833.091   3
 -24  16  -1 2155.56 602.092   1
  16   8  -1 1804.32 492.850   4
  24  -8  -1 2678.73 768.743   4
  24  -8  -1 2181.02 777.258   2
 -16  24  -1 2306.88 681.002   1
   8 -24  -1 1570.27 434.239   4
  16   8  -1 2985.95 955.111   3
  16   8  -1 1918.99 579.529   1
 -16  24   2 10372.4 735.033   2
 -24  16   2 14101.8 1439.80   1
 -16  24   2 13349.6 1313.05   1
  24  -8   2 9986.21 875.132   1
  16   8   2 12311.6 1726.67   3
  24  -8   2 13350.9 1777.18   3
  24  -8   5 6670.06 1482.50   3
 -16  24   5 4352.78 1043.88   1
 -24  16   5 5098.99 1251.80   1
  16   8   5 8553.98 1575.94   3
 -16  24   8 17891.2 1782.58   3
 -16  24   8 18256.0 2157.13   1
  16   8   8 18254.8 2475.18   3
  24  -8   8 20519.9 2516.02   3
   7 -24  -8 8772.67 1401.94   2
  24  -7  -8 13261.3 2168.32   4
  17   7  -8 6311.08 1347.23   4
   7 -24  -8 8263.19 1509.31   4
  17   7  -8 7062.63 1801.71   2
  24  -7  -8 8174.88 1926.28   2
  -7 -17  -8 8149.71 1208.78   4
 -17  24  -8 7550.26 1249.57   1
 -24  17  -8 9385.13 1080.49   1
   7 -24  -5 23843.6 1586.15   2
 -24  17  -5 20943.1 1413.73   1
  24  -7  -5 19690.1 2186.44   4
  17   7  -5 23791.1 1882.01   4
  17   7  -5 25271.7 2418.59   2
  24  -7  -5 22967.3 2366.63   2
   7 -24  -5 22553.6 1751.98   4
 -17  24  -5 24603.0 1750.25   1
  17   7  -5 27462.4 1656.34   3
 -17  24  -2 4953.08 857.303   1
  17   7  -2 6978.81 1158.23   2
  17   7  -2 6271.37 853.842   4
  24  -7  -2 7587.54 1175.11   2
   7 -24  -2 7001.80 759.982   4
 -24  17  -2 7319.15 898.738   1
  24  -7  -2 5905.24 940.258   4
  17   7  -2 5069.33 1062.86   3
  24  -7  -2 6741.24 1161.27   3
  24  -7   1 4350.92 1131.99   3
 -24  17   1 4445.38 832.756   1
  17   7   1 3945.88 317.343   1
 -17  24   1 6649.87 961.860   1
  17   7   1 3799.54 286.692   1
  17   7   1 4999.10 1096.37   3
 -24  17   4 3584.79 979.338   1
 -17  24   4 4349.29 974.605   1
  17   7   4 6172.29 1421.29   3
  24  -7   4 5237.91 1313.37   3
  24  -7   7 6576.20 1645.96   3
 -17  24   7 9576.28 1652.26   1
 -24  17   7 8621.68 1527.89   1
 -17  24   7 7410.00 1232.71   3
  17   7   7 7936.33 1732.49   3
   6 -24  -9 9830.56 1607.93   2
  24  -6  -9 12743.5 2255.26   4
  18   6  -9 8669.00 1670.09   4
  18   6  -9 16181.7 2491.30   2
   6 -24  -9 13157.1 2013.52   4
  24  -6  -9 15674.2 2658.81   2
  -6 -18  -9 12195.3 1613.30   4
 -18  24  -9 11569.6 1516.54   1
 -24  18  -9 13990.2 1389.06   1
   6 -24  -6 17536.8 1505.13   2
  24  -6  -6 17003.5 2090.22   4
  18   6  -6 19577.1 1854.69   4
  18   6  -6 20400.4 2355.47   2
  24  -6  -6 14350.5 2068.97   2
   6 -24  -6 14649.9 1600.82   4
 -18  24  -6 18781.3 1621.70   1
 -24  18  -6 17660.6 1346.41   1
  24  -6  -3 17955.5 1747.67   4
  18   6  -3 18499.0 1719.78   2
  18   6  -3 23978.6 1635.95   4
  24  -6  -3 26055.3 2221.07   2
 -24  18  -3 24869.3 1536.95   1
   6 -24  -3 25472.7 1492.96   4
  18   6  -3 31650.6 1997.54   3
 -18  24  -3 28990.5 1818.98   1
  24  -6  -3 25574.8 1793.85   3
  24  -6   0 18672.7 1448.57   4
 -18  24   0 22273.9 1599.55   1
  24  -6   0 22864.8 1665.89   2
 -24  18   0 22614.3 1602.63   1
  18   6   0 23082.8 1995.13   3
  24  -6   0 23593.6 1999.58   3
  18   6   0 19334.9 970.893   1
 -24  18   3 12049.3 1461.71   1
  18   6   3 10973.5 1697.00   3
 -18  24   3 13646.6 1425.69   1
  24  -6   3 8781.38 1521.03   3
 -18  24   6 34803.9 2643.07   1
 -24  18   6 43378.2 3003.23   1
  18   6   6 35547.4 2963.19   3
  24  -6   6 34319.3 2889.95   3
 -18  24   9 10204.0 1835.14   1
  18   6   9 13590.5 2322.71   3
  24  -6   9 13803.2 2444.75   3
   5 -24  -7 19147.8 1726.69   2
  24  -5  -7 18315.4 2368.17   4
  19   5  -7 14467.6 1808.11   4
  19   5  -7 16509.6 2272.48   2
  24  -5  -7 16983.8 2357.80   2
   5 -24  -7 18940.7 1912.23   4
  -5 -19  -7 17214.2 1616.51   4
 -19  24  -7 16443.7 1615.51   1
 -24  19  -7 18090.2 1489.57   1
  24  -5  -4 5484.15 984.398   3
 -24  19  -4 5268.66 841.530   1
  24  -5  -4 1800.02 859.550   4
  19   5  -4 3499.39 919.513   4
  19   5  -4 3629.59 1109.87   2
  24  -5  -4 3287.13 1174.57   2
   5 -24  -4 4921.05 837.127   4
  19   5  -4 4980.70 930.267   3
 -19  24  -4 5534.53 916.008   1
  19   5  -1 15217.8 1358.14   2
  19   5  -1 11640.2 1001.52   1
  19   5  -1 16089.2 1163.93   4
  24  -5  -1 13413.2 1276.48   4
  24  -5  -1 13555.9 1452.92   2
 -19  24  -1 14690.3 1355.47   1
 -24  19  -1 16066.5 1331.22   1
  19   5  -1 17892.7 1734.87   3
  24  -5  -1 16015.3 1648.85   3
 -24  19   2 37280.6 2270.85   1
  24  -5   2 27401.7 1183.13   1
 -19  24   2 34666.5 2076.53   1
  19   5   2 35237.1 2554.40   3
  24  -5   2 36025.2 2636.03   3
 -24  19   5 11461.6 1598.37   1
 -19  24   5 10217.8 1455.92   1
  19   5   5 12646.4 1844.35   3
  24  -5   5 10479.4 1775.92   3
 -19  24   8 6674.19 1579.22   1
 -19  24   8 4273.80 1101.24   3
  19   5   8 5501.83 1725.60   3
  24  -5   8 3183.34 1564.00   3
   4 -24  -8 4769.69 1173.72   2
  24  -4  -8 5109.38 1661.09   4
  20   4  -8 5192.96 1318.35   4
  20   4  -8 7465.50 1870.61   2
  24  -4  -8 7833.93 1955.16   2
   4 -24  -8 7059.19 1362.09   4
  -4 -20  -8 8366.78 1375.18   4
 -24  20  -8 5859.21 1040.54   1
 -20  24  -8 5144.92 1123.68   1
 -24  20  -5 20292.1 1507.95   1
  24  -4  -5 18053.2 2079.18   4
  20   4  -5 18962.0 2226.41   2
  24  -4  -5 21685.1 2478.42   2
   4 -24  -5 21050.4 1632.04   4
  20   4  -5 18964.4 1789.69   4
  20   4  -5 21826.7 1468.62   3
 -20  24  -5 22198.7 1675.72   1
  24  -4  -2-499.223 755.924   3
  24  -4  -2-600.694 607.894   4
  24  -4  -2 516.534 693.663   2
  20   4  -2 17.6972 639.093   2
 -20  24  -2 934.630 619.010   1
  20   4  -2 82.8802 493.458   4
   4 -24  -2 201.556 276.086   4
 -24  20  -2 561.508 572.604   1
  20   4  -2 213.082 797.015   3
  20   4   1 10670.5 477.939   1
  20   4   1 12565.1 678.587   1
 -20  24   1 17084.8 1456.18   1
  20   4   1 17896.7 1761.82   3
  24  -4   1 12572.7 829.562   1
 -24  20   1 15260.4 1463.06   1
  24  -4   1 17668.4 1874.77   3
 -20  24   4 18691.7 1802.84   1
 -24  20   4 18589.8 1906.40   1
  20   4   4 21262.1 2206.62   3
  24  -4   4 16687.5 1990.52   3
 -20  24   7 10705.4 1696.12   1
 -20  24   7 9582.54 1248.69   3
  20   4   7 13329.4 2107.92   3
  24  -4   7 7338.46 1810.88   3
 -24  20   7 10062.3 1738.39   1
 -24  21  -9 4258.46 1053.40   1
   3 -24  -9 6299.07 1286.38   2
  24  -3  -9 4219.34 1660.98   4
  21   3  -9 2644.58 1340.07   4
  21   3  -9 8240.70 2220.23   2
   3 -24  -9 5029.38 1365.98   4
  24  -3  -9 7190.28 1960.31   2
  -3 -21  -9 6135.95 1344.86   4
 -21  24  -9 5662.96 1210.79   1
  24  -3  -6 20314.0 2243.88   4
  21   3  -6 18328.5 1995.54   4
  21   3  -6 16529.8 2285.75   2
  24  -3  -6 18524.0 2333.69   2
   3 -24  -6 15572.8 1568.85   4
  -3 -21  -6 15983.5 1455.70   4
 -21  24  -6 16091.5 1557.50   1
 -24  21  -6 14641.2 1334.67   1
  24  -3  -3 5378.32 1118.84   3
 -21  24  -3 4279.46 880.379   1
  24  -3  -3 4460.84 1021.55   4
  21   3  -3 4248.95 889.138   4
  21   3  -3 5116.93 1175.14   2
  24  -3  -3 2995.62 980.675   2
 -24  21  -3 4101.16 781.652   1
   3 -24  -3 4428.34 607.744   4
  21   3  -3 4859.65 1007.92   3
  24  -3   0 37801.3 2001.17   4
 -21  24   0 47300.1 2279.06   1
 -24  21   0 42900.6 2218.99   1
  21   3   0 46765.2 2781.36   3
  24  -3   0 44681.4 2744.93   3
 -24  21   3 2464.85 820.846   1
 -21  24   3 1668.09 692.615   1
  21   3   3 2476.21 1173.91   3
  24  -3   3 2146.06 1162.66   3
 -24  21   6 10681.4 1621.02   1
  21   3   6 15602.7 2139.89   3
 -21  24   6 12738.8 1773.07   1
  24  -3   6 14738.2 2190.96   3
 -21  24   9-764.695 1144.30   1
  21   3   9 1898.21 1698.84   3
  24  -3   9 2500.45 1665.30   3
  24  -2  -7 27098.2 2684.85   4
  22   2  -7 23659.2 2394.92   4
  22   2  -7 30503.7 3199.54   2
  24  -2  -7 27555.1 2964.36   2
   2 -24  -7 25010.0 2025.35   4
  -2 -22  -7 23720.1 1860.00   4
 -22  24  -7 23991.4 1862.26   1
 -24  22  -7 28325.3 1896.15   1
  24  -2  -4 2030.31 839.047   3
 -22  24  -4 2519.32 705.971   1
  24  -2  -4 1963.61 873.671   4
  22   2  -4 928.651 757.007   4
  22   2  -4 1891.18 1019.80   2
  24  -2  -4 2580.46 1056.36   2
 -24  22  -4 2602.81 744.693   1
   2 -24  -4 3269.39 693.408   4
  22   2  -4 2023.30 891.238   3
  22   2  -1 28145.6 1933.05   2
  22   2  -1 28529.8 1711.70   4
  24  -2  -1 28048.2 1919.40   2
  24  -2  -1 28393.8 1772.69   4
 -22  24  -1 29753.6 1836.85   1
 -24  22  -1 34184.6 1951.63   1
  22   2  -1 34791.6 2345.60   3
  24  -2  -1 29068.7 2262.26   3
 -22  24   2 10846.5 1309.73   1
  22   2   2 10367.0 1611.99   3
  24  -2   2 10638.6 1589.47   3
 -24  22   2 9680.10 1273.30   1
 -22  24   5 8488.07 1364.92   1
 -24  22   5 9176.85 1498.97   1
  22   2   5 10621.4 1782.68   3
  24  -2   5 10852.4 1856.22   3
 -24  22   8 10045.8 1883.27   1
 -22  24   8 10387.9 1912.49   1
  22   2   8 9784.00 2084.18   3
  24  -2   8 5529.13 1803.03   3
 -23  24  -8 3219.11 946.264   1
 -24  23  -8 2771.45 851.471   1
  24  -1  -8 4890.57 1635.76   4
  23   1  -8 6287.58 1923.29   2
  24  -1  -8 2934.83 1628.35   2
   1 -24  -8 4799.01 1164.71   4
  -1 -23  -8 4298.59 1134.30   4
  23   1  -8 3097.00 1325.28   4
 -24  23  -5 21444.8 1678.49   1
  23   1  -5 23624.0 2181.70   4
  23   1  -5 22232.7 2373.78   2
  24  -1  -5 22361.6 2486.37   2
   1 -24  -5 21583.1 1526.84   4
  -1 -23  -5 25866.3 1597.58   4
  24  -1  -5 24139.7 2291.43   4
 -23  24  -5 21598.6 1707.05   1
  23   1  -2 7429.91 1175.75   2
  24  -1  -2 6778.50 1067.73   4
  23   1  -2 7213.44 1046.01   4
  24  -1  -2 9642.64 1401.70   2
 -23  24  -2 7503.75 1037.47   1
 -24  23  -2 8071.59 1106.70   1
  23   1  -2 8077.86 1314.15   3
  24  -1  -2 6939.33 1210.07   3
 -23  24   1 21222.2 1713.11   1
 -24  23   1 20996.3 1739.38   1
  23   1   1 17892.9 1961.63   3
  24  -1   1 20330.8 2057.84   3
 -23  24   4 3444.16 960.714   1
 -24  23   4 4321.81 1051.93   1
  23   1   4 4111.10 1441.37   3
  24  -1   4 4261.11 1435.05   3
 -23  24   7 8767.63 1670.68   1
 -24  23   7 7648.85 1649.20   1
  23   1   7 6624.35 1810.44   3
  24  -1   7 10228.7 2001.44   3
  24   0  -6 7606.45 1567.04   4
  24   0  -6 7101.96 1760.00   2
   0 -24  -6 5716.69 998.757   4
 -24  24  -6 8314.45 1161.34   1
  24   0  -3 86.8309 609.186   4
  24   0  -3-576.079 784.959   2
 -24  24  -3 316.562 560.008   1
  24   0  -3 306.004 858.279   3
  24   0   0 39022.3 1962.18   4
 -24  24   0 39661.3 2247.84   1
  24   0   0 37205.3 2677.29   3
 -24  24   3 295.339 633.800   1
  24   0   3-1139.38 1152.88   3
 -24  24   6 19247.1 2172.05   1
  24   0   6 17831.0 2409.91   3
  25 -25  -7-2.07383 1159.43   4
   0  25  -7 1003.45 926.226   1
  25 -25  -7-330.415 1328.10   2
  25 -25  -4 17037.0 1920.80   4
  25 -25  -4 16930.8 1891.15   2
   0  25  -4 18127.4 1666.76   1
   0  25  -1 141.174 471.379   1
   0  25  -1 544.441 487.954   2
  25 -25  -1 29.8361 626.187   2
   0  25  -1 580.909 1056.69   3
  25 -25  -1 1472.39 862.610   4
  25 -25   2 32098.2 1963.48   4
   0  25   2 29033.5 1532.18   1
  25 -25   2 29708.8 1385.95   2
   0  25   2 28227.4 2365.16   3
   0  25   5-548.603 488.889   1
   0  25   5-736.643 1078.66   3
  25 -25   8-77.2606 1403.11   3
   0  25   8 3335.59 1443.41   3
  25 -24  -8 6248.72 1687.46   4
  24 -25  -8 1465.36 1429.10   4
   1  24  -8 3935.60 1128.28   1
  -1  25  -8 4091.14 1160.40   1
  25 -24  -8 4726.41 1599.79   2
  24 -25  -8 6948.28 1838.73   2
  25 -24  -5 13495.0 1891.38   4
  24 -25  -5 11873.7 1861.54   4
   1  24  -5 14613.9 1393.24   2
   1  24  -5 17215.8 1703.27   1
  -1  25  -5 13364.6 1484.94   1
  25 -24  -5 12770.4 1745.34   2
  24 -25  -5 10555.0 1624.25   2
  25 -24  -2 6953.00 1219.67   4
   1  24  -2 5249.44 761.634   2
  24 -25  -2 6782.04 1221.31   4
  -1  25  -2 5625.74 734.934   2
  25 -24  -2 4873.32 979.130   2
   1  24  -2 7855.14 1427.82   3
  24 -25  -2 5303.75 1026.51   2
   1  24  -2 5005.97 875.083   1
  -1  25  -2 4578.25 877.388   1
   1  24   1 26714.6 1463.53   1
  -1  25   1 26863.2 1520.78   1
  25 -24   1 26991.0 1822.34   4
  24 -25   1 26303.2 1741.26   4
  25 -24   1 26665.4 1498.78   2
  24 -25   1 24520.0 1299.57   2
  -1  25   1 26422.4 2305.87   3
   1  24   1 30857.0 2521.71   3
  25 -24   4 8982.47 1736.83   3
  -1  25   4 13079.2 1721.81   3
   1  24   4 11789.8 1701.78   3
  -1  25   4 10143.2 1047.54   1
   1  24   4 11765.6 1041.75   1
  25 -24   7 10228.1 2174.96   3
  -1  25   7 11226.0 1779.30   3
   1  24   7 11282.6 1930.59   3
  25 -23  -6 4057.60 1471.98   4
  23 -25  -6 3180.15 1313.00   4
   2  23  -6 4837.66 1031.25   2
   2  23  -6 4380.01 1061.86   1
  25 -23  -6 2978.20 1229.29   2
  -2  25  -6 3477.57 979.320   1
  23 -25  -6 3344.10 1240.30   2
  25 -23  -3 18783.6 1885.65   4
  23 -25  -3 16848.8 1738.15   4
   2  23  -3 17505.0 1340.46   2
  -2  25  -3 19597.2 1199.69   2
  25 -23  -3 19083.1 1826.11   2
   2  23  -3 17085.9 1474.91   1
  23 -25  -3 15957.9 1591.37   2
   2  23  -3 20077.1 2038.11   3
  -2  25  -3 19228.0 1569.46   1
  25 -23   0 7446.46 1080.34   4
  23 -25   0 6013.79 962.308   4
  25 -23   0 6086.89 927.953   2
  23 -25   0 7063.76 825.231   2
  -2  25   0 8365.96 1414.59   3
   2  23   0 7039.21 1326.03   3
   2  23   0 7891.45 841.911   1
  -2  25   0 6132.93 849.050   1
  25 -23   3 16045.3 2028.48   3
  23 -25   3 19812.3 1505.60   4
  25 -23   3 21370.8 1199.43   2
  -2  25   3 16682.9 1247.02   1
   2  23   3 16118.5 1114.39   1
  -2  25   3 21482.8 2119.64   3
   2  23   3 21974.0 2162.86   3
  -2  25   6 3257.98 819.375   1
  25 -23   6 650.447 1293.79   3
  -2  25   6 2495.78 1180.02   3
   2  23   6 3056.44 1168.45   3
  25 -22  -7 3015.03 1390.12   4
  22 -25  -7 1846.35 1185.49   4
   3  22  -7 806.883 911.647   1
   3  22  -7 336.021 853.018   2
  -3  25  -7 1933.54 988.681   1
  25 -22  -7 1170.16 1397.97   2
  22 -25  -7 1329.11 1155.35   2
  25 -22  -4 10347.1 1635.43   4
  22 -25  -4 11502.3 1610.05   4
   3  22  -4 13134.0 1313.72   2
   3  22  -4 14114.8 1420.31   1
  25 -22  -4 12499.9 1596.60   2
   3  22  -4 13238.8 1683.52   3
  -3  25  -4 13488.1 1449.84   1
  22 -25  -4 9798.89 1353.97   2
   3  22  -1 7605.37 818.349   2
  -3  25  -1 7146.51 632.310   2
  22 -25  -1 7849.21 1112.02   4
  25 -22  -1 8278.17 1114.12   2
  22 -25  -1 6978.61 881.297   2
   3  22  -1 9450.97 1446.30   3
   3  22  -1 5858.71 826.060   1
  -3  25  -1 9061.45 1025.21   1
  25 -22  -1 6486.43 1055.48   4
  25 -22   2 6083.52 1363.27   3
  22 -25   2 6007.20 905.046   4
   3  22   2 6966.91 708.030   1
  -3  25   2 8483.17 905.531   1
  25 -22   2 8387.59 1095.63   4
  25 -22   2 7897.57 894.984   2
  -3  25   2 7735.09 1490.67   3
   3  22   2 6370.03 1229.38   3
  25 -22   5 2735.35 1279.69   3
  -3  25   5 2431.68 1092.02   3
   3  22   5 399.597 974.033   3
   3  22   5 1201.03 507.806   1
  -3  25   5 1572.88 682.060   1
  -3  25   8 19077.3 2307.88   3
   3  22   8 15387.8 2198.31   3
  25 -21  -8 3446.09 1414.84   4
  21 -25  -8 5891.17 1701.57   4
   4  21  -8 7980.70 1477.87   1
  -4  25  -8 6681.21 1387.50   1
   4  21  -8 6323.54 1475.84   2
  25 -21  -8 5844.11 1635.24   2
  21 -25  -8 4138.88 1359.63   2
  25 -21  -5 18625.2 2133.19   4
  21 -25  -5 13628.5 1800.51   4
   4  21  -5 16075.6 1536.06   2
   4  21  -5 19180.0 1745.94   1
  25 -21  -5 19655.1 2106.84   2
  -4  25  -5 18578.7 1707.07   1
   4  21  -5 23467.7 2141.54   3
  21 -25  -5 16535.8 1775.54   2
  21 -25  -2 1070.55 780.610   4
  25 -21  -2 2590.65 873.587   4
   4  21  -2 2452.46 670.437   2
  -4  25  -2 1752.22 408.497   2
  25 -21  -2 1813.38 733.155   2
   4  21  -2 2548.77 901.451   3
  21 -25  -2 1461.93 715.571   2
   4  21  -2 1401.29 581.045   1
  -4  25  -2 1456.54 652.080   1
   4  21   1 28732.5 1338.91   1
  -4  25   1 31780.8 1721.20   1
  25 -21   1 26055.6 2306.36   3
  25 -21   1 32358.9 1973.06   4
  21 -25   1 34001.9 1819.74   4
  25 -21   1 30519.5 1724.02   2
   4  21   1 31665.8 2322.30   3
   4  21   4 10295.4 845.803   1
  25 -21   4 10548.9 1759.77   3
  -4  25   4 11736.4 1547.02   3
   4  21   4 13699.2 1769.08   3
  -4  25   4 10492.5 1144.08   1
  25 -21   7 16066.1 2424.07   3
  -4  25   7 12017.6 1421.20   1
  -4  25   7 15248.6 1942.08   3
   4  21   7 16605.2 2156.73   3
   5  20  -9 15127.1 2081.85   1
  25 -20  -9 9180.73 2078.86   4
  20 -25  -9 8224.17 2019.73   4
  -5  25  -9 11328.2 1706.70   1
   5  20  -9 10259.9 1737.63   2
  25 -20  -9 9103.47 2232.67   2
  20 -25  -9 11807.1 2059.77   2
   5  20  -6 8154.87 1324.37   1
  25 -20  -6 6575.26 1488.58   4
  20 -25  -6 7282.14 1548.15   4
   5  20  -6 6310.63 1179.10   2
  -5  25  -6 7115.17 1200.50   1
   5  20  -6 9058.94 1478.86   3
  25 -20  -6 4591.40 1469.27   2
  20 -25  -6 5161.79 1275.22   2
  25 -20  -3 28624.6 2321.99   4
   5  20  -3 31404.8 1884.90   2
  20 -25  -3 29668.4 2166.57   4
  25 -20  -3 32426.0 2294.96   2
   5  20  -3 32805.4 1927.02   1
 -25   5  -3 33510.7 1425.57   1
   5  20  -3 35885.8 2414.65   3
  20 -25  -3 29123.5 1847.05   2
  -5  25  -3 33802.9 1982.74   1
   5  20   0 2275.40 483.254   1
  -5  25   0 2263.94 588.953   1
  25 -20   0 2133.21 688.715   4
  20 -25   0 1353.26 582.757   4
  25 -20   0 3284.76 800.167   2
   5  20   0 3007.63 977.984   3
  20 -25   0 1182.92 267.282   2
  25 -20   3 29761.1 2572.75   3
  -5  25   3 29058.8 1735.69   1
  -5  25   3 32400.6 2393.47   3
  20 -25   3 33162.0 1707.31   4
   5  20   3 26678.1 1209.44   1
   5  20   3 34429.8 2518.87   3
  25 -20   3 36853.2 1692.74   2
  25 -20   6 4480.02 1402.42   3
  -5  25   6 5166.99 988.115   1
  -5  25   6 4634.86 1145.34   3
   5  20   6 8129.09 1591.04   3
  25 -20   9 16844.7 2703.21   3
  -5  25   9 20146.4 2310.09   3
   5  20   9 16525.3 2361.14   3
  25 -19  -7 2091.20 1231.26   4
  19 -25  -7 2772.60 1404.03   4
   6  19  -7 3442.40 1062.48   1
   6  19  -7 2147.60 1056.79   2
  25 -19  -7 2160.09 1376.33   2
   6  19  -7 1757.53 1014.39   3
  -6  25  -7 2558.45 1000.81   1
  19 -25  -7 1228.39 966.380   2
  25 -19  -4 16178.2 1876.40   4
   6  19  -4 14328.7 1472.65   2
   6  19  -4 17650.3 1586.44   1
  25 -19  -4 13981.0 1727.85   2
  19 -25  -4 14139.9 1665.88   4
 -25   6  -4 17313.9 1020.60   1
   6  19  -4 19054.8 1834.85   3
  -6  25  -4 14273.1 1461.16   1
  19 -25  -4 13356.6 1462.68   2
  -6  25  -1 408.664 549.046   1
   6  19  -1 1168.64 583.852   2
  25 -19  -1 295.418 615.689   4
  19 -25  -1-433.493 657.587   4
  -6  25  -1 432.028 173.696   2
  25 -19  -1 143.914 661.279   2
 -25   6  -1 918.126 552.468   1
   6  19  -1 808.640 453.949   1
  19 -25  -1 394.618 393.832   2
  25 -19   2 4056.71 1455.12   3
  25 -19   2 4546.14 735.356   2
  19 -25   2 4675.04 717.978   4
   6  19   2 3372.74 462.622   1
  -6  25   2 3989.04 734.590   1
   6  19   2 5112.22 1240.09   3
  25 -19   5 571.230 1153.80   3
  -6  25   5 3111.41 1091.31   3
   6  19   5 2571.48 1214.29   3
  -6  25   5 2739.78 780.088   1
  25 -19   8 9803.76 2097.79   3
  -6  25   8 13157.0 1765.98   3
   6  19   8 12781.0 1992.18   3
  -6  25   8 7554.97 1299.07   1
  25 -18  -8 3958.00 1648.48   4
   7  18  -8 6030.74 1466.15   1
  18 -25  -8 5594.16 1544.22   4
   7  18  -8 3433.15 1195.50   2
  25 -18  -8 3981.09 1510.08   2
  -7  25  -8 5007.06 1196.89   1
  18 -25  -8 4477.77 1402.67   2
   7  18  -5 22859.8 1942.76   1
  18 -25  -5 19893.1 1963.46   4
   7  18  -5 24258.8 1956.13   2
  25 -18  -5 25755.5 2369.20   2
  -7  25  -5 28366.4 2024.18   1
   7  18  -5 30409.1 2184.21   3
  25 -18  -5 24649.6 2341.78   4
  18 -25  -5 25457.8 1974.93   2
 -25   7  -5 24782.1 1180.53   1
  -7  25  -2 3927.63 767.204   1
   7  18  -2 5985.17 929.066   2
  25 -18  -2 4801.34 1074.47   4
  18 -25  -2 5962.59 1028.85   4
  25 -18  -2 4042.52 1019.14   2
   7  18  -2 6040.46 841.897   1
   7  18  -2 5459.63 1091.79   3
  18 -25  -2 4826.90 719.594   2
 -25   7  -2 4840.66 762.166   1
  25 -18   1 16489.9 1841.85   3
  -7  25   1 22750.0 1493.54   1
  25 -18   1 19407.0 1505.54   4
  25 -18   1 19158.4 1420.38   2
  18 -25   1 20937.2 1323.76   4
 -25   7   1 21251.8 1652.82   1
   7  18   1 21272.0 1954.71   3
   7  18   1 18709.3 972.062   1
  25 -18   4 2251.77 1215.97   3
  -7  25   4 2210.81 695.954   1
   7  18   4 2581.32 396.319   1
  -7  25   4 1854.17 977.754   3
   7  18   4 2050.70 1173.78   3
  25 -18   7 10066.7 1996.17   3
  -7  25   7 9832.65 1397.40   1
  -7  25   7 11953.0 1567.41   3
   7  18   7 12278.5 1983.34   3
   8  17  -9 20470.2 2442.23   1
  25 -17  -9 16810.7 2568.17   4
  17 -25  -9 25424.0 2811.34   4
  -8  25  -9 22795.5 2215.80   1
   8  17  -9 20937.8 2333.66   2
  25 -17  -9 22900.1 2995.77   2
  17 -25  -9 17249.5 2207.57   2
  25 -17  -6 4567.67 1259.26   4
  17 -25  -6 6425.00 1376.64   4
   8  17  -6 4753.63 1129.63   1
   8  17  -6 4771.49 1143.87   2
 -25   8  -6 4041.76 559.395   1
  25 -17  -6 6767.83 1643.67   2
   8  17  -6 5981.17 1104.08   3
  -8  25  -6 5509.01 1060.19   1
  17 -25  -6 5130.49 1144.92   2
 -25   8  -3 35179.5 1625.27   1
  25 -17  -3 36434.1 2540.25   4
   8  17  -3 35485.8 2052.68   2
  17 -25  -3 34274.5 2225.47   4
   8  17  -3 34397.1 1977.68   1
  25 -17  -3 35331.9 2408.77   2
   8  17  -3 35466.6 2257.75   3
  -8  25  -3 35365.3 2014.79   1
  17 -25  -3 27693.1 1634.08   2
 -25   8   0 4050.48 827.112   1
  25 -17   0 3441.89 1106.80   3
   8  17   0 3092.24 350.716   4
  25 -17   0 2311.12 687.270   4
  17 -25   0 2483.27 633.727   4
  -8  25   0 2617.27 690.368   1
  25 -17   0 3749.57 824.401   2
  -8  25   0 2489.25 271.989   2
   8  17   0 2568.66 458.246   4
   8  17   0 3188.21 514.441   1
   8  17   0 5023.09 1080.00   3
  25 -17   3 25031.6 2384.00   3
  17 -25   3 27861.0 1396.65   4
  -8  25   3 26299.3 1734.48   1
   8  17   3 23446.8 907.448   1
  25 -17   6 4829.75 1494.79   3
  -8  25   6 6495.25 1160.22   1
  -8  25   6 9841.43 1473.02   3
   8  17   6 8315.49 1641.57   3
  25 -17   9 8963.17 2059.26   3
  -8  25   9 11296.4 1766.75   3
   8  17   9 9197.35 2041.84   3
  25 -16  -7 474.822 1057.21   4
   9  16  -7 2296.76 1153.35   1
  16 -25  -7 997.518 985.672   4
   9  16  -7 3074.38 1194.61   2
  25 -16  -7 1088.68 1234.06   2
  -9  25  -7 896.646 685.924   1
  16 -25  -7 2224.02 1104.27   2
  25 -16  -4 5136.94 1228.02   4
   9  16  -4 4912.55 1024.78   2
   9  16  -4 4733.55 621.465   4
  16 -25  -4 3859.32 1038.87   4
   9  16  -4 3772.16 863.223   1
  25 -16  -4 3214.42 1088.18   2
   9  16  -4 4915.00 1099.45   3
  -9  25  -4 4819.04 926.513   1
 -25   9  -4 4332.55 628.196   1
  16 -25  -4 3196.82 843.288   2
  16 -25  -1 1293.28 225.651   2
  25 -16  -1 4103.52 1061.35   3
  -9  25  -1 3661.03 737.648   1
   9  16  -1 3580.42 421.805   4
  25 -16  -1 4757.64 909.998   4
  25 -16  -1 4499.47 933.636   2
  16 -25  -1 2537.19 711.504   4
   9  16  -1 3256.52 494.033   4
   9  16  -1 4293.16 662.771   1
 -25   9  -1 3456.02 702.514   1
   9  16  -1 3397.42 956.918   3
  25 -16   2 13808.8 1662.39   3
  16 -25   2 14901.0 1010.85   4
   9  16   2 16004.4 721.396   1
  -9  25   2 17771.9 1371.45   1
   9  16   2 18470.0 1883.81   3
 -25   9   2 19386.8 1721.24   1
  25 -16   5 2586.59 1279.17   3
  -9  25   5 132.860 777.399   3
   9  16   5 2874.21 1152.56   3
  -9  25   5 936.679 682.116   1
  25 -16   8-838.480 1437.91   3
  -9  25   8 2198.90 1031.10   1
  -9  25   8 3140.24 1273.99   3
   9  16   8 3178.08 1513.45   3
  25 -15  -8 2967.30 1450.50   4
  10  15  -8 4390.67 1304.56   1
  15 -25  -8 1463.17 1145.23   4
  10  15  -8 2256.54 1131.54   2
  25 -15  -8 4401.92 1823.44   2
 -10  25  -8 3981.28 1096.83   1
  15 -25  -8 2919.44 1141.66   2
  10  15  -5 11051.4 1476.41   1
  25 -15  -5 8998.99 1557.11   4
  10  15  -5 10309.1 1462.19   2
  15 -25  -5 9717.72 1456.45   4
  10  15  -5 9634.57 1007.85   4
  25 -15  -5 10115.7 1693.10   2
 -25  10  -5 10972.6 900.302   1
 -10  25  -5 11069.1 1319.08   1
  10  15  -5 13079.2 1347.07   3
  15 -25  -5 8157.66 1185.78   2
  25 -15  -2 9383.97 1336.30   3
 -25  10  -2 7306.08 892.761   1
  25 -15  -2 5956.48 1143.65   4
  10  15  -2 7393.07 647.434   4
  25 -15  -2 9467.47 1398.43   2
  15 -25  -2 8979.55 1127.65   4
  10  15  -2 8992.24 976.324   1
  10  15  -2 7457.37 611.119   4
  10  15  -2 7936.32 1239.25   3
  10  15  -2 8110.53 1009.15   2
 -10  25  -2 8824.41 1055.37   1
  15 -25  -2 6038.69 637.738   2
  25 -15   1 3154.68 1039.11   3
 -10  25   1 4597.64 811.770   1
  25 -15   1 3403.78 769.336   2
  10  15   1 3633.28 723.996   4
 -10  25   1 2794.00 400.583   2
  10  15   1 4436.18 1077.10   3
  15 -25   1 3065.84 556.250   4
 -25  10   1 4400.69 919.373   1
  10  15   1 3307.74 424.524   1
  25 -15   4 7406.35 1577.77   3
  10  15   4 11603.7 1732.36   3
 -10  25   4 9281.55 1181.15   1
  25 -15   7 3785.19 1458.14   3
 -10  25   7 7269.91 1318.67   3
 -10  25   7 4942.76 1112.44   1
  10  15   7 7349.02 1651.44   3
  11  14  -9 20059.4 2510.99   1
  25 -14  -9 19267.6 2709.28   4
  14 -25  -9 22474.0 2635.58   4
  11  14  -9 19244.8 2407.42   2
 -11  25  -9 22419.7 2131.70   1
  25 -14  -9 15863.7 2473.72   2
  14 -25  -9 16920.7 2147.52   2
 -25  11  -6 6985.69 760.798   1
  25 -14  -6 8743.85 1636.55   4
  11  14  -6 5825.21 1257.99   1
  14 -25  -6 8518.20 1475.90   4
  11  14  -6 7580.51 1088.76   4
  11  14  -6 7710.52 1379.12   2
  25 -14  -6 4596.48 1352.77   2
  11  14  -6 7440.69 1118.36   3
 -11  25  -6 5526.40 1041.02   1
  14 -25  -6 5728.43 1126.50   2
  11  14  -3 39606.5 2276.13   2
  25 -14  -3 38930.9 2493.74   4
  11  14  -3 43268.3 2222.19   1
  11  14  -3 39845.5 1633.76   4
  25 -14  -3 43012.9 2660.82   2
  14 -25  -3 40213.6 2259.23   4
  11  14  -3 46332.9 2462.23   3
 -25  11  -3 41505.7 1817.17   1
 -11  25  -3 40453.6 2172.44   1
  14 -25  -3 35353.3 1641.17   2
  25 -14   0 12735.7 1591.47   3
 -11  25   0 15604.3 1299.04   1
  11  14   0 12375.7 773.285   4
  25 -14   0 15107.3 1372.03   4
  25 -14   0 15454.2 1381.72   2
  14 -25   0 12765.5 1070.31   4
  11  14   0 12908.9 1019.49   4
 -25  11   0 15649.9 1395.53   1
  11  14   0 13976.1 892.316   1
  11  14   0 15417.7 1636.29   3
  25 -14   3 24073.0 2287.52   3
  14 -25   3 25525.9 1129.56   4
 -11  25   3 26062.7 1796.12   1
  11  14   3 23791.3 2214.80   3
 -25  11   3 23255.6 1949.76   1
 -11  25   6 10595.5 1469.31   1
 -11  25   6 9413.64 1330.81   3
  11  14   6 15012.7 2017.90   3
  25 -14   6 11372.2 1975.13   3
  25 -14   9 13992.1 2333.09   3
 -11  25   9 15404.3 1928.81   1
 -11  25   9 17021.7 2060.86   3
  11  14   9 19134.5 2632.65   3
 -25  12  -7 8289.40 868.399   1
  12  13  -7 8639.29 1599.86   1
  25 -13  -7 7286.35 1652.90   4
  12  13  -7 8915.25 1289.38   4
  12  13  -7 11783.9 1814.56   2
  13 -25  -7 8012.48 1530.88   4
  25 -13  -7 8619.82 1849.15   2
 -12  25  -7 8026.00 1248.24   1
  13 -25  -7 9269.99 1397.52   2
  25 -13  -4 6470.17 1282.35   4
  12  13  -4 6617.74 874.785   4
  12  13  -4 4315.41 949.169   1
  12  13  -4 5958.17 1186.56   2
  13 -25  -4 8168.32 1250.78   4
  25 -13  -4 6989.00 1338.03   2
 -25  12  -4 5927.16 748.886   1
  12  13  -4 7052.34 1120.88   3
 -12  25  -4 6871.02 1069.65   1
  13 -25  -4 5632.38 911.467   2
 -12  25  -1 7193.26 942.419   1
 -25  12  -1 7702.62 944.350   1
  25 -13  -1 4733.21 1085.96   3
  25 -13  -1 6159.21 989.921   4
  12  13  -1 6606.46 637.637   4
  25 -13  -1 6583.59 1075.41   2
  13 -25  -1 5252.07 796.082   4
  12  13  -1 6984.62 798.482   1
  12  13  -1 6242.98 713.114   4
  12  13  -1 6726.08 1157.58   3
  25 -13   2 9980.37 1557.19   3
 -25  12   2 11822.0 1416.72   1
  13 -25   2 10147.2 750.076   4
 -12  25   2 8562.67 830.685   2
 -12  25   2 11309.3 1185.59   1
  12  13   2 7596.40 356.454   1
  13 -25   2 9316.25 756.419   4
  12  13   2 8451.85 452.667   1
  12  13   2 11454.8 1689.78   3
  25 -13   5 1670.40 1070.49   3
 -12  25   5 1130.88 651.077   3
  12  13   5 577.452 948.257   3
 -12  25   5 2039.98 838.239   1
 -25  12   5 2324.10 941.871   1
  25 -13   8 3993.06 1599.35   3
 -12  25   8 7364.55 1428.90   3
  12  13   8 7499.27 1749.05   3
 -25  13  -8 5282.67 787.821   1
  12 -25  -8 8013.96 1424.48   2
  25 -12  -8 8633.66 1907.81   4
  13  12  -8 6068.02 1307.84   4
  13  12  -8 9426.97 1923.15   2
  12 -25  -8 6164.51 1510.76   4
  25 -12  -8 6073.43 1745.61   2
 -13  25  -8 5936.30 1299.25   1
  12 -25  -5 2181.34 765.309   2
  25 -12  -5 2749.24 1183.07   4
  13  12  -5 2930.38 822.065   4
  13  12  -5 3626.22 1192.78   2
  12 -25  -5 3162.03 1118.72   4
  25 -12  -5 228.596 937.674   2
 -25  13  -5 2364.87 540.523   1
  13  12  -5 2701.24 804.264   3
 -13  25  -5 2633.33 814.272   1
  25 -12  -2 6015.37 1124.36   3
  13  12  -2 9220.75 1140.40   2
  25 -12  -2 6858.10 1172.86   4
  13  12  -2 9034.45 826.578   4
  25 -12  -2 10908.1 1431.19   2
  12 -25  -2 8612.46 1005.72   4
  13  12  -2 8995.46 1045.67   1
  13  12  -2 10690.1 1391.30   3
 -25  13  -2 9768.12 1020.65   1
 -13  25  -2 9602.57 1092.43   1
  13  12   1 6385.64 581.077   1
  25 -12   1 8153.81 1109.72   2
  12 -25   1 7393.53 686.391   4
 -13  25   1 7350.40 993.853   1
 -25  13   1 7291.51 1053.58   1
  13  12   1 7999.44 1332.94   3
  13  12   1 6802.24 446.106   1
  25 -12   1 9659.84 1495.01   3
  25 -12   4 3882.04 1347.33   3
  12 -25   4 6124.03 541.247   4
 -13  25   4 4092.89 932.573   1
 -25  13   4 3497.64 918.685   1
  13  12   4 5611.65 1449.65   3
  25 -12   7 7109.97 1799.33   3
 -13  25   7 5851.99 1288.60   1
 -13  25   7 7274.88 1303.33   3
  13  12   7 9020.38 1797.25   3
  25 -11  -9 16948.7 2632.59   4
  14  11  -9 19062.6 2168.28   4
  11 -25  -9 17323.3 2334.53   4
  14  11  -9 19102.7 2506.87   2
  25 -11  -9 15479.8 2592.57   2
 -14  25  -9 14918.8 1840.12   1
  11 -25  -9 18533.7 2060.63   2
 -25  14  -9 18116.7 1390.50   1
 -25  14  -6 13932.8 1107.06   1
  25 -11  -6 14449.5 2015.56   4
  14  11  -6 13751.1 1437.43   4
  14  11  -6 11108.8 1708.92   2
  25 -11  -6 12634.8 1976.23   2
  11 -25  -6 12117.8 1596.30   4
 -14  25  -6 13198.7 1440.85   1
  14  11  -6 14434.0 1292.74   3
  11 -25  -6 13230.4 1473.73   2
  11 -25  -3 19346.5 1169.84   2
  25 -11  -3 18103.6 1561.91   3
  14  11  -3 25200.0 1792.25   1
  14  11  -3 20320.7 1808.05   2
  25 -11  -3 17771.8 1766.05   4
  14  11  -3 19129.4 1301.48   4
  25 -11  -3 22805.9 2010.88   2
  11 -25  -3 17409.9 1448.99   4
 -25  14  -3 22271.0 1398.44   1
  14  11  -3 21753.5 1719.18   3
 -14  25  -3 17973.8 1467.32   1
  14  11   0 13282.6 985.241   1
 -25  14   0 14955.5 1399.41   1
 -14  25   0 14962.8 1324.70   1
  25 -11   0 11603.3 1234.20   4
  25 -11   0 18991.7 1515.40   2
  11 -25   0 12479.2 896.199   4
  14  11   0 14904.5 864.553   1
  14  11   0 16159.2 1711.05   3
  25 -11   0 13628.1 1586.28   3
 -25  14   3 43103.0 2617.27   1
  11 -25   3 39150.6 1127.78   4
 -14  25   3 40637.7 2279.53   1
  14  11   3 45344.6 2897.68   3
  25 -11   3 36831.3 2717.80   3
  25 -11   6 5868.89 1496.53   3
 -14  25   6 6031.84 1251.79   1
 -14  25   6 4933.74 1112.59   3
  14  11   6 6806.63 1571.75   3
 -14  25   9 18311.6 2291.03   1
 -14  25   9 20304.5 2099.91   3
  14  11   9 22443.6 2837.40   3
 -25  15  -7 5180.67 818.164   1
  25 -10  -7 7157.47 1575.07   4
  15  10  -7 6613.08 1218.43   4
  25 -10  -7 11103.4 2032.78   2
  10 -25  -7 7801.50 1448.12   4
  15  10  -7 6761.07 1559.10   2
 -15  25  -7 5559.16 1079.94   1
  10 -25  -7 7943.92 1297.54   2
  10 -25  -4 10265.9 1037.78   2
  25 -10  -4 7487.13 1020.49   3
  25 -10  -4 11611.2 1610.15   4
  15  10  -4 10421.6 1132.27   4
  25 -10  -4 11075.7 1736.14   2
 -25  15  -4 10185.7 998.773   1
  10 -25  -4 11370.0 1319.51   4
  15  10  -4 11673.7 1541.89   2
  15  10  -4 14134.3 1400.15   3
 -15  25  -4 10530.1 1195.97   1
 -15  25  -1 4576.86 820.072   1
  25 -10  -1 5343.31 1107.50   3
  25 -10  -1 5417.56 957.847   4
  15  10  -1 4773.52 651.566   4
  25 -10  -1 6267.03 1058.96   2
  15  10  -1 4739.52 670.368   1
  10 -25  -1 5542.82 747.990   4
  15  10  -1 6421.70 1204.31   3
 -25  15  -1 4959.84 833.129   1
  15  10  -1 3424.47 685.264   1
  25 -10   2 8235.69 1458.83   3
 -15  25   2 6784.80 616.987   2
  10 -25   2 6078.55 413.874   4
 -15  25   2 9846.51 1144.04   1
 -25  15   2 9078.78 1249.12   1
  15  10   2 9722.28 1488.51   3
  25 -10   5 7204.33 1662.03   3
 -15  25   5 11028.7 1465.93   1
  15  10   5 11573.4 1814.29   3
 -25  15   5 11215.0 1621.35   1
  25 -10   8 7066.20 1880.46   3
 -15  25   8 4290.54 1286.67   1
 -15  25   8 2818.11 1039.66   3
  15  10   8 3701.14 1599.79   3
   9 -25  -8 2973.18 1079.97   2
 -25  16  -8 2962.21 715.377   1
  25  -9  -8 595.958 1310.63   4
  16   9  -8 2770.95 1063.65   4
   9 -25  -8 186.233 921.213   4
  16   9  -8 4144.83 1551.45   2
  25  -9  -8 2313.81 1435.00   2
 -16  25  -8 3992.77 1011.18   1
   9 -25  -5 1186.58 673.039   2
  16   9  -5 1280.72 831.026   4
  16   9  -5-274.120 1076.62   2
  25  -9  -5 335.211 933.426   2
 -25  16  -5 1565.13 549.948   1
   9 -25  -5 515.481 702.079   4
  25  -9  -5 1403.02 1015.68   4
  16   9  -5 1405.68 746.984   3
 -16  25  -5 1154.01 680.748   1
 -16  25  -2 16561.1 1369.60   1
  25  -9  -2 13108.0 1441.74   3
  16   9  -2 16593.5 1523.81   2
  25  -9  -2 14780.5 1525.50   4
  16   9  -2 16113.9 1207.44   4
  25  -9  -2 15675.9 1684.27   2
   9 -25  -2 13720.9 1132.70   4
 -25  16  -2 14397.2 1236.62   1
  16   9  -2 17182.4 1585.42   3
  25  -9   1 5093.84 1245.14   3
  16   9   1 2751.12 254.385   1
 -16  25   1 2913.97 774.384   1
  16   9   1 3456.86 1019.34   3
 -25  16   1 2841.31 775.230   1
  16   9   1 2657.66 281.106   1
  25  -9   4 4146.09 1245.75   3
 -16  25   4 4084.00 999.107   1
  16   9   4 2601.08 1154.89   3
 -25  16   4 4154.49 1040.70   1
  25  -9   7 1723.82 1210.97   3
 -16  25   7 589.841 759.011   3
 -16  25   7 987.753 1044.75   1
  16   9   7 844.571 1198.29   3
   8 -25  -9 8042.85 1461.95   2
  25  -8  -9 9687.38 2016.53   4
  17   8  -9 11436.5 1806.19   4
  17   8  -9 15886.4 2524.11   2
  25  -8  -9 12638.8 2527.63   2
   8 -25  -9 8142.82 1723.46   4
 -17  25  -9 12066.5 1545.10   1
 -25  17  -9 12409.3 1252.84   1
   8 -25  -6 8264.92 1168.09   2
 -25  17  -6 7035.22 935.743   1
  25  -8  -6 9162.98 1763.36   4
  17   8  -6 6316.43 1183.49   4
  17   8  -6 8398.64 1639.50   2
  25  -8  -6 8424.77 1740.23   2
   8 -25  -6 7056.06 1254.01   4
 -17  25  -6 6269.54 1083.91   1
  25  -8  -3 29169.0 1974.06   3
  25  -8  -3 27588.6 2096.03   4
  17   8  -3 28506.4 1750.14   4
 -25  17  -3 30538.0 1702.74   1
   8 -25  -3 30198.7 1696.18   4
  17   8  -3 24319.1 1955.72   2
  25  -8  -3 33971.5 2513.57   2
  17   8  -3 31344.1 2024.06   3
 -17  25  -3 32394.8 1917.77   1
  25  -8   0 4584.78 1189.18   3
  25  -8   0 3755.86 826.516   4
  25  -8   0 3054.88 775.854   2
  17   8   0 3104.70 510.293   1
  17   8   0 3771.58 571.532   1
 -25  17   0 2662.99 733.013   1
 -17  25   0 3907.83 753.648   1
  17   8   0 2463.03 914.044   3
 -25  17   3 32928.9 2270.56   1
  17   8   3 30863.4 2554.47   3
 -17  25   3 34614.1 2179.03   1
  25  -8   3 27098.3 2385.14   3
  25  -8   6 5594.03 1558.08   3
 -17  25   6 6910.68 1348.12   1
  17   8   6 8416.14 1662.52   3
 -25  17   6 5445.29 1417.20   1
 -17  25   9 24284.2 2607.32   1
 -17  25   9 19532.9 1973.72   3
  17   8   9 24020.1 2923.58   3
  25  -8   9 19734.6 2661.43   3
   7 -25  -7 10954.7 1431.38   2
  25  -7  -7 11288.0 1980.83   4
  18   7  -7 14260.8 1817.72   4
  18   7  -7 14049.5 2222.78   2
  25  -7  -7 11830.8 2053.36   2
   7 -25  -7 12149.3 1609.01   4
 -18  25  -7 12375.6 1459.42   1
 -25  18  -7 13780.4 1295.30   1
  25  -7  -4 2982.80 802.259   3
  25  -7  -4 2955.28 955.493   4
  18   7  -4 4432.33 965.138   4
  18   7  -4 4555.87 1213.66   2
  25  -7  -4 4317.14 1224.49   2
   7 -25  -4 3329.77 790.814   4
 -25  18  -4 2840.70 702.415   1
  18   7  -4 4433.55 947.652   3
 -18  25  -4 4245.02 962.114   1
 -18  25  -1 17985.9 1434.43   1
  18   7  -1 22200.3 1658.47   2
  25  -7  -1 18490.2 1539.19   4
  18   7  -1 18616.0 1220.72   4
   7 -25  -1 15285.9 751.521   4
 -25  18  -1 20241.5 1533.65   1
  18   7  -1 22569.7 1954.08   3
  25  -7  -1 18145.5 1786.15   3
  25  -7  -1 21428.3 1706.51   2
  25  -7   2 3320.37 1105.30   3
 -25  18   2 4511.87 989.501   1
 -18  25   2 5956.13 963.207   1
  18   7   2 4987.88 1307.34   3
 -25  18   5 22124.0 2117.47   1
 -18  25   5 25463.7 2184.71   1
  18   7   5 20628.0 2325.33   3
  25  -7   5 22045.1 2333.10   3
  25  -7   8 5035.65 1672.65   3
 -18  25   8 4389.91 1451.50   1
 -18  25   8 3678.37 1085.29   3
  18   7   8 3313.07 1623.83   3
   6 -25  -8 11352.6 1502.46   2
  19   6  -8 12337.7 1830.34   4
  19   6  -8 12398.7 2259.24   2
   6 -25  -8 12876.0 1783.91   4
  25  -6  -8 8811.96 1914.17   2
  -6 -19  -8 13577.6 1543.87   4
 -19  25  -8 13585.8 1587.15   1
  25  -6  -8 14693.9 2401.14   4
 -25  19  -8 12734.6 1294.45   1
 -19  25  -5 2894.20 807.728   1
  25  -6  -5 4658.36 1204.43   4
  19   6  -5 3028.10 967.860   4
 -25  19  -5 2568.99 729.088   1
  19   6  -5 4092.42 1323.23   2
  25  -6  -5 2639.91 1155.15   2
   6 -25  -5 2798.98 854.798   4
  19   6  -5 1805.12 723.920   3
  25  -6  -2 4148.67 1168.92   3
  25  -6  -2 1739.62 682.377   4
  19   6  -2 2437.78 691.938   4
  19   6  -2 2643.69 843.456   2
  25  -6  -2 3105.79 1010.85   2
 -19  25  -2 2845.61 733.749   1
   6 -25  -2 1714.48 440.841   4
 -25  19  -2 2529.72 705.913   1
  19   6  -2 2433.97 901.124   3
  19   6   1 435.778 175.374   1
 -25  19   1 519.068 558.768   1
  19   6   1 200.208 922.653   3
 -19  25   1 707.156 608.613   1
  25  -6   1-1529.04 1024.12   3
 -19  25   4 14010.4 1631.43   1
 -25  19   4 17728.4 1847.50   1
  19   6   4 18874.4 2107.80   3
  25  -6   4 15820.5 1985.64   3
 -25  19   7 2223.50 1003.15   1
 -19  25   7 1452.74 890.838   3
 -19  25   7 1409.49 1098.81   1
  25  -6   7 3173.25 1430.92   3
   5 -25  -9 15248.0 1789.72   2
  25  -5  -9 22964.4 2873.21   4
  20   5  -9 19050.9 2289.11   4
  20   5  -9 19731.9 2852.41   2
  25  -5  -9 23833.9 3079.80   2
   5 -25  -9 21681.3 2309.06   4
  -5 -20  -9 20898.9 1996.45   4
 -20  25  -9 24025.2 2070.98   1
 -25  20  -9 19248.2 1649.25   1
 -25  20  -6 5655.50 932.324   1
 -20  25  -6 4693.09 919.769   1
   5 -25  -6 6930.76 1095.46   2
  25  -5  -6 5884.34 1464.99   4
  20   5  -6 4208.54 1064.67   4
  20   5  -6 7183.64 1589.30   2
  25  -5  -6 5995.49 1685.03   2
   5 -25  -6 5158.52 1089.85   4
 -20  25  -3 37507.2 2073.20   1
  25  -5  -3 30236.9 2188.98   4
  20   5  -3 33309.2 2326.50   2
  25  -5  -3 34377.1 2497.95   2
 -25  20  -3 34720.3 1895.17   1
  20   5  -3 34389.4 2037.83   4
   5 -25  -3 32755.1 1572.00   4
  20   5  -3 34438.6 2208.95   3
  25  -5  -3 31054.5 2091.24   3
  25  -5   0 5371.66 841.678   4
  25  -5   0 4783.13 942.411   2
 -20  25   0 3740.79 797.358   1
 -25  20   0 5480.97 909.359   1
  20   5   0 6318.29 1259.27   3
  25  -5   0 3242.34 1098.71   3
 -25  20   3 29823.7 2209.95   1
  20   5   3 35906.1 2675.74   3
 -20  25   3 30171.7 2165.00   1
  25  -5   3 29991.0 2531.53   3
 -25  20   6 8194.34 1533.76   1
  20   5   6 7021.29 1670.20   3
 -20  25   6 6628.14 1450.85   1
  25  -5   6 4202.37 1399.32   3
  25  -5   9 6627.29 1910.02   3
 -20  25   9 9859.46 1957.07   1
  20   5   9 6210.78 1954.44   3
   4 -25  -7 16082.7 1615.12   2
  25  -4  -7 16653.5 2285.21   4
  21   4  -7 13579.1 1823.34   4
  21   4  -7 14156.1 2375.96   2
  25  -4  -7 12906.8 2375.55   2
   4 -25  -7 14848.8 1716.08   4
  -4 -21  -7 14072.3 1457.52   4
 -21  25  -7 13837.8 1526.26   1
 -25  21  -7 16740.8 1489.56   1
 -25  21  -4 14304.9 1318.97   1
  21   4  -4 11230.3 1420.90   4
  21   4  -4 13284.1 1861.38   2
  25  -4  -4 14627.3 1902.44   2
  25  -4  -4 11129.0 1570.41   4
   4 -25  -4 11236.0 1117.78   4
  21   4  -4 13568.5 1404.69   3
 -21  25  -4 11905.5 1305.27   1
  25  -4  -4 13587.8 1366.82   3
  25  -4  -1 28390.6 1849.45   4
  21   4  -1 29180.9 1642.50   4
  25  -4  -1 27621.4 1988.50   2
 -21  25  -1 28547.0 1839.14   1
 -25  21  -1 32070.9 1899.33   1
  21   4  -1 28316.0 1901.26   2
  21   4  -1 32095.0 2289.59   3
  25  -4  -1 32451.9 2338.96   3
 -21  25   2 1368.67 684.637   1
 -25  21   2 1704.36 759.212   1
  21   4   2 1105.34 1084.05   3
  25  -4   2 1597.85 1125.40   3
 -21  25   5 15719.9 1813.59   1
  21   4   5 16234.0 2170.69   3
  25  -4   5 13221.6 2005.43   3
 -25  21   5 19192.3 2059.16   1
 -25  21   8 7873.28 1734.76   1
 -21  25   8 8161.87 1764.23   1
 -21  25   8 4903.09 1213.34   3
  21   4   8 9171.59 2087.15   3
  25  -4   8 8325.71 1937.10   3
  25  -3  -8 13570.3 2199.05   4
  22   3  -8 14719.1 2060.49   4
  22   3  -8 14730.6 2729.04   2
  25  -3  -8 17488.6 2690.59   2
   3 -25  -8 17687.4 1946.68   4
  -3 -22  -8 16501.0 1701.30   4
 -22  25  -8 13108.2 1508.87   1
 -25  22  -8 17799.4 1609.94   1
 -22  25  -5 1300.21 674.960   1
  25  -3  -5 228.768 852.933   4
  22   3  -5 1429.15 884.019   4
 -25  22  -5 231.519 557.316   1
  22   3  -5 579.859 1142.99   2
  25  -3  -5 2896.07 1319.54   2
   3 -25  -5 1690.26 697.788   4
 -22  25  -2 10532.4 1202.73   1
  25  -3  -2 8354.90 1192.29   4
  22   3  -2 8843.31 1293.82   2
  22   3  -2 8402.70 1098.78   4
  25  -3  -2 9226.57 1357.26   2
 -25  22  -2 8596.78 1071.60   1
  22   3  -2 6877.38 1194.13   3
  25  -3  -2 9756.27 1437.70   3
 -22  25   1 7160.25 1096.23   1
 -25  22   1 5256.05 1020.03   1
  22   3   1 5779.22 1257.55   3
  25  -3   1 6127.93 1463.43   3
 -22  25   4 13618.8 1628.51   1
 -25  22   4 14200.7 1660.64   1
  22   3   4 12421.2 1970.75   3
  25  -3   4 12842.3 1951.21   3
 -25  22   7 117.952 993.288   1
  22   3   7 1084.35 1360.94   3
  25  -3   7 1301.43 1182.20   3
 -22  25   7 3454.35 1348.84   1
 -23  25  -6 4380.49 918.620   1
  25  -2  -6 4264.70 1420.55   4
  23   2  -6 4689.78 1249.70   4
  23   2  -6 1231.99 1290.24   2
  25  -2  -6 5834.07 1712.86   2
   2 -25  -6 3737.21 940.886   4
  -2 -23  -6 4731.32 888.861   4
 -25  23  -6 5494.61 942.413   1
 -25  23  -3 23303.5 1675.38   1
 -23  25  -3 20947.9 1674.33   1
  25  -2  -3 19247.2 1764.49   4
  23   2  -3 18427.9 1660.99   4
  23   2  -3 18163.8 1848.85   2
  25  -2  -3 23126.5 2107.31   2
  23   2  -3 18150.2 1751.10   3
  25  -2  -3 24191.7 1965.63   3
  23   2   0 7266.19 913.489   4
  25  -2   0 6437.74 966.355   4
 -23  25   0 7484.47 1068.45   1
 -25  23   0 6019.47 990.690   1
  23   2   0 7228.63 1365.87   3
 -23  25   3 13884.0 1547.18   1
 -25  23   3 18756.7 1820.69   1
  23   2   3 19405.7 2090.33   3
  25  -2   3 20256.9 2259.82   3
 -23  25   6 3520.06 1240.25   1
 -25  23   6 4360.01 1321.07   1
  23   2   6 1296.39 1418.79   3
  25  -2   6 3035.14 1612.29   3
  24   1  -7 12245.0 1890.01   4
  25  -1  -7 8857.62 1735.69   4
  25  -1  -7 13332.9 2456.23   2
  24   1  -7 10379.7 2351.35   2
   1 -25  -7 8672.78 1320.41   4
  -1 -24  -7 10969.1 1330.72   4
 -24  25  -7 10037.9 1305.85   1
 -25  24  -7 11279.4 1362.33   1
 -24  25  -4 9758.53 1226.46   1
 -25  24  -4 11465.1 1284.71   1
  25  -1  -4 10036.0 1529.94   4
  24   1  -4 13524.0 1619.46   4
  24   1  -4 10744.9 1786.38   2
  25  -1  -4 15944.1 2008.20   2
   1 -25  -4 12107.0 1018.07   4
  24   1  -4 11885.9 1362.51   3
  25  -1  -4 12345.0 1405.36   3
  24   1  -1 26937.9 1963.45   2
  25  -1  -1 24422.2 1693.00   4
  24   1  -1 25592.9 1699.84   4
  25  -1  -1 31530.4 2154.27   2
 -24  25  -1 30299.9 1955.77   1
 -25  24  -1 32956.7 2056.56   1
  24   1  -1 28877.1 2338.74   3
  25  -1  -1 34196.9 2483.76   3
 -24  25   2 5720.61 1071.90   1
  24   1   2 6535.45 1414.12   3
  25  -1   2 5450.50 1367.04   3
 -25  24   2 4837.33 1046.55   1
 -24  25   5 13817.7 1875.55   1
 -25  24   5 17605.7 2001.12   1
  24   1   5 15664.2 2190.86   3
  25  -1   5 15570.5 2199.67   3
 -25  24   8 2617.72 1346.92   1
 -24  25   8 6125.10 1723.94   1
  24   1   8 3584.20 1834.57   3
  25  -1   8 3256.63 1701.80   3
  25   0  -8 2150.25 1413.56   4
  25   0  -8 4297.50 1943.67   2
   0 -25  -8 1657.89 852.501   4
  25   0  -5-144.619 862.909   4
 -25  25  -5-224.359 583.437   1
  25   0  -5 1372.21 1225.51   2
   0 -25  -5 191.258 550.382   4
  25   0  -2 32504.0 2093.35   4
  25   0  -2 32286.6 2361.59   2
 -25  25  -2 40159.5 2229.84   1
  25   0  -2 35874.8 2525.58   3
 -25  25   1-375.468 698.421   1
  25   0   1 1213.98 1180.70   3
 -25  25   4 15598.5 1816.65   1
  25   0   4 16341.9 2171.77   3
 -25  25   7 1046.18 1297.74   1
  25   0   7 323.161 1312.83   3
  26 -26  -5 86.9468 973.753   4
  26 -26  -5 1193.64 1068.42   2
   0  26  -5-382.892 760.101   1
   0  26  -2 40215.0 1767.72   2
  26 -26  -2 42223.7 2733.48   4
   0  26  -2 46263.0 3132.78   3
   0  26  -2 44190.5 2193.26   1
  26 -26   1-946.418 693.059   4
   0  26   1 28.6359 414.177   1
   0  26   4 26345.4 2395.97   3
   0  26   4 18506.8 1354.26   1
   0  26   7-955.981 1189.61   3
  26 -25  -6 835.628 1088.60   4
  25 -26  -6 362.605 1052.09   4
   1  25  -6 1361.39 838.293   1
  -1  26  -6 2603.21 1049.52   1
  26 -25  -6 135.904 1096.35   2
  25 -26  -6 2695.95 1212.58   2
  26 -25  -3 14907.1 1794.47   4
  25 -26  -3 16100.0 1824.19   4
   1  25  -3 12665.4 1177.45   2
  26 -25  -3 13922.1 1680.15   2
  25 -26  -3 11896.0 1428.85   2
   1  25  -3 18960.6 2104.13   3
   1  25  -3 13654.1 1412.80   1
  -1  26  -3 12756.2 1363.26   1
  26 -25   0 6516.47 1117.73   4
  25 -26   0 8358.15 1157.69   4
  25 -26   0 6009.58 858.054   2
  26 -25   0 4570.05 878.115   2
  -1  26   0 7508.30 1565.28   3
   1  25   0 7384.66 1333.43   3
   1  25   0 5959.26 819.964   1
  -1  26   0 6396.63 866.882   1
  25 -26   3 15386.6 1410.42   4
  26 -25   3 15098.1 1504.16   4
  -1  26   3 12424.5 1152.07   1
   1  25   3 12048.4 1016.88   1
  -1  26   3 12322.5 1783.87   3
   1  25   3 9770.92 1613.25   3
  26 -25   6 2738.00 1533.54   3
  -1  26   6 1632.45 1113.30   3
   1  25   6 4068.08 1427.51   3
  26 -24  -7 2047.13 1253.28   4
  24 -26  -7 3249.49 1330.54   4
   2  24  -7 1091.36 869.156   1
  -2  26  -7 1325.05 808.075   1
  26 -24  -7 2890.79 1573.69   2
  24 -26  -7 1486.77 1266.31   2
  26 -24  -4 7894.09 1483.84   4
  24 -26  -4 7467.29 1455.69   4
   2  24  -4 7401.99 1066.41   2
   2  24  -4 8356.01 1179.12   1
   2  24  -4 8176.19 1527.40   3
  -2  26  -4 7846.65 1191.38   1
  26 -24  -4 8049.76 1399.51   2
  24 -26  -4 6147.13 1293.15   2
  -2  26  -1 3040.27 685.678   1
   2  24  -1 4336.44 733.570   2
  -2  26  -1 3975.03 570.269   2
  24 -26  -1 4195.62 960.018   4
  26 -24  -1 4406.03 1079.55   4
  26 -24  -1 2385.32 830.787   2
   2  24  -1 3599.77 1146.03   3
  24 -26  -1 3358.03 778.444   2
   2  24  -1 3922.99 746.071   1
  26 -24   2 2183.21 713.176   4
  24 -26   2 2666.06 740.051   4
   2  24   2 3320.98 594.373   1
  26 -24   2 2693.03 659.344   2
  -2  26   2 2914.61 650.431   1
  -2  26   2 2491.21 1019.35   3
   2  24   2 2349.48 1088.04   3
  26 -24   5 7820.96 1915.96   3
  -2  26   5 10094.2 1127.91   1
  -2  26   5 12313.6 1785.29   3
   2  24   5 10717.8 1730.13   3
  26 -24   8 1576.76 1610.00   3
  -2  26   8 4695.04 1453.96   3
   2  24   8 4166.02 1709.92   3
   3  23  -8 13899.4 1885.18   1
  26 -23  -8 11753.0 2139.27   4
  23 -26  -8 11823.6 2167.21   4
  -3  26  -8 14687.3 1896.24   1
  26 -23  -8 13293.8 2358.13   2
  23 -26  -8 12494.6 2097.54   2
  26 -23  -5 242.784 956.356   4
  23 -26  -5 1025.03 1020.33   4
   3  23  -5 2755.59 852.361   2
   3  23  -5 1346.07 1168.23   3
   3  23  -5 1660.39 716.118   1
  26 -23  -5 1191.35 1130.76   2
  -3  26  -5 398.200 734.424   1
  23 -26  -5 2093.00 1069.04   2
   3  23  -2 40956.6 1904.88   2
  26 -23  -2 38479.9 2498.25   4
  23 -26  -2 40425.5 2452.14   4
  26 -23  -2 40036.6 2386.18   2
   3  23  -2 46725.4 2991.16   3
   3  23  -2 45595.3 2167.18   1
  -3  26  -2 45510.0 2230.12   1
  -3  26   1 3480.38 750.023   1
  26 -23   1 5115.59 966.173   4
  23 -26   1 2238.39 719.393   4
   3  23   1 2421.81 530.246   1
  26 -23   1 3200.88 746.123   2
  -3  26   1 2824.67 1080.06   3
   3  23   1 1291.10 985.333   3
   3  23   4 23781.0 1320.43   1
  26 -23   4 23612.8 2514.04   3
  26 -23   4 29426.3 1441.62   2
  -3  26   4 27097.5 2295.77   3
   3  23   4 31523.9 2529.73   3
  -3  26   4 23427.5 1611.92   1
  -3  26   7 3846.48 957.929   1
  26 -23   7 477.200 1294.02   3
  -3  26   7 4500.80 1438.22   3
   3  23   7 4412.33 1355.73   3
  26 -22  -6 13660.8 2056.25   4
  22 -26  -6 11052.6 1770.24   4
   4  22  -6 12790.7 1595.19   1
   4  22  -6 12135.4 1488.58   2
  26 -22  -6 11730.5 1908.65   2
  -4  26  -6 12849.3 1546.13   1
   4  22  -6 17040.7 1995.91   3
  22 -26  -6 11695.9 1769.68   2
  26 -22  -3 10030.7 1465.67   4
  22 -26  -3 12890.4 1558.97   4
   4  22  -3 10590.8 1167.30   2
  26 -22  -3 10596.3 1563.70   2
   4  22  -3 11860.7 1240.49   1
   4  22  -3 13110.6 1695.93   3
  22 -26  -3 12111.5 1339.15   2
  -4  26  -3 11764.8 1280.92   1
  -4  26   0 15788.5 1265.54   1
  26 -22   0 12112.6 1398.18   4
  22 -26   0 12877.6 1299.42   4
  26 -22   0 13869.9 1331.59   2
   4  22   0 18753.3 1890.42   3
  22 -26   0 9594.30 749.795   2
   4  22   0 14224.0 1060.52   1
  26 -22   3 6707.59 1575.00   3
  26 -22   3 10572.8 992.052   2
  22 -26   3 9917.61 1081.54   4
  -4  26   3 8735.50 999.448   1
  -4  26   3 9635.82 1508.08   3
   4  22   3 9489.70 822.561   1
   4  22   3 11534.5 1617.67   3
  26 -22   6 6764.57 1873.89   3
  -4  26   6 5520.45 1011.35   1
  -4  26   6 7654.31 1523.98   3
  26 -21  -7 1550.74 1219.93   4
  21 -26  -7 1960.84 1240.91   4
   5  21  -7 2823.75 1014.48   1
   5  21  -7 2970.32 1122.39   2
   5  21  -7 2270.90 1178.91   3
  26 -21  -7 2016.94 1215.68   2
  -5  26  -7 2107.79 899.657   1
  21 -26  -7 2745.18 1084.23   2
  26 -21  -4 2819.12 1066.31   4
   5  21  -4 6446.64 1038.43   2
  21 -26  -4 4282.72 1173.60   4
   5  21  -4 5095.43 978.471   1
  26 -21  -4 4502.08 1277.00   2
  -5  26  -4 6867.08 1076.82   1
   5  21  -4 6627.31 1338.38   3
  21 -26  -4 4155.83 1049.60   2
   5  21  -1 9307.45 949.104   2
  26 -21  -1 9004.31 1251.55   4
  21 -26  -1 7018.60 1089.56   4
  -5  26  -1 6995.43 529.028   2
  26 -21  -1 8678.94 1200.07   2
   5  21  -1 8470.10 1326.63   3
  21 -26  -1 5675.40 702.155   2
   5  21  -1 7695.94 911.098   1
  -5  26  -1 7191.46 964.599   1
  26 -21   2 2658.69 1080.72   3
  21 -26   2 720.945 497.604   4
  26 -21   2 14.1262 511.378   2
   5  21   2 1127.05 358.571   1
  -5  26   2 23.4956 814.513   3
  -5  26   2 1630.36 589.045   1
   5  21   2-96.8811 888.463   3
  26 -21   5 14736.6 2084.31   3
  -5  26   5 13741.4 1394.41   1
   5  21   5 19134.4 2154.82   3
  26 -21   8 755.554 1348.21   3
  -5  26   8 1840.34 1040.52   3
   5  21   8 3764.10 1506.39   3
  -5  26   8 1153.70 843.202   1
   6  20  -8 10238.3 1720.97   1
  26 -20  -8 7379.36 1758.02   4
  20 -26  -8 7365.11 1811.83   4
  -6  26  -8 7497.94 1401.30   1
   6  20  -8 7869.41 1548.52   2
  26 -20  -8 7446.93 1903.22   2
  20 -26  -8 4667.77 1507.48   2
  26 -20  -5 6600.54 1452.53   4
   6  20  -5 6210.97 1149.30   1
  20 -26  -5 5713.98 1340.99   4
   6  20  -5 5954.07 1152.05   2
  26 -20  -5 5983.84 1537.14   2
   6  20  -5 6991.44 1331.35   3
  -6  26  -5 5388.50 1116.53   1
  20 -26  -5 3731.75 1124.27   2
   6  20  -2 31933.9 1752.72   2
  26 -20  -2 28587.4 2124.33   4
  20 -26  -2 26044.8 1903.10   4
  26 -20  -2 27312.9 2051.31   2
   6  20  -2 29619.3 1746.67   1
   6  20  -2 35269.8 2446.80   3
 -26   6  -2 27986.5 1548.99   1
  20 -26  -2 24306.8 1426.93   2
  -6  26  -2 27903.4 1765.13   1
  26 -20   1 16859.5 1934.46   3
  -6  26   1 15691.2 1272.96   1
  26 -20   1 17840.8 1491.18   4
  20 -26   1 16199.2 1267.51   4
  26 -20   1 17208.4 1376.53   2
   6  20   1 16836.7 1763.38   3
   6  20   1 14383.8 929.275   1
  26 -20   4 17065.4 2140.22   3
   6  20   4 21149.4 1062.06   1
  -6  26   4 19860.3 1962.12   3
   6  20   4 22965.8 2333.80   3
  -6  26   4 18838.0 1520.95   1
  -6  26   7 8078.60 1276.05   1
  26 -20   7 6558.23 1800.98   3
  -6  26   7 7987.11 1570.87   3
   6  20   7 9695.00 1840.65   3
  26 -19  -6 31057.5 2895.06   4
  19 -26  -6 32908.4 2737.85   4
   7  19  -6 30839.8 2397.33   1
   7  19  -6 32008.5 2363.89   2
  26 -19  -6 27664.3 2695.23   2
  -7  26  -6 27280.6 2113.92   1
   7  19  -6 35543.5 2480.34   3
  19 -26  -6 26413.6 2232.16   2
  26 -19  -3 7689.55 1290.36   4
   7  19  -3 9790.18 1220.07   2
  19 -26  -3 7235.23 1207.20   4
  26 -19  -3 7819.73 1372.03   2
   7  19  -3 9713.93 1117.21   1
   7  19  -3 9317.25 1439.31   3
  -7  26  -3 8813.62 1174.63   1
  19 -26  -3 8356.59 1022.31   2
 -26   7  -3 9783.27 967.231   1
  -7  26   0 34406.8 1821.86   1
 -26   7   0 32917.6 1904.59   1
  26 -19   0 26186.4 2187.73   3
  -7  26   0 26433.1 824.697   2
   7  19   0 27970.2 734.018   4
  19 -26   0 30422.9 1755.49   4
  26 -19   0 37696.7 2096.83   2
   7  19   0 33186.1 2352.34   3
   7  19   0 33406.6 1445.64   1
  26 -19   0 36434.0 2088.79   4
  26 -19   3 16309.0 2020.12   3
  19 -26   3 14765.9 1127.48   4
  -7  26   3 12967.9 1259.35   1
  -7  26   3 11808.2 1542.50   3
   7  19   3 13900.2 1813.81   3
   7  19   3 13406.2 788.958   1
  26 -19   6 21213.3 2472.12   3
  -7  26   6 23201.1 1879.56   1
  -7  26   6 28103.3 2309.88   3
   7  19   6 29331.7 2724.16   3
   8  18  -7 10409.3 1588.31   1
  26 -18  -7 8998.92 1986.95   4
  18 -26  -7 9120.79 1772.54   4
   8  18  -7 8360.15 1532.46   2
  26 -18  -7 11809.2 2081.88   2
  -8  26  -7 10681.0 1481.68   1
  18 -26  -7 10917.1 1676.89   2
  26 -18  -4 3203.37 1181.59   4
  18 -26  -4 3156.73 1027.32   4
   8  18  -4 2442.84 805.086   2
   8  18  -4 2666.79 763.302   1
  26 -18  -4 3469.40 1162.65   2
   8  18  -4 2535.29 914.709   3
  -8  26  -4 1748.97 774.404   1
  18 -26  -4 2595.23 806.701   2
 -26   8  -4 2457.62 561.297   1
 -26   8  -1 6558.08 897.124   1
  26 -18  -1 5166.46 1247.24   3
  26 -18  -1 7036.50 1131.73   4
  18 -26  -1 6451.50 989.081   4
   8  18  -1 4997.64 366.422   4
  26 -18  -1 6608.58 1164.01   2
   8  18  -1 6105.05 787.906   1
   8  18  -1 6856.13 1231.80   3
  18 -26  -1 2876.30 337.653   2
  -8  26  -1 5628.77 889.635   1
  26 -18   2 9205.30 1601.37   3
  26 -18   2 11381.9 1128.94   2
  18 -26   2 10642.9 963.429   4
   8  18   2 10574.2 677.518   1
  -8  26   2 10006.9 1082.16   1
   8  18   2 12120.5 1581.10   3
  26 -18   5 8805.59 1743.12   3
  -8  26   5 11483.2 1380.77   1
  -8  26   5 10320.3 1483.12   3
   8  18   5 11539.9 1777.83   3
  26 -18   8-81.8585 1359.89   3
  -8  26   8 2460.34 1057.76   1
  -8  26   8 1579.86 1119.65   3
   8  18   8 4731.94 1661.22   3
  26 -17  -8 745.353 1131.34   4
   9  17  -8 4475.31 1358.89   1
  17 -26  -8 3722.15 1530.35   4
   9  17  -8 2174.83 1113.66   2
  26 -17  -8 2536.25 1607.46   2
  -9  26  -8 3193.07 1098.83   1
  17 -26  -8 2383.73 1101.38   2
   9  17  -5 15269.3 1636.38   1
   9  17  -5 18220.3 1796.67   2
  26 -17  -5 15745.1 2054.26   4
  17 -26  -5 16201.9 1848.14   4
  26 -17  -5 15210.0 1949.37   2
   9  17  -5 21092.6 1776.49   3
  -9  26  -5 18248.9 1671.50   1
 -26   9  -5 17304.7 1087.52   1
  17 -26  -5 16858.0 1640.75   2
   9  17  -2 16665.4 1397.77   2
  26 -17  -2 19076.7 1748.17   4
  17 -26  -2 16799.5 1544.39   4
   9  17  -2 15335.6 764.953   4
  26 -17  -2 20054.4 1834.46   2
   9  17  -2 20658.1 1408.01   1
 -26   9  -2 18304.5 1319.17   1
   9  17  -2 19722.4 1762.89   3
  -9  26  -2 18211.7 1454.93   1
  17 -26  -2 14255.3 925.078   2
  26 -17   1 390.583 931.107   3
   9  17   1 2193.40 386.694   1
  26 -17   1 2964.07 759.219   4
  -9  26   1 3998.44 831.497   1
  26 -17   1 3236.29 741.093   2
 -26   9   1 2503.23 777.984   1
  17 -26   1 2734.29 610.731   4
   9  17   1 2866.43 1035.15   3
  26 -17   4 3089.65 1415.24   3
  -9  26   4 2437.03 812.754   1
  -9  26   4 2552.21 884.845   3
   9  17   4 3807.08 1384.20   3
  -9  26   7 9772.80 1458.96   1
  26 -17   7 8451.91 1918.55   3
  -9  26   7 10225.7 1684.37   3
   9  17   7 10624.1 1896.18   3
  10  16  -9 3589.22 1414.01   1
  26 -16  -9 4892.45 1826.46   4
  16 -26  -9 1855.70 1451.51   4
  10  16  -9 945.902 1327.52   2
  26 -16  -9 1293.45 1462.79   2
 -10  26  -9 3317.97 1223.89   1
  16 -26  -9 3582.10 1348.21   2
  10  16  -6 37304.6 2625.45   1
  26 -16  -6 34761.9 3020.29   4
  16 -26  -6 34124.2 2701.03   4
  10  16  -6 41640.2 2867.08   2
  26 -16  -6 36156.9 3015.63   2
 -26  10  -6 34666.3 1514.75   1
 -10  26  -6 38856.8 2458.92   1
  10  16  -6 44004.8 2430.25   3
  16 -26  -6 31733.0 2269.78   2
 -26  10  -3 19693.4 1302.92   1
  26 -16  -3 20477.4 1937.63   4
  10  16  -3 21442.1 1749.06   2
  10  16  -3 19252.7 1557.09   1
  16 -26  -3 16704.2 1573.44   4
  10  16  -3 15953.4 950.546   4
  26 -16  -3 22893.8 2029.52   2
  10  16  -3 19069.8 1744.84   3
 -10  26  -3 19545.0 1549.17   1
  16 -26  -3 16043.6 1241.06   2
  26 -16   0 44233.0 2730.00   3
 -10  26   0 47470.7 2181.25   1
  10  16   0 43535.7 1275.90   4
  26 -16   0 49455.3 2407.18   4
  26 -16   0 49041.1 2345.00   2
  16 -26   0 44385.5 1988.40   4
  10  16   0 45306.6 1559.31   1
  10  16   0 49579.9 2772.50   3
 -26  10   0 51999.4 2433.11   1
 -10  26   3 3242.18 797.423   1
  26 -16   3 2563.26 1240.36   3
  16 -26   3 2350.17 522.931   4
  10  16   3 2621.31 270.209   1
 -26  10   3 4582.29 1073.10   1
  10  16   3 3512.32 1181.78   3
  26 -16   6 34370.6 3007.90   3
 -10  26   6 36500.6 2474.15   1
 -10  26   6 33494.7 2440.77   3
  26 -16   9-2455.51 1631.41   3
 -10  26   9-29.2586 1024.60   1
 -10  26   9 112.879 973.682   3
  10  16   9 2322.81 1553.25   3
  11  15  -7 16436.2 2027.29   1
  26 -15  -7 14434.0 2238.90   4
  15 -26  -7 14398.0 1962.63   4
  11  15  -7 16155.9 2053.10   2
  26 -15  -7 11625.7 2085.11   2
 -11  26  -7 14179.7 1601.77   1
  15 -26  -7 12488.0 1636.88   2
  15 -26  -4 1834.95 723.163   2
  11  15  -4 2739.36 957.162   2
  11  15  -4 2854.29 624.598   4
  11  15  -4 4519.52 991.165   1
  15 -26  -4 3530.35 1001.21   4
  26 -15  -4 4807.14 1403.90   2
  26 -15  -4 2554.59 1114.50   4
 -26  11  -4 4023.80 678.142   1
  11  15  -4 4035.99 966.567   3
 -11  26  -4 2934.21 812.284   1
  26 -15  -1 26421.4 2091.07   3
  26 -15  -1 29305.8 1999.22   4
  11  15  -1 28647.7 1159.32   4
  26 -15  -1 29425.2 2065.05   2
  15 -26  -1 31207.4 1775.05   4
 -26  11  -1 32198.3 1851.86   1
  11  15  -1 29837.5 1464.92   1
  11  15  -1 28982.6 2131.43   3
 -11  26  -1 28889.9 1769.74   1
  26 -15   2 9662.30 1599.22   3
  15 -26   2 10888.3 859.082   4
  11  15   2 9893.98 500.746   1
 -26  11   2 9858.63 1326.45   1
 -11  26   2 11054.4 1161.75   1
  11  15   2 11867.2 1649.61   3
  26 -15   5 5480.17 1472.71   3
 -11  26   5 5830.35 1199.12   3
  11  15   5 5270.42 1372.37   3
 -11  26   5 5117.54 1059.32   1
  26 -15   8 3677.28 1549.56   3
 -11  26   8 2779.18 1096.47   1
 -11  26   8 2389.78 1098.04   3
  11  15   8 5815.11 1730.02   3
  12  14  -8 179.033 982.178   1
  26 -14  -8 1447.24 1370.78   4
  14 -26  -8 3548.09 1427.22   4
  12  14  -8 1438.34 1433.73   2
  26 -14  -8-434.400 1240.68   2
 -12  26  -8 1201.79 847.666   1
  14 -26  -8 2254.35 1107.86   2
  12  14  -5 19222.4 1827.23   1
  26 -14  -5 17007.6 2091.60   4
  12  14  -5 17732.1 1923.30   2
  12  14  -5 18044.8 1426.57   4
  14 -26  -5 18980.4 1855.04   4
  26 -14  -5 22088.7 2319.49   2
 -26  12  -5 18493.7 1221.54   1
  12  14  -5 22954.1 1779.67   3
 -12  26  -5 20369.6 1699.42   1
  14 -26  -5 17378.4 1536.60   2
 -12  26  -2 345.097 525.608   1
  14 -26  -2 69.9316 280.748   2
  26 -14  -2-578.647 804.521   3
  26 -14  -2 752.248 752.533   4
  12  14  -2-1229.36 643.627   2
  12  14  -2 1133.31 441.834   4
  26 -14  -2-140.449 827.336   2
  14 -26  -2 45.5604 610.139   4
  12  14  -2-263.534 447.652   1
 -26  12  -2 220.719 438.672   1
  12  14  -2 1103.16 956.239   3
  26 -14   1 10932.7 1595.39   3
  26 -14   1 15149.8 1337.31   2
  14 -26   1 11304.0 939.496   4
 -12  26   1 13038.3 1242.07   1
  12  14   1 13588.1 1640.47   3
  12  14   1 12325.8 648.302   1
 -26  12   1 13015.3 1398.86   1
  26 -14   4 347.850 1095.38   3
  14 -26   4 1827.93 418.243   4
 -26  12   4 445.356 766.688   1
 -12  26   4 1407.35 740.176   1
  12  14   4 2248.79 1213.74   3
  26 -14   7 3364.64 1396.72   3
 -12  26   7 5735.10 1312.85   1
 -12  26   7 6881.06 1340.67   3
  12  14   7 8235.61 1810.58   3
  13 -26  -9 3066.86 1295.64   2
  13  13  -9 3650.66 1341.90   1
  26 -13  -9 4904.80 1814.73   4
  13 -26  -9 4505.88 1543.66   4
  13  13  -9 2054.49 1318.40   2
  26 -13  -9 5595.91 1858.62   2
 -13  26  -9 3584.53 1236.36   1
 -26  13  -6 42598.4 1847.54   1
  26 -13  -6 44863.8 3296.15   4
  13  13  -6 49830.1 3179.38   2
  13  13  -6 42341.7 2369.21   4
  13 -26  -6 41045.5 2821.43   4
  13  13  -6 46219.5 3057.31   1
  26 -13  -6 43100.0 3333.12   2
 -13  26  -6 42338.1 2555.30   1
  13  13  -6 46692.3 2323.15   3
  13 -26  -6 42335.1 2438.50   2
  13 -26  -3 3668.71 647.710   2
 -13  26  -3 2816.00 765.513   1
  13  13  -3 3467.37 664.301   4
 -26  13  -3 3212.17 660.745   1
  26 -13  -3 4464.81 1085.30   3
  26 -13  -3 2991.61 1081.17   4
  13  13  -3 3386.49 900.303   2
  13  13  -3 3859.17 820.401   1
  26 -13  -3 2245.46 1056.67   2
  13 -26  -3 3150.01 881.478   4
  13  13  -3 5124.34 1085.88   3
  26 -13   0 39742.5 2560.98   3
 -13  26   0 39268.4 2058.32   1
  26 -13   0 42244.1 2187.95   4
  26 -13   0 41521.5 2204.97   2
  13 -26   0 37041.9 1655.56   4
 -26  13   0 40080.5 2160.15   1
  13  13   0 37555.9 1406.16   4
  13  13   0 36212.0 1330.28   1
  13  13   0 43052.4 2619.00   3
  26 -13   3 1689.51 1194.93   3
 -13  26   3 3549.00 857.087   1
 -26  13   3 2333.73 912.771   1
  13 -26   3 3281.13 454.417   4
  13  13   3 4405.12 1339.74   3
 -13  26   6 34583.1 2560.78   1
 -13  26   6 34787.8 2442.51   3
  13  13   6 43877.2 3245.82   3
  26 -13   6 38018.0 3117.05   3
  26 -13   9 3033.08 1653.37   3
 -13  26   9 1724.69 1224.46   1
 -13  26   9 3171.16 1281.97   3
  13  13   9 732.777 1314.63   3
  12 -26  -7 4164.46 1090.88   2
 -26  14  -7 5788.84 783.584   1
  26 -12  -7 5701.40 1492.59   4
  14  12  -7 6496.34 1233.77   4
  12 -26  -7 6609.50 1463.46   4
  14  12  -7 4993.84 1428.35   2
  26 -12  -7 6833.80 1715.05   2
 -14  26  -7 7254.56 1238.16   1
  12 -26  -4 1179.75 640.204   2
  26 -12  -4 1759.47 934.185   4
  14  12  -4 883.989 657.133   1
  14  12  -4 1240.10 695.584   4
  14  12  -4 1190.88 896.112   2
  26 -12  -4 1494.65 1105.47   2
  12 -26  -4 2651.08 887.347   4
  14  12  -4 1369.31 795.995   3
 -26  14  -4 1055.06 531.977   1
 -14  26  -4 1955.69 710.567   1
 -26  14  -1 10504.3 1140.56   1
  26 -12  -1 9175.83 1408.17   3
 -14  26  -1 11998.6 1187.55   1
  26 -12  -1 10576.9 1269.10   4
  14  12  -1 11291.9 863.457   4
  26 -12  -1 12859.0 1408.44   2
  14  12  -1 12547.8 1021.44   1
  12 -26  -1 9561.86 993.332   4
  14  12  -1 13967.7 1577.14   3
  26 -12   2 988.138 914.113   3
 -26  14   2-42.0104 657.136   1
  12 -26   2 451.907 304.099   4
  14  12   2 353.044 844.122   3
 -14  26   2 294.817 526.511   1
 -14  26   5 17400.7 1776.23   1
 -26  14   5 19701.3 2019.62   1
  14  12   5 21101.7 2350.76   3
  26 -12   5 14497.1 2014.60   3
  26 -12   8 4540.21 1661.92   3
 -14  26   8 1368.07 1012.87   1
 -14  26   8 1481.41 924.188   3
  14  12   8 1288.77 1259.11   3
  11 -26  -8 1759.97 989.388   2
 -26  15  -8 2603.96 683.907   1
  26 -11  -8 4672.88 1560.82   4
  15  11  -8 2834.75 1136.21   4
  11 -26  -8 1865.45 1200.42   4
  15  11  -8 2220.21 1310.13   2
  26 -11  -8 1014.46 1411.81   2
 -15  26  -8 3902.34 1147.81   1
  26 -11  -5 7417.65 1614.15   4
 -26  15  -5 8082.97 897.555   1
  15  11  -5 7699.67 1103.82   4
  15  11  -5 7259.94 1423.02   2
  11 -26  -5 10950.9 1435.75   4
  26 -11  -5 6430.94 1599.35   2
  15  11  -5 7776.20 1141.07   3
 -15  26  -5 5490.84 1064.47   1
  11 -26  -5 6998.77 960.754   2
  26 -11  -2 9981.85 1392.85   3
  15  11  -2 12492.8 1340.34   2
  26 -11  -2 9980.24 1356.82   4
  15  11  -2 13714.4 1265.20   1
  26 -11  -2 13581.6 1553.42   2
  11 -26  -2 10925.1 1102.95   4
  15  11  -2 15718.2 1625.44   3
 -26  15  -2 11982.8 1146.43   1
  15  11  -2 11958.6 1028.24   4
 -15  26  -2 14863.4 1343.40   1
  26 -11   1 36544.6 1981.25   2
  11 -26   1 26020.4 1027.43   4
 -15  26   1 34561.8 1984.62   1
 -26  15   1 30402.1 2055.82   1
  11 -26   1 23665.3 871.803   4
  15  11   1 33526.3 2430.14   3
  26 -11   1 31075.3 2387.36   3
  26 -11   4 2233.35 1151.40   3
  11 -26   4 2321.46 326.168   4
 -26  15   4 4136.04 1056.92   1
 -15  26   4 3846.89 991.825   1
  15  11   4 4259.15 1321.24   3
 -15  26   7 12882.7 1591.22   3
  15  11   7 16005.5 2209.30   3
  26 -11   7 17480.6 2367.40   3
 -15  26   7 15005.5 1918.40   1
  10 -26  -9 1213.91 1022.73   2
 -26  16  -9 456.690 588.931   1
  26 -10  -9 2105.43 1594.91   4
  16  10  -9 2790.10 1319.50   4
  10 -26  -9 1175.43 1202.43   4
  16  10  -9 1793.93 1477.81   2
  26 -10  -9-487.753 1482.00   2
 -16  26  -9 1523.67 967.406   1
  10 -26  -6 33662.0 2132.08   2
 -26  16  -6 36213.2 1841.81   1
  26 -10  -6 37331.6 3104.18   4
  16  10  -6 35912.2 2335.07   4
  16  10  -6 37038.4 2981.49   2
  26 -10  -6 37134.1 3101.72   2
  10 -26  -6 38320.2 2604.93   4
 -16  26  -6 40591.2 2404.52   1
  26 -10  -3 2786.18 961.562   3
 -16  26  -3 1706.68 668.134   1
  26 -10  -3 2599.95 976.544   4
  16  10  -3 3096.62 701.473   4
  16  10  -3 3105.92 919.857   2
  26 -10  -3 3324.06 1194.32   2
  10 -26  -3 2588.21 758.487   4
 -26  16  -3 3482.45 731.575   1
  16  10  -3 3776.05 962.527   3
 -26  16   0 43122.7 2277.96   1
  26 -10   0 48066.3 2310.72   4
  26 -10   0 47738.7 2393.28   2
 -16  26   0 42743.2 2172.09   1
  16  10   0 44199.1 1448.87   1
  10 -26   0 38693.2 1290.73   4
  16  10   0 48916.1 2847.37   3
  26 -10   0 42232.9 2638.83   3
 -16  26   3 18831.6 1677.46   1
 -26  16   3 16259.8 1744.65   1
  26 -10   3 16669.4 1993.61   3
 -16  26   6 34594.9 2647.67   1
 -16  26   6 28023.8 2017.81   3
 -26  16   6 31487.7 2702.28   1
  16  10   6 34027.9 2928.96   3
  26 -10   6 29927.0 2796.57   3
  26 -10   9 1917.01 1603.67   3
 -16  26   9 2859.92 1263.98   1
 -16  26   9 1651.44 1010.37   3
  16  10   9 412.456 1438.21   3
   9 -26  -7 7682.27 1252.38   2
 -26  17  -7 7784.31 987.197   1
  26  -9  -7 10734.5 2034.61   4
  17   9  -7 7032.95 1334.03   4
   9 -26  -7 10755.9 1580.96   4
  17   9  -7 9566.68 1882.06   2
  26  -9  -7 8593.98 1989.27   2
 -17  26  -7 9012.65 1354.92   1
 -17  26  -4 2436.13 849.242   1
  26  -9  -4 2749.35 749.621   3
   9 -26  -4 3456.59 693.268   2
  26  -9  -4 3347.81 1017.09   4
  17   9  -4 3669.64 878.766   4
  17   9  -4 2051.26 900.210   2
  26  -9  -4 3073.67 1140.47   2
   9 -26  -4 3619.37 885.032   4
 -26  17  -4 2678.98 649.153   1
  17   9  -4 3212.42 873.632   3
  26  -9  -1 1361.46 1016.33   3
  17   9  -1 4463.99 733.275   1
  17   9  -1 2288.06 720.354   2
  26  -9  -1 1910.60 730.732   4
  17   9  -1 2757.84 549.806   4
  26  -9  -1 2741.08 967.098   2
 -26  17  -1 2260.22 670.596   1
 -17  26  -1 2517.48 724.908   1
   9 -26  -1 2667.38 469.716   4
  17   9  -1 3865.23 944.515   3
 -26  17   2 20968.8 1802.88   1
 -17  26   2 18617.3 1610.26   1
  17   9   2 18820.7 1960.57   3
  26  -9   2 16742.6 1934.87   3
 -17  26   5 16890.0 1857.72   1
 -26  17   5 16929.0 1960.81   1
  17   9   5 18173.8 2158.34   3
  26  -9   5 12999.3 2041.85   3
  26  -9   8 2793.46 1582.97   3
 -17  26   8 3421.49 1193.76   1
 -17  26   8 2897.67 999.479   3
  17   9   8 5456.81 1647.93   3
   8 -26  -8 2577.02 1012.40   2
 -26  18  -8 2524.12 791.677   1
  26  -8  -8 2038.43 1479.35   4
  18   8  -8 2996.66 1248.85   4
   8 -26  -8 5744.01 1393.46   4
  18   8  -8 7882.99 1935.27   2
  26  -8  -8 5540.82 1957.60   2
 -18  26  -8 3732.76 1080.89   1
   8 -26  -5 12942.4 1198.56   2
 -26  18  -5 10739.9 1101.84   1
  26  -8  -5 12493.7 1833.72   4
  18   8  -5 11854.5 1442.89   4
  18   8  -5 14420.1 1918.16   2
  26  -8  -5 14193.2 2021.24   2
   8 -26  -5 13886.9 1494.76   4
  18   8  -5 17046.6 1458.46   3
 -18  26  -5 12563.6 1362.56   1
 -18  26  -2 10975.2 1217.41   1
  18   8  -2 8794.65 1220.72   2
  26  -8  -2 7942.63 1193.28   4
  18   8  -2 9448.03 1016.74   4
  26  -8  -2 7490.47 1285.04   2
   8 -26  -2 9019.90 832.123   4
 -26  18  -2 9534.10 1082.25   1
  18   8  -2 12148.4 1452.87   3
  26  -8  -2 10399.8 1368.95   3
  26  -8   1 6251.34 1380.97   3
 -18  26   1 7338.28 1036.54   1
  18   8   1 5057.68 294.592   1
 -26  18   1 5110.96 935.303   1
  26  -8   4 2703.57 1375.53   3
 -26  18   4 1550.79 839.959   1
 -18  26   4 3852.12 972.244   1
  18   8   4 2889.80 1359.21   3
  26  -8   7 4171.12 1639.80   3
 -18  26   7 11408.1 1868.48   1
 -18  26   7 7937.99 1294.80   3
 -26  18   7 10326.1 1742.18   1
  18   8   7 10016.8 1940.59   3
 -26  19  -6 21482.4 1575.05   1
   7 -26  -6 22819.7 1735.89   2
  26  -7  -6 20859.2 2362.99   4
  19   7  -6 22205.6 2019.00   4
  19   7  -6 26346.8 2695.50   2
  26  -7  -6 23452.7 2706.85   2
   7 -26  -6 20534.2 1879.87   4
 -19  26  -6 26372.1 1965.24   1
 -19  26  -3 17288.9 1487.30   1
  26  -7  -3 13533.5 1440.28   3
  26  -7  -3 11780.5 1504.26   4
  19   7  -3 14717.7 1711.17   2
  19   7  -3 14951.1 1380.42   4
  26  -7  -3 16015.5 1862.95   2
 -26  19  -3 17586.0 1403.69   1
   7 -26  -3 14810.5 1186.35   4
  19   7  -3 20181.0 1749.13   3
  19   7   0 30284.5 1545.35   4
  26  -7   0 36836.9 2028.89   4
  26  -7   0 29971.7 2024.22   2
  19   7   0 32020.4 1368.67   1
 -19  26   0 35013.3 2047.44   1
  19   7   0 33223.9 2432.08   3
 -26  19   0 34010.9 2051.73   1
  26  -7   0 26439.6 2182.27   3
 -26  19   3 8131.31 1347.06   1
 -19  26   3 5339.29 1070.58   1
  19   7   3 8592.85 1565.73   3
  26  -7   3 5801.79 1437.26   3
 -19  26   6 32636.7 2656.86   1
 -26  19   6 27434.3 2559.28   1
  19   7   6 34173.3 2990.63   3
  26  -7   6 27506.5 2753.06   3
 -26  20  -7 5802.20 915.705   1
   6 -26  -7 5866.66 1143.54   2
  26  -6  -7 5039.47 1546.99   4
  20   6  -7 7313.94 1440.49   4
  20   6  -7 9329.01 1906.09   2
   6 -26  -7 8156.14 1359.89   4
  26  -6  -7 8509.85 2020.65   2
 -20  26  -7 7318.88 1175.10   1
  26  -6  -4 22205.2 1677.51   3
 -26  20  -4 27486.7 1728.14   1
  26  -6  -4 22998.4 2122.36   4
  20   6  -4 28128.4 2031.85   4
  20   6  -4 27530.6 2408.92   2
  26  -6  -4 29016.5 2538.55   2
   6 -26  -4 27176.2 1716.14   4
  20   6  -4 32154.7 2103.71   3
 -20  26  -4 28670.3 1901.14   1
  20   6  -1 15265.7 1430.21   2
  26  -6  -1 13322.3 1326.99   4
  20   6  -1 12762.1 1098.51   4
  26  -6  -1 17987.7 1652.73   2
 -20  26  -1 14615.7 1402.53   1
 -26  20  -1 15856.5 1397.56   1
  20   6  -1 15416.4 1716.02   3
  26  -6  -1 16863.7 1835.32   3
 -26  20   2 29793.3 2107.56   1
 -20  26   2 29559.7 2027.07   1
  20   6   2 26941.0 2368.75   3
  26  -6   2 23529.1 2279.61   3
 -20  26   5 5856.32 1338.93   1
 -26  20   5 6497.72 1404.48   1
  20   6   5 7692.37 1665.50   3
  26  -6   5 6209.56 1492.03   3
  26  -6   8 8916.44 2231.06   3
 -20  26   8 10454.7 1894.22   1
 -20  26   8 9665.19 1500.64   3
  20   6   8 8142.87 2030.96   3
   5 -26  -8 2020.06 1029.65   2
 -26  21  -8 2908.58 841.525   1
  26  -5  -8 4052.84 1532.67   4
  21   5  -8 3164.44 1276.44   4
  21   5  -8 4932.37 1900.81   2
  26  -5  -8 4006.94 1748.74   2
   5 -26  -8 3371.58 1228.65   4
  -5 -21  -8 2904.46 976.001   4
 -21  26  -8 1883.02 844.079   1
 -26  21  -5 17431.0 1476.79   1
  21   5  -5 15733.6 1748.96   4
  21   5  -5 19682.9 2310.51   2
  26  -5  -5 15899.4 2186.59   2
   5 -26  -5 16630.1 1477.51   4
 -21  26  -5 22055.2 1764.40   1
  26  -5  -5 18048.2 2131.27   4
  26  -5  -2-318.240 841.050   3
  21   5  -2-223.996 537.180   4
  21   5  -2 534.533 762.634   2
  26  -5  -2 2982.39 985.026   2
 -21  26  -2 908.791 652.599   1
   5 -26  -2 392.184 273.574   4
 -26  21  -2 213.951 511.412   1
  26  -5  -2 155.926 617.626   4
  21   5  -2 2952.39 1071.67   3
 -21  26   1 5879.60 1036.12   1
  21   5   1 8646.89 1546.48   3
 -26  21   1 8210.29 1223.03   1
  26  -5   1 7391.54 1397.44   3
 -21  26   4 6887.24 1296.01   1
 -26  21   4 5347.00 1316.93   1
  21   5   4 5976.67 1514.99   3
  26  -5   4 2905.63 1291.76   3
 -21  26   7 3394.21 997.973   3
 -21  26   7-116.345 1014.10   1
  21   5   7 3313.67 1419.34   3
 -26  21   7 1401.78 1109.55   1
  26  -5   7 4098.28 1632.45   3
 -26  22  -6 9364.38 1177.04   1
  26  -4  -6 8571.65 1724.21   4
  22   4  -6 7596.36 1727.68   2
  26  -4  -6 8714.22 1841.89   2
   4 -26  -6 6239.71 1077.95   4
 -22  26  -6 8937.12 1237.85   1
  22   4  -6 9983.34 1602.07   4
 -22  26  -3 8757.77 1120.50   1
  26  -4  -3 10657.8 1429.67   4
  26  -4  -3 9854.17 1546.31   2
  22   4  -3 6339.34 1320.26   2
 -26  22  -3 10589.8 1186.84   1
  22   4  -3 9978.57 1278.10   4
   4 -26  -3 8799.06 774.701   4
  22   4  -3 10422.0 1491.37   3
  26  -4  -3 9998.20 1398.58   3
  22   4   0 13068.2 1166.13   4
  26  -4   0 16391.0 1391.89   4
  26  -4   0 14314.6 1426.93   2
 -22  26   0 17215.4 1546.19   1
 -26  22   0 17803.9 1589.81   1
  22   4   0 15051.8 1783.62   3
  26  -4   0 16744.6 1862.33   3
 -26  22   3 9065.19 1362.54   1
  22   4   3 10901.0 1807.26   3
  26  -4   3 10521.3 1739.60   3
 -22  26   3 11597.7 1494.39   1
 -26  22   6 9779.15 1665.13   1
 -22  26   6 11906.5 1785.72   1
  22   4   6 12846.8 2091.14   3
  26  -4   6 12423.0 2157.89   3
 -23  26  -7 3638.35 1016.35   1
 -26  23  -7 3304.58 851.877   1
  23   3  -7 3209.86 1312.56   4
  26  -3  -7 6018.68 1716.40   4
  23   3  -7 6713.00 1843.18   2
  26  -3  -7 3964.55 1543.44   2
   3 -26  -7 4753.80 1110.10   4
  -3 -23  -7 2910.67 874.191   4
 -23  26  -4 26870.1 1914.37   1
 -26  23  -4 25643.6 1763.40   1
  26  -3  -4 18609.9 2051.39   4
  23   3  -4 26153.3 2110.59   4
  23   3  -4 25566.4 2398.02   2
  26  -3  -4 23468.7 2413.52   2
   3 -26  -4 24274.8 1426.29   4
  23   3  -4 29795.9 2064.76   3
  26  -3  -4 23719.1 1775.77   3
  26  -3  -1 2296.86 707.644   4
  23   3  -1 2741.18 904.200   2
  26  -3  -1 1787.46 880.606   2
 -23  26  -1 2971.36 772.898   1
  23   3  -1 2497.46 690.497   4
  23   3  -1 2573.82 1022.16   3
 -26  23  -1 1310.37 592.130   1
  26  -3  -1 2542.32 994.922   3
 -26  23   2 37286.6 2430.08   1
 -23  26   2 38758.0 2382.81   1
  23   3   2 40922.5 2931.93   3
  26  -3   2 34882.2 2786.56   3
 -26  23   5 1546.73 892.567   1
 -23  26   5 1109.29 866.322   1
  23   3   5 1800.21 1400.49   3
  26  -3   5 5029.39 1516.35   3
 -26  23   8 9405.67 1959.61   1
 -23  26   8 13911.4 2223.00   1
  23   3   8 13460.4 2584.02   3
  26  -3   8 9403.60 2076.20   3
  26  -2  -8 2655.91 1420.51   4
  24   2  -8 2922.95 1495.01   4
  24   2  -8 5.46141 1516.70   2
  26  -2  -8 3073.83 1756.94   2
   2 -26  -8 2570.00 1083.01   4
  -2 -24  -8 3677.50 1042.58   4
 -24  26  -5 11318.9 1343.72   1
 -26  24  -5 10326.7 1255.12   1
  24   2  -5 10278.3 1657.31   4
  26  -2  -5 12486.4 1820.18   4
  26  -2  -5 11662.6 2017.94   2
  24   2  -5 11301.3 1940.39   2
   2 -26  -5 10528.9 1096.94   4
  26  -2  -2 1874.18 755.125   4
  24   2  -2 3026.88 791.621   4
  24   2  -2 3535.66 1045.95   2
  26  -2  -2 3152.56 1046.66   2
 -24  26  -2 3290.85 872.505   1
 -26  24  -2 3063.09 847.411   1
  24   2  -2 2519.26 1028.71   3
  26  -2  -2 2693.82 1099.28   3
 -24  26   1 2592.20 834.290   1
 -26  24   1 4622.71 1114.78   1
  24   2   1 5513.03 1334.14   3
  26  -2   1 5973.20 1475.81   3
 -24  26   4 8518.79 1425.27   1
 -26  24   4 8271.59 1390.36   1
  24   2   4 6944.04 1595.45   3
  26  -2   4 7352.64 1746.75   3
 -24  26   7 1252.57 1093.32   1
 -26  24   7 1222.34 1050.96   1
  24   2   7 1118.05 1326.37   3
  26  -2   7 1180.07 1442.64   3
 -25  26  -6 2736.28 852.655   1
 -26  25  -6 3593.99 896.163   1
  26  -1  -6 4542.45 1405.95   4
  25   1  -6 4489.01 1364.76   4
  25   1  -6 5583.62 1715.03   2
  26  -1  -6 2754.11 1579.15   2
   1 -26  -6 3509.66 860.289   4
  -1 -25  -6 4201.00 911.571   4
  25   1  -3 14056.1 1768.94   2
 -25  26  -3 13761.9 1409.38   1
  26  -1  -3 13122.0 1549.00   4
  25   1  -3 10890.1 1396.26   4
  26  -1  -3 10482.9 1637.51   2
 -26  25  -3 14355.4 1394.19   1
  25   1  -3 12004.0 1529.31   3
  26  -1  -3 11704.8 1558.74   3
  26  -1   0 6790.56 1162.31   2
  25   1   0 7196.09 960.645   4
  26  -1   0 7463.97 995.863   4
 -25  26   0 6852.21 1094.31   1
 -26  25   0 8641.74 1194.18   1
  25   1   0 8649.43 1467.86   3
  26  -1   0 7603.49 1487.07   3
 -25  26   3 14361.2 1692.11   1
 -26  25   3 15730.2 1781.06   1
  26  -1   3 13296.7 1944.52   3
  25   1   3 10296.4 1789.55   3
 -25  26   6 3180.28 1225.09   1
 -26  25   6 1123.78 953.539   1
  25   1   6 955.317 1254.03   3
  26  -1   6 1701.06 1404.25   3
 -26  26  -7-186.592 695.137   1
  26   0  -7-1052.37 1203.91   4
  26   0  -7 2355.03 1786.83   2
   0 -26  -7 508.405 754.679   4
 -26  26  -4 21946.5 1757.37   1
  26   0  -4 19738.1 1948.65   4
  26   0  -4 22582.2 2501.11   2
  26   0  -1-555.030 721.623   2
  26   0  -1 19.0888 535.650   4
 -26  26  -1 487.835 556.195   1
  26   0  -1 1480.96 1112.72   3
  26   0   2 30035.4 2701.05   3
 -26  26   2 31150.2 2310.97   1
 -26  26   5 574.492 856.998   1
  26   0   5-632.601 1220.81   3
  27 -27  -6 9644.52 1919.43   4
   0  27  -6 10920.8 1558.69   1
  27 -27  -6 10662.8 1934.27   2
  27 -27  -3-1185.54 1006.99   4
   0  27  -3 1369.34 1245.84   3
  27 -27  -3 210.362 846.097   2
   0  27  -3 80.3324 648.592   1
   0  27   0 18261.0 1357.48   1
  27 -27   0 16756.3 1715.53   4
  27 -27   3 1173.08 715.775   4
   0  27   3-624.158 1021.64   3
   0  27   3 904.779 502.353   1
   0  27   6 12414.5 1938.01   3
  27 -26  -7 1308.85 1368.85   4
  26 -27  -7 3825.65 1607.04   4
   1  26  -7 3324.77 1103.11   1
  -1  27  -7 2952.49 1102.63   1
  27 -26  -7-251.117 1362.37   2
  26 -27  -7 952.853 1302.61   2
  27 -26  -4 467.436 1104.30   4
  26 -27  -4-121.159 1006.24   4
   1  26  -4 2041.01 1279.55   3
  27 -26  -4 595.756 995.997   2
  26 -27  -4 160.860 927.552   2
   1  26  -4 1943.44 793.121   1
  -1  27  -4 822.726 708.057   1
   1  26  -1 7399.44 852.543   2
  27 -26  -1 8467.70 1293.29   4
  26 -27  -1 6852.91 1222.37   4
  27 -26  -1 7135.96 1160.01   2
   1  26  -1 7931.98 1627.49   3
  -1  27  -1 7902.36 1539.51   3
  26 -27  -1 5664.35 951.417   2
   1  26  -1 5943.97 891.200   1
  -1  27  -1 7367.22 987.155   1
  26 -27   2 2846.80 814.001   4
  27 -26   2 2381.55 804.758   4
  -1  27   2 3864.82 1183.45   3
   1  26   2 4018.96 1209.47   3
   1  26   2 3450.51 642.803   1
  -1  27   2 2906.37 673.157   1
  -1  27   5 4079.77 841.872   1
  -1  27   5 5068.34 1472.09   3
   1  26   5 6839.16 1565.52   3
  27 -25  -5 21381.5 2383.01   4
  25 -27  -5 18425.9 2214.05   4
   2  25  -5 18485.1 1813.80   1
  27 -25  -5 14499.5 1939.57   2
   2  25  -5 22760.7 2392.81   3
  -2  27  -5 19026.6 1809.51   1
  25 -27  -5 16424.0 1947.73   2
  27 -25  -2 15520.9 1813.91   4
   2  25  -2 15035.5 1278.32   2
  25 -27  -2 15114.6 1755.53   4
  27 -25  -2 13733.0 1593.89   2
  25 -27  -2 14772.7 1410.08   2
   2  25  -2 20161.9 2203.14   3
   2  25  -2 16687.8 1391.61   1
  -2  27  -2 18896.9 1515.34   1
   2  25   1 24297.5 1392.14   1
  -2  27   1 23991.6 1544.02   1
  27 -25   1 26710.9 1921.17   4
  25 -27   1 25888.0 1868.18   4
  27 -25   1 20677.5 1496.21   2
  -2  27   1 23728.2 2279.94   3
   2  25   1 26731.8 2446.42   3
  27 -25   4 7889.36 1704.74   3
  -2  27   4 9956.16 1574.33   3
   2  25   4 7860.39 1558.82   3
  -2  27   4 9887.63 1118.80   1
   2  25   4 8687.23 908.388   1
  -2  27   7 15911.3 2098.42   3
   2  25   7 15946.9 2203.50   3
  24 -27  -6 7727.56 1756.18   4
  27 -24  -6 7067.45 1684.00   4
   3  24  -6 7423.90 1323.56   1
   3  24  -6 11144.2 1858.39   3
  27 -24  -6 7351.84 1649.68   2
  -3  27  -6 6796.21 1274.45   1
  24 -27  -6 6813.00 1557.58   2
  27 -24  -3 786.468 833.549   4
  24 -27  -3 3721.30 1067.89   4
   3  24  -3 2590.17 797.888   2
  27 -24  -3 113.571 873.330   2
   3  24  -3 4896.88 1363.95   3
  24 -27  -3 2693.87 958.762   2
   3  24  -3 3229.30 830.434   1
  -3  27  -3 2769.39 775.508   1
  -3  27   0 23508.3 1537.18   1
  -3  27   0 24008.9 1137.35   2
  27 -24   0 27554.9 1976.83   4
  24 -27   0 24809.4 1841.99   4
  27 -24   0 22360.4 1671.76   2
  -3  27   0 28501.3 2432.12   3
   3  24   0 29892.7 2508.57   3
   3  24   0 23532.5 1380.78   1
   3  24   3 2304.75 531.647   1
  27 -24   3 2618.92 1441.44   3
  24 -27   3 3533.25 782.103   4
  27 -24   3 3856.41 735.742   2
  -3  27   3 3116.48 1260.57   3
   3  24   3 1932.69 1021.15   3
  -3  27   3 2923.49 688.070   1
  -3  27   6 12980.5 1805.38   3
  -3  27   6 13302.9 1374.89   1
   3  24   6 15597.7 2139.73   3
  27 -23  -7 5493.12 1591.18   4
  23 -27  -7 1814.30 1186.60   4
   4  23  -7 7922.87 1448.73   1
  -4  27  -7 7015.48 1318.33   1
   4  23  -7 5073.07 1368.42   3
  27 -23  -7 3755.95 1602.83   2
  23 -27  -7 6969.09 1550.59   2
  27 -23  -4-1556.44 1014.12   4
  23 -27  -4 303.692 991.177   4
   4  23  -4 194.309 720.445   2
  27 -23  -4 1104.22 989.282   2
   4  23  -4 694.261 1121.10   3
   4  23  -4 153.860 634.160   1
  23 -27  -4 313.549 833.156   2
  -4  27  -4 727.903 695.274   1
   4  23  -1 12775.8 1118.50   2
  27 -23  -1 8723.55 1317.85   4
  23 -27  -1 10334.3 1288.16   4
  27 -23  -1 10314.0 1352.30   2
   4  23  -1 14926.4 1860.88   3
  23 -27  -1 7968.72 900.705   2
   4  23  -1 10277.0 1031.01   1
  -4  27  -1 10311.0 1117.21   1
  27 -23   2 3266.37 1230.57   3
  23 -27   2 4248.59 874.467   4
  27 -23   2 4660.33 930.829   4
   4  23   2 4152.26 611.087   1
  -4  27   2 3626.30 1135.21   3
  -4  27   2 2936.67 695.481   1
  27 -23   2 2697.96 733.672   2
   4  23   2 5074.03 1429.12   3
  27 -23   5 5852.49 1697.15   3
  -4  27   5 6633.10 1057.64   1
  -4  27   5 6406.15 1335.04   3
   4  23   5 8979.12 1673.58   3
  27 -22  -8 9513.63 2314.50   4
  22 -27  -8 7317.31 1859.93   4
   5  22  -8 8285.65 1598.97   1
  -5  27  -8 12982.0 1782.35   1
  27 -22  -8 7031.70 1919.26   2
  22 -27  -8 6810.18 1654.17   2
  27 -22  -5 11353.7 1789.86   4
  22 -27  -5 10293.8 1684.68   4
   5  22  -5 11748.6 1422.55   2
   5  22  -5 10772.6 1387.86   1
  27 -22  -5 13328.9 1880.48   2
   5  22  -5 12376.6 1728.29   3
  -5  27  -5 9580.15 1379.04   1
  22 -27  -5 9273.08 1463.56   2
   5  22  -2 19865.8 1437.51   2
  27 -22  -2 16729.7 1757.01   4
  22 -27  -2 16036.3 1685.65   4
  27 -22  -2 14279.2 1598.59   2
   5  22  -2 15740.0 1335.87   1
   5  22  -2 19352.4 2014.70   3
  22 -27  -2 14720.1 1266.56   2
  -5  27  -2 17709.6 1468.16   1
   5  22   1 23964.4 1258.09   1
  27 -22   1 23034.7 2171.61   3
  -5  27   1 23331.5 1556.23   1
  27 -22   1 25338.6 1853.59   4
  22 -27   1 24072.0 1645.72   4
  27 -22   1 23006.6 1602.97   2
   5  22   1 26209.8 2196.10   3
  27 -22   4 9148.98 1910.19   3
  27 -22   4 8783.92 982.604   2
  -5  27   4 9966.76 1613.11   3
   5  22   4 12313.8 1816.93   3
  -5  27   4 8070.89 1047.11   1
  -5  27   7 7497.19 1200.34   1
  -5  27   7 11218.9 1692.24   3
  27 -21  -6 17537.2 2363.95   4
  21 -27  -6 16239.0 2060.23   4
   6  21  -6 21918.2 2034.39   1
   6  21  -6 19591.6 1890.75   2
  27 -21  -6 14318.8 2099.44   2
  -6  27  -6 20092.6 1921.83   1
   6  21  -6 25567.0 2348.40   3
  21 -27  -6 16213.4 1909.91   2
  27 -21  -3 11732.6 1614.39   4
   6  21  -3 14868.1 1383.31   2
  21 -27  -3 12800.2 1629.94   4
  27 -21  -3 13284.3 1704.42   2
   6  21  -3 10910.4 1270.89   1
   6  21  -3 16411.4 1845.32   3
  21 -27  -3 10040.7 1143.63   2
  -6  27  -3 11353.6 1289.29   1
 -27   6  -3 12497.3 999.155   1
  -6  27   0 14252.8 1237.23   1
  -6  27   0 14851.7 708.147   2
  27 -21   0 14054.2 1444.41   4
  21 -27   0 15032.7 1381.79   4
  27 -21   0 18759.4 1593.70   2
   6  21   0 16680.4 1841.90   3
   6  21   0 14036.2 1056.02   1
  27 -21   3 4891.17 1492.18   3
  21 -27   3 7722.04 930.809   4
  27 -21   3 7554.58 943.397   2
  -6  27   3 7712.24 1016.37   1
  -6  27   3 8173.24 1403.94   3
   6  21   3 5620.49 621.809   1
   6  21   3 6179.81 1420.36   3
  27 -21   6 9524.73 1910.34   3
  -6  27   6 9788.76 1350.54   1
  -6  27   6 7971.94 1485.37   3
   6  21   6 10200.8 1758.86   3
  27 -20  -7 7256.98 1814.26   4
  20 -27  -7 6145.93 1573.25   4
   7  20  -7 5775.20 1305.65   1
   7  20  -7 7288.65 1478.12   2
  -7  27  -7 6625.57 1284.43   1
  27 -20  -7 2846.26 1526.26   2
  20 -27  -7 5765.54 1388.82   2
  27 -20  -4 5642.64 1278.46   4
  20 -27  -4 7442.06 1360.12   4
   7  20  -4 4026.27 956.622   2
  27 -20  -4 7119.62 1463.47   2
   7  20  -4 5083.42 999.779   1
   7  20  -4 6496.04 1250.43   3
  20 -27  -4 4019.48 943.393   2
  -7  27  -4 4252.53 923.928   1
  27 -20  -1 11466.7 1423.71   4
  20 -27  -1 11024.7 1284.83   4
  27 -20  -1 10941.9 1377.39   2
   7  20  -1 11876.7 1595.09   3
   7  20  -1 13598.0 1109.96   1
  20 -27  -1 6794.22 528.669   2
   7  20  -1 12955.4 1148.79   2
  -7  27  -1 11770.3 1184.22   1
 -27   7  -1 11323.0 1160.97   1
  27 -20   2 2569.51 1043.39   3
  20 -27   2 2944.95 637.611   4
  27 -20   2 3460.70 772.588   2
  -7  27   2 3957.83 807.020   1
   7  20   2 2870.51 432.557   1
   7  20   2 5366.56 1361.10   3
  27 -20   5 5859.90 1532.20   3
  -7  27   5 6066.28 1049.08   1
  -7  27   5 6713.67 1332.19   3
   7  20   5 6011.13 1456.86   3
  27 -20   8-1862.75 1679.59   3
  -7  27   8 1407.61 942.376   1
  -7  27   8 1140.58 1082.65   3
   7  20   8 1238.96 1494.23   3
  27 -19  -8 943.206 1402.75   4
  19 -27  -8 2324.59 1290.83   4
   8  19  -8 4019.27 1273.35   1
   8  19  -8 1324.02 1157.58   2
  27 -19  -8 1195.20 1471.16   2
  -8  27  -8 4762.01 1225.37   1
  19 -27  -8 2571.15 1321.46   2
  27 -19  -5 9312.02 1727.13   4
   8  19  -5 8737.43 1341.59   1
  19 -27  -5 10214.8 1605.48   4
   8  19  -5 7528.47 1230.80   2
  27 -19  -5 11711.9 1883.51   2
   8  19  -5 9598.47 1384.88   3
  -8  27  -5 8937.42 1321.03   1
  19 -27  -5 7554.31 1260.26   2
 -27   8  -2 7984.87 969.848   1
   8  19  -2 8870.37 1077.80   2
  27 -19  -2 5740.94 1221.40   4
  19 -27  -2 7569.17 1172.53   4
  27 -19  -2 8245.74 1310.20   2
   8  19  -2 8110.78 943.120   1
   8  19  -2 10252.8 1443.71   3
  19 -27  -2 5578.35 695.335   2
  -8  27  -2 7415.26 1048.87   1
  27 -19   1 14294.6 1874.30   3
  27 -19   1 14128.6 1516.33   4
  -8  27   1 15525.0 1354.56   1
  27 -19   1 17439.0 1425.98   2
  19 -27   1 16453.2 1275.53   4
 -27   8   1 16755.8 1563.39   1
   8  19   1 14559.9 874.871   1
  27 -19   4 11522.9 1847.94   3
  -8  27   4 9452.40 1473.68   3
   8  19   4 13604.1 1887.02   3
  -8  27   4 10301.5 1262.07   1
  -8  27   7 9472.27 1416.93   1
  27 -19   7 8483.62 1902.85   3
  -8  27   7 13133.3 1788.06   3
   8  19   7 13898.9 2130.31   3
  27 -18  -6 10107.2 1855.46   4
  18 -27  -6 12365.1 1879.86   4
   9  18  -6 11398.0 1653.85   2
  27 -18  -6 10601.9 1804.13   2
  -9  27  -6 12152.9 1563.88   1
   9  18  -6 10552.4 1482.98   3
  18 -27  -6 8327.06 1361.79   2
   9  18  -6 11099.5 1530.72   1
  27 -18  -3 22836.1 2159.24   4
   9  18  -3 25536.1 1873.14   2
  18 -27  -3 21724.5 1879.22   4
  27 -18  -3 25739.3 2193.67   2
   9  18  -3 22127.2 1646.38   1
 -27   9  -3 25340.7 1484.17   1
   9  18  -3 28900.0 2155.96   3
  -9  27  -3 23847.3 1773.98   1
  18 -27  -3 20403.3 1372.09   2
  -9  27   0 24485.7 1627.96   1
  27 -18   0 17435.2 1997.54   3
  27 -18   0 23333.3 1749.78   4
   9  18   0 23447.1 870.891   4
  27 -18   0 26724.6 1864.62   2
  18 -27   0 21245.1 1508.90   4
 -27   9   0 23112.4 1712.03   1
   9  18   0 21453.8 2067.69   3
   9  18   0 22085.6 1163.84   1
  27 -18   3 16554.5 2075.61   3
  18 -27   3 17219.8 1152.41   4
  -9  27   3 18990.5 1554.14   1
   9  18   3 15762.1 1935.73   3
  27 -18   6 16482.5 2357.69   3
  -9  27   6 14458.2 1652.20   1
  -9  27   6 13651.3 1718.67   3
   9  18   6 20319.7 2356.84   3
  27 -17  -7 3239.64 1587.96   4
  10  17  -7 3077.12 1085.94   1
  17 -27  -7 3817.70 1407.86   4
  10  17  -7 1638.56 1005.73   2
  27 -17  -7 4760.66 1635.13   2
 -10  27  -7 2895.11 937.401   1
  17 -27  -7-173.381 911.611   2
  27 -17  -4 5461.37 1297.89   4
  10  17  -4 4520.57 1107.42   2
  17 -27  -4 3969.40 1066.23   4
  10  17  -4 5067.83 981.569   1
  27 -17  -4 6316.75 1363.04   2
  10  17  -4 6651.61 1276.54   3
 -10  27  -4 6183.71 1082.85   1
  17 -27  -4 4663.63 894.477   2
 -27  10  -4 6326.46 804.718   1
  27 -17  -1 16599.8 1809.14   3
  10  17  -1 16973.9 1347.23   2
  27 -17  -1 18526.8 1652.57   4
  10  17  -1 15182.5 800.492   4
  27 -17  -1 17617.7 1669.46   2
  17 -27  -1 16109.9 1390.65   4
  10  17  -1 17127.1 1189.07   1
  10  17  -1 17349.3 1743.00   3
 -27  10  -1 17138.8 1421.59   1
 -10  27  -1 16021.9 1335.18   1
 -27  10   2 7063.30 1158.00   1
  27 -17   2 6506.52 1430.55   3
  27 -17   2 5240.02 882.796   2
  17 -27   2 6824.20 795.837   4
  10  17   2 5454.81 446.429   1
 -10  27   2 5519.19 881.301   1
  10  17   2 7455.05 1471.36   3
  27 -17   5-328.246 1143.04   3
 -10  27   5 2049.19 985.982   3
 -10  27   5 954.463 757.263   1
  27 -17   8 2707.83 1791.47   3
 -10  27   8 793.222 978.504   1
 -10  27   8 4335.12 1318.03   3
  10  17   8 3583.46 1623.39   3
  11  16  -8 2523.87 1281.24   1
  27 -16  -8 4563.49 1705.47   4
  16 -27  -8 3173.77 1422.44   4
  11  16  -8 2830.40 1409.29   2
  27 -16  -8 6163.99 1802.54   2
 -11  27  -8 3718.67 1155.23   1
  16 -27  -8 1760.29 1119.36   2
 -27  11  -5 2641.76 559.123   1
  27 -16  -5 1594.31 1191.71   4
  11  16  -5 2733.68 1034.72   1
  16 -27  -5 3577.87 1103.19   4
  11  16  -5 3645.36 1081.99   2
  27 -16  -5 4168.05 1453.30   2
  11  16  -5 4170.20 1019.30   3
 -11  27  -5 1808.04 754.995   1
  16 -27  -5 2324.78 900.057   2
  16 -27  -2 9150.93 654.786   2
  27 -16  -2 11194.4 1504.68   3
  11  16  -2 13997.9 1342.97   2
  27 -16  -2 11354.1 1409.09   4
 -27  11  -2 13507.9 1229.70   1
  11  16  -2 12315.1 853.494   4
  27 -16  -2 14386.0 1666.66   2
  16 -27  -2 9246.06 1191.82   4
  11  16  -2 11906.2 1140.37   1
  11  16  -2 14802.2 1670.72   3
 -11  27  -2 10820.6 1205.93   1
  27 -16   1 2758.14 1039.85   3
  27 -16   1 3238.22 822.281   4
  27 -16   1 1963.93 723.167   2
  16 -27   1 2437.54 593.245   4
 -11  27   1 1644.38 672.195   1
  11  16   1 3113.30 1105.26   3
  11  16   1 2395.28 374.069   1
 -27  11   1 1611.37 781.234   1
  27 -16   4 8422.13 1683.11   3
  16 -27   4 6900.51 719.827   4
  11  16   4 10162.0 1756.99   3
 -11  27   4 7499.99 1144.73   1
  27 -16   7 2813.30 1515.20   3
 -11  27   7 3911.68 1193.22   1
 -11  27   7 3183.09 1045.94   3
  11  16   7 1567.31 1260.32   3
  12  15  -6 10093.9 1525.82   1
  27 -15  -6 11254.1 1936.80   4
  15 -27  -6 6471.16 1390.66   4
  12  15  -6 10068.1 1625.28   2
 -27  12  -6 9716.84 919.648   1
  27 -15  -6 8362.27 1677.44   2
 -12  27  -6 9712.05 1352.86   1
  12  15  -6 10194.3 1297.57   3
  15 -27  -6 7802.71 1256.61   2
  12  15  -3 21641.4 1867.31   2
  27 -15  -3 20413.1 1991.76   4
  12  15  -3 20303.8 1577.82   1
  12  15  -3 20109.9 1229.21   4
  27 -15  -3 22258.7 2146.14   2
  15 -27  -3 18780.5 1671.12   4
  12  15  -3 23724.7 1932.51   3
 -12  27  -3 22772.7 1712.34   1
 -27  12  -3 21684.3 1455.58   1
  15 -27  -3 17871.7 1133.77   2
  27 -15   0 4192.51 1317.60   3
 -12  27   0 4841.07 863.631   1
  12  15   0 4096.00 491.653   4
  27 -15   0 3685.83 839.590   4
  27 -15   0 4918.28 927.715   2
  15 -27   0 3170.44 692.644   4
  12  15   0 3533.27 544.518   1
  12  15   0 3777.16 1131.27   3
 -27  12   0 3818.87 854.592   1
  15 -27   3 36852.6 1431.96   4
 -12  27   3 36439.7 2177.18   1
  12  15   3 39465.8 2784.56   3
 -27  12   3 37937.0 2513.98   1
  27 -15   6 9977.25 1848.50   3
 -12  27   6 10016.5 1532.85   1
 -12  27   6 12152.8 1558.73   3
  12  15   6 14746.1 2189.95   3
  14 -27  -7 1628.18 1004.53   2
  13  14  -7 3462.98 1192.18   1
  27 -14  -7 2324.20 1240.52   4
  14 -27  -7 1602.97 1079.21   4
  13  14  -7 1157.79 1104.96   2
  27 -14  -7 1429.43 1286.42   2
 -27  13  -7 1833.26 562.033   1
 -13  27  -7 1703.01 833.254   1
  13  14  -4 9291.54 1266.54   1
  27 -14  -4 10340.6 1608.08   4
  13  14  -4 10040.7 1429.22   2
  13  14  -4 8024.82 958.574   4
  14 -27  -4 7767.59 1268.27   4
  27 -14  -4 5230.14 1279.78   2
 -27  13  -4 9770.20 1015.73   1
  13  14  -4 11682.4 1425.82   3
 -13  27  -4 9000.12 1183.07   1
  14 -27  -4 6637.17 911.347   2
  27 -14  -1 3279.99 1027.52   3
  13  14  -1 3429.14 523.505   4
  27 -14  -1 2753.68 833.455   4
 -13  27  -1 3793.82 777.760   1
  27 -14  -1 5257.96 1089.87   2
  14 -27  -1 3535.48 787.993   4
  13  14  -1 3507.19 666.454   1
  13  14  -1 5104.27 1203.30   3
 -27  13  -1 2930.79 787.846   1
  27 -14   2 3250.46 1082.00   3
  14 -27   2 557.148 398.044   4
  13  14   2 400.363 838.379   3
 -27  13   2 2705.41 888.102   1
 -13  27   2 2029.18 649.575   1
  27 -14   5 3405.26 1412.64   3
 -13  27   5 2653.87 906.380   3
  13  14   5 2982.60 1271.97   3
 -13  27   5 2398.10 1004.83   1
  27 -14   8 3181.01 1483.25   3
 -13  27   8 3679.41 1268.42   1
 -13  27   8 2904.44 1165.42   3
  13  14   8 3770.56 1621.50   3
  13 -27  -8 2282.96 1030.38   2
  14  13  -8 3489.12 1435.36   1
  27 -13  -8 4452.33 1507.10   4
  13 -27  -8 4097.14 1374.77   4
  14  13  -8 4402.57 1425.85   2
  27 -13  -8 4665.73 1716.86   2
 -14  27  -8 3276.67 1047.14   1
  13 -27  -5 982.856 632.194   2
  14  13  -5 3350.43 1036.40   1
  27 -13  -5 2368.47 1057.28   4
  14  13  -5 1907.40 764.702   4
  14  13  -5 2955.39 1167.85   2
  13 -27  -5 1798.56 896.587   4
  27 -13  -5 2052.82 1198.51   2
  14  13  -5 3819.59 1009.46   3
 -27  14  -5 1678.72 550.653   1
 -14  27  -5 1676.13 730.151   1
  27 -13  -2-56.9262 862.079   3
 -14  27  -2 1624.27 698.774   1
  14  13  -2 1320.05 489.548   4
  14  13  -2 1122.34 660.749   2
  27 -13  -2 1110.96 798.695   2
 -27  14  -2 1682.76 588.325   1
  13 -27  -2 1152.70 620.366   4
  14  13  -2 1881.13 679.660   1
  14  13  -2 2153.43 842.857   3
  27 -13  -2 1511.93 861.430   4
  27 -13   1 1693.95 1142.01   3
  27 -13   1 3631.08 777.157   2
  13 -27   1 3912.61 589.297   4
 -27  14   1 5106.95 977.923   1
 -14  27   1 4101.76 869.421   1
  14  13   1 4540.21 1295.62   3
  14  13   1 3271.01 337.844   1
  13 -27   4 9019.72 648.482   4
  14  13   4 8387.74 1564.06   3
 -27  14   4 11233.3 1593.09   1
 -14  27   4 8886.98 1284.46   1
  27 -13   7 2686.89 1430.16   3
 -14  27   7 2807.73 1144.35   1
 -14  27   7 543.866 841.361   3
  14  13   7 3172.35 1464.56   3
 -27  15  -6 16069.8 1239.65   1
  27 -12  -6 13017.8 2029.68   4
  15  12  -6 11389.7 1359.33   4
  15  12  -6 17698.8 2128.69   2
  27 -12  -6 12992.9 2138.34   2
  12 -27  -6 14653.7 1766.09   4
 -15  27  -6 13004.7 1537.49   1
  12 -27  -6 15108.1 1510.92   2
  27 -12  -3 32442.6 2142.49   3
  15  12  -3 36711.5 2203.35   1
  15  12  -3 35924.5 2334.66   2
  27 -12  -3 36773.2 2497.46   4
  15  12  -3 37022.9 1871.26   4
  27 -12  -3 36012.0 2688.07   2
  12 -27  -3 34703.5 2013.50   4
 -27  15  -3 37691.8 1923.98   1
  15  12  -3 44126.2 2530.13   3
 -15  27  -3 37096.0 2132.83   1
  27 -12   0 4476.62 1144.57   3
  15  12   0 4351.35 584.843   4
 -15  27   0 4791.64 902.019   1
  27 -12   0 3754.95 863.451   4
  27 -12   0 3602.70 861.146   2
  12 -27   0 2739.05 519.439   4
  15  12   0 4586.94 546.439   1
  15  12   0 5923.21 1197.90   3
 -27  15   0 2595.61 755.291   1
 -27  15   3 15304.8 1698.45   1
  12 -27   3 14030.4 711.641   4
 -15  27   3 18573.2 1653.89   1
  15  12   3 16651.6 1970.19   3
  27 -12   3 15973.0 1983.15   3
  27 -12   6 3923.55 1514.21   3
 -15  27   6 5837.06 1270.49   1
 -15  27   6 4967.08 1043.37   3
  15  12   6 8011.66 1906.13   3
  11 -27  -7 2356.87 982.766   2
  27 -11  -7 901.505 1292.86   4
  16  11  -7 1796.58 998.770   4
 -27  16  -7 2204.24 599.975   1
  16  11  -7 1734.66 1358.74   2
  11 -27  -7 1820.12 1151.39   4
  27 -11  -7 2535.21 1459.01   2
 -16  27  -7 2606.74 955.339   1
  11 -27  -4 10469.1 1019.58   2
  27 -11  -4 7267.14 1055.54   3
  27 -11  -4 7991.01 1581.92   4
  16  11  -4 9118.05 1122.76   4
  27 -11  -4 12088.6 1774.78   2
  11 -27  -4 7209.90 1114.14   4
 -27  16  -4 9109.66 984.374   1
  16  11  -4 10890.4 1573.36   2
  16  11  -4 11136.7 1276.55   3
 -16  27  -4 8461.39 1184.70   1
  27 -11  -1 3656.91 1085.45   3
  16  11  -1 3136.91 816.285   2
  27 -11  -1 1916.44 746.938   4
  16  11  -1 3132.63 637.838   1
  27 -11  -1 2581.60 926.861   2
  16  11  -1 3147.58 577.676   4
 -16  27  -1 1702.55 640.139   1
  11 -27  -1 1593.95 522.063   4
 -27  16  -1 1465.11 600.127   1
  16  11  -1 4755.21 1128.20   3
 -16  27   2 16732.1 1533.73   1
 -27  16   2 18291.5 1740.58   1
  16  11   2 16727.7 1981.14   3
  27 -11   2 15457.1 1890.28   3
  27 -11   5 137.585 1133.02   3
 -27  16   5 2593.08 1070.48   1
 -16  27   5 3480.55 1050.04   1
  27 -11   8 1981.32 1602.76   3
 -16  27   8 4306.16 1431.83   1
 -16  27   8 2336.09 999.533   3
  16  11   8 3337.43 1523.14   3
  10 -27  -8 1197.90 914.031   2
 -27  17  -8 3276.97 775.825   1
  27 -10  -8 1748.60 1308.33   4
  17  10  -8 2872.98 1171.35   4
  10 -27  -8 3499.58 1257.22   4
  17  10  -8 4002.64 1683.27   2
 -17  27  -8 759.267 792.199   1
 -17  27  -5 2887.01 846.695   1
  10 -27  -5 1339.56 710.187   2
  27 -10  -5 5981.40 1468.23   4
  17  10  -5 2104.86 781.277   4
  17  10  -5 3372.63 1373.44   2
  27 -10  -5 3971.98 1395.39   2
  10 -27  -5 2101.03 873.714   4
 -27  17  -5 2135.46 635.376   1
  17  10  -5 3226.59 897.105   3
  27 -10  -2 10485.9 1490.54   3
 -17  27  -2 8150.41 1079.12   1
  17  10  -2 10673.6 1150.31   1
  17  10  -2 8881.22 1214.97   2
  27 -10  -2 7792.71 1251.06   4
  17  10  -2 7567.88 883.596   4
  27 -10  -2 6108.61 1260.57   2
  10 -27  -2 6913.66 873.374   4
 -27  17  -2 8138.65 1053.53   1
  17  10  -2 8863.91 1375.06   3
 -27  17   1 18609.0 1670.10   1
 -17  27   1 19315.2 1571.77   1
  17  10   1 18694.4 1989.72   3
  27 -10   1 15934.7 1930.42   3
  27 -10   4 3837.53 1323.71   3
 -17  27   4 5225.89 1099.52   1
  17  10   4 3704.80 1383.48   3
 -27  17   4 6290.10 1355.09   1
  27 -10   7 2183.07 1292.96   3
 -17  27   7 6209.19 1542.80   1
 -17  27   7 4664.77 1192.88   3
  17  10   7 6517.42 1768.58   3
   9 -27  -6 15372.4 1472.95   2
 -27  18  -6 17525.2 1397.43   1
  27  -9  -6 13743.5 2093.12   4
  18   9  -6 13718.8 1611.51   4
  18   9  -6 12238.1 1977.51   2
  27  -9  -6 18340.5 2405.56   2
   9 -27  -6 11845.5 1542.58   4
 -18  27  -6 15094.4 1629.35   1
  27  -9  -3 14195.2 1584.30   3
  27  -9  -3 16936.0 1801.04   4
  18   9  -3 15249.5 1657.32   2
  18   9  -3 14847.4 1343.92   4
  27  -9  -3 16514.0 1851.94   2
   9 -27  -3 14227.6 1253.90   4
 -27  18  -3 15789.4 1338.33   1
  18   9  -3 19723.9 1830.87   3
 -18  27  -3 17779.8 1519.27   1
 -27  18   0 25702.6 1825.62   1
  18   9   0 21920.2 1287.10   4
  27  -9   0 20581.4 1602.06   4
  27  -9   0 25444.9 1831.46   2
  18   9   0 22430.5 1058.02   1
 -18  27   0 25272.9 1727.80   1
  18   9   0 26483.7 2198.36   3
  27  -9   0 19642.7 2126.13   3
 -27  18   3 25032.5 2139.26   1
  18   9   3 28000.7 2536.24   3
 -18  27   3 26698.8 2036.42   1
  27  -9   3 21877.8 2293.28   3
  27  -9   6 7199.31 1715.93   3
 -27  18   6 9217.88 1624.70   1
 -18  27   6 7348.73 1492.14   1
  18   9   6 9225.21 1930.33   3
   8 -27  -7 12794.2 1526.93   2
 -27  19  -7 10462.0 1168.60   1
  27  -8  -7 11540.3 2137.98   4
  19   8  -7 11561.1 1648.76   4
   8 -27  -7 12781.3 1690.94   4
  19   8  -7 10780.2 2133.52   2
  27  -8  -7 10451.5 2139.90   2
 -19  27  -7 12211.5 1620.54   1
  27  -8  -4 10726.4 1304.79   3
  27  -8  -4 12966.2 1690.46   4
  19   8  -4 14309.0 1486.31   4
  19   8  -4 13412.2 1767.99   2
  27  -8  -4 10954.8 1830.66   2
 -27  19  -4 16082.1 1346.03   1
   8 -27  -4 14075.8 1362.45   4
  19   8  -4 18000.8 1643.60   3
 -19  27  -4 13902.4 1400.00   1
  19   8  -1 13725.2 1414.67   2
  19   8  -1 14632.8 1180.65   1
  27  -8  -1 13693.7 1350.32   4
  19   8  -1 14216.3 1135.60   4
 -19  27  -1 16997.3 1494.75   1
  27  -8  -1 14117.6 1596.19   2
 -27  19  -1 14854.7 1387.59   1
  19   8  -1 17767.8 1833.04   3
  27  -8  -1 13438.1 1673.80   3
 -27  19   2 8602.33 1284.11   1
 -19  27   2 9575.05 1279.90   1
  19   8   2 11947.6 1659.59   3
  27  -8   2 9645.54 1635.38   3
  27  -8   5 8930.48 1782.13   3
 -19  27   5 10391.4 1526.35   1
 -27  19   5 7558.25 1484.88   1
  19   8   5 6904.74 1596.14   3
  27  -8   8 5744.89 1810.06   3
 -19  27   8 5629.36 1585.26   1
 -19  27   8 2634.43 1077.95   3
  19   8   8 4796.82 1699.84   3
   7 -27  -8 989.206 961.470   2
 -27  20  -8-50.2420 598.076   1
  27  -7  -8-397.178 1459.54   4
  20   7  -8 909.000 1061.60   4
  20   7  -8 369.806 1543.99   2
   7 -27  -8-780.552 999.071   4
  27  -7  -8 495.472 1388.25   2
 -20  27  -8-127.188 689.286   1
 -27  20  -5 7416.41 1045.57   1
  27  -7  -5 9269.79 1624.53   4
  20   7  -5 6395.35 1227.46   4
  20   7  -5 9680.77 1734.30   2
  27  -7  -5 10692.8 1895.30   2
   7 -27  -5 8249.11 1181.34   4
 -20  27  -5 10029.4 1249.53   1
  27  -7  -2 2296.43 1006.15   3
  27  -7  -2 2675.19 835.670   4
  20   7  -2 4411.52 804.202   4
  20   7  -2 2471.88 860.275   2
  27  -7  -2 2924.15 1026.52   2
 -20  27  -2 3646.46 850.970   1
   7 -27  -2 2714.80 521.998   4
 -27  20  -2 4706.82 913.672   1
  20   7  -2 6005.96 1184.36   3
 -27  20   1 12992.7 1482.49   1
 -20  27   1 10936.2 1268.43   1
  20   7   1 10952.9 1652.72   3
  27  -7   1 9682.02 1540.93   3
  27  -7   4 4102.49 1390.92   3
 -20  27   4 6571.48 1226.39   1
 -27  20   4 6420.09 1277.30   1
  20   7   4 2123.09 1237.78   3
  27  -7   7 5125.42 1675.34   3
 -27  20   7 5235.32 1396.26   1
 -20  27   7 5407.38 1132.03   3
 -20  27   7 5575.70 1540.35   1
  20   7   7 5011.02 1692.58   3
 -27  21  -6 8027.31 1086.13   1
  27  -6  -6 10325.5 1782.39   4
  21   6  -6 9122.23 1470.44   4
  27  -6  -6 12793.6 2240.90   2
  21   6  -6 11339.7 2030.60   2
   6 -27  -6 7409.65 1200.70   4
 -21  27  -6 9087.12 1286.18   1
 -21  27  -3 8764.66 1206.73   1
  27  -6  -3 8015.97 1251.91   3
  21   6  -3 7837.40 1342.40   2
  21   6  -3 6476.54 1059.36   4
  27  -6  -3 6206.30 1192.63   4
  27  -6  -3 6209.99 1419.81   2
 -27  21  -3 7849.94 1066.93   1
   6 -27  -3 7746.21 832.664   4
  21   6  -3 8041.91 1323.31   3
  21   6   0 14021.2 1141.33   4
  21   6   0 11815.2 907.827   1
  27  -6   0 12351.7 1279.63   4
  27  -6   0 12218.0 1337.42   2
 -21  27   0 15293.2 1436.14   1
 -27  21   0 14953.3 1465.37   1
  21   6   0 15847.2 1808.62   3
  27  -6   0 12409.4 1657.48   3
 -27  21   3 13631.6 1614.89   1
  21   6   3 12455.0 1878.94   3
 -21  27   3 10348.9 1456.00   1
  27  -6   3 11904.9 1849.46   3
 -27  21   6 22268.2 2354.40   1
 -21  27   6 18770.1 2150.86   1
  21   6   6 20459.6 2478.98   3
  27  -6   6 19404.7 2491.28   3
 -27  22  -7 9579.32 1217.01   1
  27  -5  -7 7020.14 1876.57   4
  22   5  -7 7193.16 1488.26   4
  22   5  -7 7589.93 2050.66   2
  27  -5  -7 6223.72 1835.25   2
   5 -27  -7 9689.85 1454.73   4
 -22  27  -7 9239.96 1353.56   1
 -22  27  -4 8007.00 1142.33   1
  27  -5  -4 5954.38 1089.95   3
  27  -5  -4 8512.44 1454.27   4
  22   5  -4 7082.83 1195.64   4
 -27  22  -4 7569.10 1036.14   1
  22   5  -4 9642.15 1695.04   2
  27  -5  -4 7044.23 1526.26   2
   5 -27  -4 8388.71 993.434   4
  22   5  -4 9099.66 1315.14   3
  22   5  -1 23407.8 1810.31   2
  27  -5  -1 22776.6 1689.33   4
  22   5  -1 20411.6 1465.54   4
  27  -5  -1 28898.9 2065.99   2
 -22  27  -1 24018.3 1811.64   1
 -27  22  -1 24887.7 1831.17   1
  22   5  -1 27780.4 2281.11   3
  27  -5  -1 25196.9 2244.05   3
 -27  22   2 21812.6 1911.77   1
 -22  27   2 20586.8 1811.21   1
  22   5   2 23938.0 2328.83   3
  27  -5   2 17405.3 2069.26   3
 -27  22   5 11583.3 1744.38   1
 -22  27   5 10361.0 1583.62   1
  22   5   5 8185.57 1848.52   3
  27  -5   5 10461.3 2032.32   3
 -27  22   8 8814.42 1778.06   1
 -22  27   8 11727.0 2142.19   1
  22   5   8 9272.09 2304.92   3
  27  -5   8 4891.20 1928.45   3
 -27  23  -5 7986.85 1120.14   1
  27  -4  -5 10761.3 1740.69   4
  23   4  -5 6601.18 1325.98   4
  23   4  -5 5127.63 1513.31   2
  27  -4  -5 7609.16 1740.81   2
   4 -27  -5 5972.43 994.682   4
 -23  27  -5 7703.48 1156.63   1
  27  -4  -2 5867.32 1343.26   3
  27  -4  -2 2722.11 867.622   4
  23   4  -2 2976.55 811.308   4
  23   4  -2 4304.59 1032.68   2
  27  -4  -2 3599.19 1055.49   2
 -23  27  -2 4085.90 930.567   1
 -27  23  -2 3738.52 844.216   1
  23   4  -2 4115.68 1096.45   3
 -23  27   1 11938.2 1429.40   1
  23   4   1 13277.7 1824.35   3
 -27  23   1 11807.2 1410.44   1
 -27  23   4 606.210 836.135   1
 -23  27   4 1724.40 923.544   1
  23   4   4-1348.47 1175.24   3
  27  -4   4 433.295 1218.77   3
 -27  23   7 3197.65 1277.71   1
 -23  27   7 4291.12 1382.96   1
  23   4   7 5238.06 1826.20   3
  27  -4   7 5519.75 1914.98   3
 -27  24  -6 19839.5 1687.87   1
  27  -3  -6 16118.0 2133.95   4
  24   3  -6 15446.8 2022.45   4
  24   3  -6 22315.3 2912.74   2
  27  -3  -6 17137.3 2520.96   2
   3 -27  -6 18292.2 1624.35   4
 -24  27  -6 16923.9 1680.87   1
  27  -3  -3 4757.24 1188.59   3
  24   3  -3 4650.72 1098.75   4
  27  -3  -3 2946.37 1048.53   4
  24   3  -3 3164.04 1135.33   2
  27  -3  -3 5064.40 1289.67   2
 -24  27  -3 4272.45 872.283   1
 -27  24  -3 2527.93 802.012   1
  24   3  -3 4628.91 1188.81   3
  24   3   0 22770.4 1530.04   4
  27  -3   0 19788.6 1539.82   4
  27  -3   0 20535.7 1763.31   2
 -24  27   0 27780.8 1959.62   1
 -27  24   0 24500.0 1898.57   1
  24   3   0 25731.8 2321.71   3
  27  -3   0 20435.4 2174.40   3
 -27  24   3 3261.78 1090.76   1
 -24  27   3 1396.96 846.575   1
  24   3   3 3999.89 1356.58   3
  27  -3   3 3681.63 1398.89   3
 -24  27   6 6361.69 1590.30   1
  24   3   6 5932.21 1718.69   3
 -27  24   6 5113.71 1404.26   1
  27  -3   6 5361.90 1633.50   3
 -27  25  -7 13015.0 1445.55   1
  27  -2  -7 14658.8 2220.39   4
  25   2  -7 16819.7 2250.21   4
  27  -2  -7 14522.5 2529.72   2
  25   2  -7 11559.3 2524.23   2
   2 -27  -7 10474.4 1379.90   4
  -2 -25  -7 13534.1 1463.64   4
 -25  27  -7 14940.7 1619.45   1
 -25  27  -4 7736.35 1169.48   1
 -27  25  -4 8275.67 1226.89   1
  27  -2  -4 10077.6 1547.96   4
  27  -2  -4 10628.1 1788.14   2
  25   2  -4 6998.62 1313.73   4
  25   2  -4 8663.43 1649.90   2
  25   2  -1 23883.6 1941.79   2
  27  -2  -1 16279.0 1548.73   4
  25   2  -1 21418.7 1591.49   4
  27  -2  -1 21716.8 1872.11   2
 -25  27  -1 23713.5 1834.01   1
 -27  25  -1 21548.5 1770.44   1
  25   2  -1 24687.9 2280.01   3
  27  -2  -1 24885.7 2250.49   3
 -27  25   2 11533.9 1485.64   1
  25   2   2 13758.2 1920.60   3
 -25  27   2 17332.6 1748.94   1
  27  -2   2 15260.7 2091.64   3
 -25  27   5 19460.0 2189.81   1
 -27  25   5 19628.1 2163.05   1
  25   2   5 17851.7 2456.82   3
  27  -2   5 12120.9 2126.15   3
 -26  27  -5 6064.49 1100.01   1
  27  -1  -5 7457.95 1567.48   4
  26   1  -5 5411.82 1343.48   4
  26   1  -5 6229.98 1675.27   2
  27  -1  -5 6348.10 1756.68   2
 -27  26  -5 5027.89 1014.86   1
  27  -1  -2 3753.31 977.424   4
  26   1  -2 3764.52 1001.45   4
  26   1  -2 3900.14 1120.44   2
  27  -1  -2 3408.58 1082.64   2
 -26  27  -2 3806.73 898.825   1
 -27  26  -2 4972.57 961.048   1
  26   1  -2 2764.40 1288.89   3
  27  -1  -2 2225.85 1152.05   3
 -26  27   1 7709.99 1307.49   1
 -27  26   1 6807.86 1217.07   1
  26   1   1 10309.8 1752.70   3
  27  -1   1 9763.20 1718.97   3
 -27  26   4 1022.99 968.320   1
 -26  27   4 1192.66 900.147   1
  26   1   4 2409.92 1310.19   3
  27  -1   4 1294.95 1221.35   3
 -26  27   7 1795.68 1291.98   1
 -27  26   7 1108.95 1183.01   1
  26   1   7 3633.59 1959.14   3
  27  -1   7 1288.57 1711.85   3
 -27  27  -6 10733.2 1394.60   1
  27   0  -6 8570.95 1651.47   4
  27   0  -6 10943.2 2286.31   2
  27   0  -3 1094.36 811.457   4
  27   0  -3 1728.49 1071.83   2
 -27  27  -3-279.750 619.128   1
  27   0  -3 1033.98 964.646   3
  27   0   0 17952.0 1733.46   2
  27   0   0 15731.0 1393.89   4
 -27  27   0 21903.7 1876.61   1
  27   0   0 18605.4 2124.17   3
 -27  27   3 618.332 838.628   1
  27   0   3-1081.37 1116.55   3
 -27  27   6 13485.7 2029.46   1
  27   0   6 11190.9 2099.16   3
  28 -28  -4 5096.57 1435.45   4
   0  28  -4 2049.76 1216.89   3
  28 -28  -4 1380.31 1021.29   2
   0  28  -4 2068.61 833.755   1
   0  28  -1 319.182 532.186   1
  28 -28  -1-798.438 848.901   4
  28 -28   2 1777.36 780.620   4
   0  28   2 551.916 1042.71   3
   0  28   2-125.263 446.086   1
   0  28   5-1064.02 1201.05   3
  27 -28  -5 11672.0 1929.75   4
  28 -27  -5 9381.02 1898.43   4
   1  27  -5 18316.7 1829.42   1
   1  27  -5 22363.8 2642.68   3
  -1  28  -5 19305.6 1910.86   1
  27 -28  -5 15061.5 1942.28   2
  28 -27  -5 9454.90 1649.59   2
  28 -27  -2 5979.25 1336.01   4
  27 -28  -2 6235.03 1321.63   4
  28 -27  -2 5252.96 1184.46   2
  -1  28  -2 4314.30 1643.06   3
   1  27  -2 4073.13 1307.32   3
   1  27  -2 4489.95 888.221   1
  -1  28  -2 5922.05 1004.82   1
   1  27   1 18888.1 1306.45   1
  -1  28   1 16106.3 1301.91   1
  28 -27   1 14565.3 1556.40   4
  27 -28   1 16645.1 1628.63   4
  -1  28   1 22228.0 2388.39   3
   1  27   1 21504.5 2263.65   3
  27 -28   4 5308.26 998.442   4
  -1  28   4 4195.71 829.064   1
  -1  28   4 3265.62 1264.03   3
   1  27   4 6949.62 1603.74   3
  28 -26  -6 5586.21 1595.24   4
  26 -28  -6 2606.59 1360.05   4
   2  26  -6 6579.98 1398.81   1
   2  26  -6 6957.14 1855.83   3
  28 -26  -6 6265.73 1595.34   2
  -2  28  -6 5756.58 1224.61   1
  26 -28  -6 3952.76 1439.85   2
  28 -26  -3 13796.5 1860.64   4
  26 -28  -3 17871.7 2021.07   4
  28 -26  -3 18039.2 1919.73   2
  26 -28  -3 16390.2 1710.75   2
   2  26  -3 19917.5 1685.15   1
  -2  28  -3 21795.5 1723.12   1
  -2  28   0 5129.33 822.488   1
  26 -28   0 6269.51 1130.48   4
  28 -26   0 3035.09 946.535   4
  28 -26   0 4009.94 963.350   2
  -2  28   0 5113.95 1443.20   3
   2  26   0 5756.34 1294.85   3
   2  26   0 5808.68 836.514   1
  28 -26   3 21902.9 1828.06   4
  26 -28   3 16743.3 1520.24   4
  -2  28   3 14842.7 1280.71   1
  -2  28   3 20030.2 2154.87   3
   2  26   3 14533.2 1114.66   1
   2  26   3 16231.4 2070.97   3
  28 -26   6 2130.82 1678.50   3
  -2  28   6 4044.19 1464.18   3
   2  26   6 4761.60 1432.34   3
  28 -25  -7 4105.66 1620.13   4
  25 -28  -7 2375.04 1383.06   4
   3  25  -7 4426.73 1273.82   1
   3  25  -7 5676.28 1655.65   3
  28 -25  -7 4664.21 1821.18   2
  -3  28  -7 4155.98 1203.14   1
  25 -28  -7 2703.22 1420.78   2
  28 -25  -4 5641.13 1504.11   4
  25 -28  -4 4466.77 1394.25   4
   3  25  -4 6484.03 1102.92   1
   3  25  -4 8647.94 1714.07   3
  28 -25  -4 6560.18 1453.59   2
  -3  28  -4 6325.53 1138.10   1
  25 -28  -4 5304.70 1334.22   2
   3  25  -1 3339.46 733.198   1
  -3  28  -1 2507.44 648.931   1
   3  25  -1 2729.47 671.987   2
  28 -25  -1 4290.14 1087.28   4
  25 -28  -1 3205.88 944.984   4
  28 -25  -1 3465.31 953.357   2
   3  25  -1 3052.46 1089.97   3
  28 -25   2 13466.4 1458.38   4
  25 -28   2 13986.0 1415.98   4
  28 -25   2 12976.6 1194.21   2
   3  25   2 11987.1 988.918   1
  -3  28   2 15239.6 1258.97   1
  -3  28   2 13615.2 1884.12   3
   3  25   2 16998.9 1993.18   3
  28 -25   5 2182.78 1312.03   3
  -3  28   5 3228.89 1194.18   3
   3  25   5 3241.63 1512.85   3
  -3  28   5 2605.35 844.863   1
  28 -24  -5 20738.5 2425.05   4
  24 -28  -5 22587.9 2365.04   4
   4  24  -5 25780.4 2050.47   1
  28 -24  -5 18938.2 2263.20   2
   4  24  -5 28280.2 2623.58   3
  -4  28  -5 25207.1 2041.72   1
  24 -28  -5 16240.6 1919.42   2
   4  24  -2 10230.8 1128.92   2
  28 -24  -2 8403.90 1441.82   4
  24 -28  -2 8368.61 1325.08   4
  28 -24  -2 8627.64 1429.04   2
   4  24  -2 13383.5 1876.20   3
   4  24  -2 11160.5 1158.42   1
  -4  28  -2 9484.19 1233.12   1
   4  24   1 20537.1 1239.54   1
  -4  28   1 24178.4 1588.98   1
  28 -24   1 18203.5 1698.70   4
  24 -28   1 22376.0 1675.67   4
  28 -24   1 18897.3 1489.76   2
  -4  28   1 26110.1 2341.22   3
   4  24   1 23300.5 2218.10   3
  28 -24   4 7156.86 1714.01   3
  24 -28   4 9245.58 1140.70   4
  -4  28   4 10106.7 1644.96   3
   4  24   4 6159.13 1477.10   3
  -4  28   4 8240.96 1097.98   1
  28 -24   7 5019.99 1748.61   3
  -4  28   7 9995.75 1767.19   3
   4  24   7 4850.90 1514.44   3
  23 -28  -6 8724.00 1824.77   4
  28 -23  -6 3630.21 1380.45   4
   5  23  -6 4621.71 1133.33   2
   5  23  -6 3528.64 1153.17   1
  28 -23  -6 4198.91 1529.26   2
   5  23  -6 7052.26 1610.28   3
  -5  28  -6 3986.33 1068.52   1
  23 -28  -6 3667.71 1266.45   2
  28 -23  -3 24044.3 2278.42   4
   5  23  -3 24501.4 1721.12   2
  23 -28  -3 21951.9 2131.70   4
  28 -23  -3 23928.1 2116.10   2
   5  23  -3 22717.6 1720.78   1
   5  23  -3 24165.6 2400.23   3
  23 -28  -3 18141.1 1555.25   2
  -5  28  -3 25206.2 1845.38   1
  -5  28   0 6693.30 953.673   1
  23 -28   0 7714.13 1110.14   4
  28 -23   0 5222.47 1098.19   4
  28 -23   0 4847.01 975.446   2
   5  23   0 7073.98 1394.28   3
   5  23   0 5939.84 743.199   1
  28 -23   3 24080.2 2572.80   3
  23 -28   3 25857.6 1674.96   4
  28 -23   3 28662.6 1643.23   2
  -5  28   3 24919.3 1716.13   1
  -5  28   3 20715.6 2138.08   3
   5  23   3 27623.4 2410.86   3
   5  23   3 24157.7 1230.47   1
  28 -23   6 8211.44 2016.88   3
  -5  28   6 7534.30 1192.94   1
  -5  28   6 8509.63 1569.42   3
   5  23   6 9317.42 1651.03   3
  28 -22  -7 1657.23 1322.81   4
  22 -28  -7 180.885 1191.92   4
   6  22  -7 2065.71 1081.98   1
   6  22  -7 4.32586 1029.18   2
  28 -22  -7 368.793 1350.05   2
  -6  28  -7 1976.37 932.659   1
  22 -28  -7 1744.85 1266.07   2
  28 -22  -4 5585.86 1348.80   4
  22 -28  -4 3159.41 1124.01   4
   6  22  -4 7201.30 1150.01   2
   6  22  -4 7308.16 1120.54   1
  28 -22  -4 6668.28 1595.03   2
   6  22  -4 7208.94 1427.98   3
  -6  28  -4 7278.96 1185.68   1
  22 -28  -4 4344.59 1091.22   2
   6  22  -1 7165.01 896.694   2
  28 -22  -1 3044.72 962.343   4
  22 -28  -1 5859.51 1075.96   4
  28 -22  -1 6604.82 1189.75   2
   6  22  -1 8067.04 1453.14   3
   6  22  -1 7010.59 871.425   1
  -6  28  -1 6485.02 931.552   1
  28 -22   2 6201.87 1047.58   4
  22 -28   2 4423.35 827.300   4
  28 -22   2 3213.64 776.072   2
   6  22   2 4378.04 579.412   1
  -6  28   2 4497.49 1159.56   3
   6  22   2 5413.55 1366.21   3
  -6  28   2 4187.50 771.989   1
  28 -22   5 5410.54 1636.10   3
  -6  28   5 2588.46 1107.93   3
   6  22   5 3379.97 1171.74   3
  -6  28   5 3606.20 908.421   1
  28 -21  -5 13066.2 1965.28   4
  21 -28  -5 13539.8 1879.59   4
   7  21  -5 13830.8 1614.92   2
   7  21  -5 16109.4 1676.54   1
  28 -21  -5 11689.6 1933.05   2
   7  21  -5 16007.9 1838.99   3
  -7  28  -5 14931.7 1609.26   1
  21 -28  -5 11972.8 1503.74   2
   7  21  -2 10246.4 1182.31   2
  28 -21  -2 7290.05 1320.96   4
  21 -28  -2 8189.55 1224.85   4
  28 -21  -2 8943.08 1459.73   2
   7  21  -2 8309.27 1009.32   1
   7  21  -2 11088.0 1558.15   3
  21 -28  -2 5555.62 763.231   2
  -7  28  -2 7614.28 1085.64   1
 -28   7  -2 8271.51 1003.20   1
   7  21   1 17017.1 1008.59   1
  28 -21   1 18277.0 2158.42   3
  28 -21   1 20446.7 1718.47   4
  -7  28   1 18469.0 1473.73   1
  21 -28   1 17987.6 1445.58   4
  28 -21   1 18086.9 1512.10   2
   7  21   1 22784.7 2188.33   3
  28 -21   4 7024.68 1598.14   3
  21 -28   4 10338.0 1053.70   4
  -7  28   4 7926.01 1412.48   3
   7  21   4 9065.58 1728.79   3
  -7  28   4 7743.68 1105.71   1
  -7  28   7 7477.52 1302.03   1
  -7  28   7 9289.75 1595.82   3
   7  21   7 10924.4 2104.86   3
  28 -20  -6 3042.77 1384.21   4
  20 -28  -6 5396.16 1617.34   4
   8  20  -6 3739.61 1192.15   2
   8  20  -6 2222.90 1014.05   1
  28 -20  -6 2668.24 1440.56   2
   8  20  -6 3578.68 1252.02   3
  -8  28  -6 4658.20 1086.37   1
  20 -28  -6 2836.06 1110.70   2
  28 -20  -3 34106.6 2588.78   4
   8  20  -3 40797.8 2314.45   2
  20 -28  -3 35809.7 2462.22   4
  28 -20  -3 41420.6 2816.54   2
   8  20  -3 36930.3 2103.56   1
   8  20  -3 41973.3 2703.11   3
  -8  28  -3 40271.7 2276.01   1
  20 -28  -3 29986.3 1709.86   2
 -28   8  -3 38867.2 1840.19   1
  -8  28   0 15651.3 1348.95   1
  28 -20   0 14758.2 1887.14   3
  28 -20   0 16148.5 1575.06   4
 -28   8   0 17311.4 1527.88   1
  20 -28   0 16053.5 1382.59   4
  28 -20   0 14073.8 1493.88   2
   8  20   0 15660.8 1795.35   3
   8  20   0 15421.6 1030.01   1
  28 -20   3 19906.6 2206.90   3
  28 -20   3 22769.1 1564.96   2
  20 -28   3 20319.7 1346.87   4
  -8  28   3 19329.2 1925.16   3
  -8  28   3 21866.1 1691.92   1
   8  20   3 20371.4 2227.24   3
  28 -20   6 7497.52 1857.39   3
  -8  28   6 7681.04 1267.01   1
  -8  28   6 5393.45 1363.89   3
   8  20   6 6845.12 1647.86   3
  28 -19  -7-156.357 1195.69   4
  19 -28  -7 101.684 1122.30   4
   9  19  -7 796.740 968.798   1
   9  19  -7 187.425 1102.93   2
  28 -19  -7 1980.76 1469.03   2
  -9  28  -7 12.4260 810.536   1
  19 -28  -7 872.106 975.219   2
  28 -19  -4 5234.49 1319.27   4
   9  19  -4 7000.70 1187.86   2
 -28   9  -4 5577.47 787.952   1
   9  19  -4 9523.73 1279.61   1
  19 -28  -4 3082.25 1083.98   4
  28 -19  -4 3429.05 1313.26   2
   9  19  -4 6805.76 1288.99   3
  -9  28  -4 6799.45 1117.28   1
  19 -28  -4 5818.72 991.953   2
  28 -19  -1 3544.57 1094.35   3
   9  19  -1 5294.08 888.050   2
  -9  28  -1 4868.64 848.441   1
 -28   9  -1 4657.79 920.634   1
  28 -19  -1 2532.14 920.736   4
  19 -28  -1 5041.76 980.829   4
  28 -19  -1 5660.20 1132.37   2
   9  19  -1 4329.54 712.799   1
   9  19  -1 4690.68 1213.44   3
  28 -19   2 2410.91 1298.48   3
  28 -19   2 1851.95 683.425   2
   9  19   2 2429.16 411.798   1
  19 -28   2 2173.97 626.199   4
   9  19   2 1208.51 1034.50   3
  -9  28   2 1728.10 637.036   1
  28 -19   5 353.911 1351.25   3
  -9  28   5 496.890 784.762   3
   9  19   5 691.457 1171.26   3
  -9  28   5 1424.27 746.989   1
  28 -19   8 3140.97 1686.98   3
  -9  28   8 4659.46 1219.82   1
  -9  28   8 3626.97 1327.47   3
   9  19   8 6966.70 1898.67   3
  28 -18  -8 4093.41 1757.03   4
  10  18  -8 4048.18 1385.47   1
  18 -28  -8 3252.05 1424.13   4
  10  18  -8 5070.32 1471.81   2
  28 -18  -8 996.912 1391.42   2
 -10  28  -8 3365.02 1101.06   1
  18 -28  -8 3798.13 1392.70   2
  28 -18  -5 14373.5 2020.67   4
  10  18  -5 17494.2 1775.92   1
  10  18  -5 16067.9 1751.13   2
  18 -28  -5 13526.7 1823.43   4
  28 -18  -5 14098.7 1946.12   2
  10  18  -5 18096.0 1844.24   3
 -10  28  -5 15890.2 1615.84   1
  18 -28  -5 12238.8 1432.12   2
  10  18  -2 6548.66 975.492   2
  28 -18  -2 6670.26 1294.49   4
  18 -28  -2 7198.46 1149.73   4
  28 -18  -2 8583.35 1398.35   2
  10  18  -2 5641.11 810.766   1
 -28  10  -2 7677.19 996.394   1
  10  18  -2 6039.45 1258.89   3
 -10  28  -2 5722.72 964.487   1
  18 -28  -2 2861.06 471.289   2
  28 -18   1 14459.3 1893.01   3
  28 -18   1 17943.4 1548.37   4
  28 -18   1 15510.7 1480.69   2
  18 -28   1 17204.6 1299.05   4
 -10  28   1 17835.3 1496.54   1
  10  18   1 17870.8 1950.42   3
 -28  10   1 16611.1 1600.27   1
  10  18   1 16281.9 874.521   1
  28 -18   4 6006.02 1441.40   3
  18 -28   4 6245.44 780.143   4
 -10  28   4 6579.63 1266.39   3
  10  18   4 7456.55 1546.91   3
 -10  28   4 7138.84 1149.49   1
  28 -18   7 9368.01 2087.30   3
 -10  28   7 9940.06 1589.47   3
  10  18   7 16054.4 2325.27   3
 -10  28   7 12824.3 1730.16   1
  11  17  -6 15493.6 1841.08   1
  28 -17  -6 14943.5 2220.07   4
  11  17  -6 16088.4 1979.78   2
  17 -28  -6 12930.1 1883.90   4
  28 -17  -6 13078.3 2095.56   2
  11  17  -6 19180.8 1801.38   3
 -11  28  -6 16290.0 1753.29   1
  17 -28  -6 16654.3 1688.98   2
 -28  11  -3 27115.0 1640.13   1
  28 -17  -3 24285.0 2214.81   4
  11  17  -3 24518.2 1912.30   2
  17 -28  -3 23562.1 1926.91   4
  28 -17  -3 23988.0 2213.63   2
  11  17  -3 25342.3 1727.30   1
  11  17  -3 27926.7 2199.09   3
 -11  28  -3 26903.7 1884.40   1
  17 -28  -3 21128.2 1263.29   2
 -28  11   0 17419.7 1619.32   1
  28 -17   0 15917.6 1868.89   3
 -11  28   0 16177.3 1390.02   1
  28 -17   0 14806.0 1512.94   4
  11  17   0 16274.4 835.282   4
  28 -17   0 18811.4 1700.24   2
  17 -28   0 13646.3 1263.44   4
  11  17   0 17403.0 1848.08   3
  11  17   0 14368.8 925.143   1
  28 -17   3 22148.1 2354.88   3
  17 -28   3 24359.2 1286.00   4
 -11  28   3 27973.8 1970.48   1
 -28  11   3 25658.7 2207.71   1
  28 -17   6 4274.05 1642.02   3
 -11  28   6 4547.07 1238.96   1
 -11  28   6 3683.83 1155.59   3
  11  17   6 4967.31 1388.54   3
  16 -28  -7 309.217 899.069   2
  28 -16  -7 607.926 1244.46   4
  12  16  -7 1045.70 885.128   1
  16 -28  -7 407.826 1058.99   4
  12  16  -7 1995.54 1133.62   2
  28 -16  -7-1293.49 1528.61   2
 -12  28  -7-109.247 756.155   1
  12  16  -4 10652.3 1347.49   1
  12  16  -4 9191.94 1410.64   2
  28 -16  -4 6384.06 1449.98   4
  28 -16  -4 9310.29 1726.54   2
  16 -28  -4 6739.50 1227.64   4
  12  16  -4 10566.3 1416.16   3
 -12  28  -4 7721.35 1136.53   1
 -28  12  -4 8033.54 928.900   1
  16 -28  -4 6295.57 907.452   2
  28 -16  -1 1125.65 978.190   3
  12  16  -1 632.300 646.529   2
  28 -16  -1-63.3041 656.935   4
  12  16  -1 166.121 349.219   4
 -12  28  -1 634.078 528.033   1
  28 -16  -1 651.773 714.496   2
  16 -28  -1 269.340 571.781   4
 -28  12  -1-102.769 545.531   1
  12  16  -1-113.635 391.544   1
  12  16  -1 727.378 889.251   3
  28 -16   2 3319.40 1169.69   3
  16 -28   2 2546.60 550.329   4
 -28  12   2 1670.80 761.805   1
  12  16   2 3624.01 1105.84   3
 -12  28   2 3230.17 798.497   1
  28 -16   2 2113.51 807.239   2
  28 -16   5-373.041 1123.36   3
 -12  28   5 168.697 744.146   3
 -12  28   5-401.639 709.729   1
  12  16   5 143.090 1169.38   3
  28 -16   8 5209.88 1873.52   3
 -12  28   8 6704.82 1471.37   1
 -12  28   8 4670.19 1311.87   3
  12  16   8 9321.54 2058.34   3
  15 -28  -8 1769.53 1134.57   2
  13  15  -8 1809.16 1345.98   1
  28 -15  -8 627.713 1263.04   4
  15 -28  -8 1773.47 1234.26   4
  13  15  -8 1930.92 1425.69   2
  28 -15  -8 4565.54 1899.46   2
 -13  28  -8 2615.03 1034.33   1
  15 -28  -5 5214.40 993.942   2
  13  15  -5 8554.61 1392.66   1
  28 -15  -5 7552.32 1643.70   4
  13  15  -5 9327.34 1612.77   2
  15 -28  -5 7755.65 1384.50   4
  28 -15  -5 4631.53 1345.75   2
 -28  13  -5 9568.69 993.806   1
  13  15  -5 10215.0 1432.33   3
 -13  28  -5 8383.81 1231.89   1
  28 -15  -2 8292.15 1364.47   3
 -28  13  -2 8361.20 1099.65   1
  13  15  -2 10875.6 1258.79   2
  28 -15  -2 8775.67 1396.33   4
  13  15  -2 8407.28 798.873   4
  28 -15  -2 9712.65 1409.11   2
  15 -28  -2 8901.69 1193.37   4
  13  15  -2 9117.22 1026.76   1
  13  15  -2 11620.9 1506.80   3
 -13  28  -2 11490.8 1269.02   1
  28 -15   1 11208.8 1800.47   3
  28 -15   1 9555.44 1218.62   4
  28 -15   1 14797.4 1417.12   2
  15 -28   1 13482.3 1058.72   4
 -13  28   1 12389.6 1293.98   1
  13  15   1 14577.6 1833.59   3
  13  15   1 10470.5 607.577   1
 -28  13   1 13872.4 1543.17   1
  28 -15   4 7826.55 1736.17   3
  15 -28   4 8223.96 714.727   4
 -28  13   4 9483.50 1495.67   1
  13  15   4 11044.1 1822.64   3
 -13  28   4 8018.42 1268.08   1
  28 -15   7 1737.39 1559.64   3
 -13  28   7 1031.16 876.056   1
 -13  28   7 2315.71 1006.35   3
  13  15   7 5181.36 1707.20   3
  14  14  -6 12703.3 1753.98   1
  28 -14  -6 13840.7 2239.97   4
  14  14  -6 16222.5 2056.66   2
  14 -28  -6 12458.4 1768.81   4
  28 -14  -6 13374.3 2263.54   2
 -28  14  -6 14245.1 1173.77   1
 -14  28  -6 11651.4 1465.33   1
  14 -28  -6 12081.3 1455.44   2
  14 -28  -3 11948.8 900.275   2
  28 -14  -3 13101.9 1541.19   3
  14  14  -3 13775.8 1542.38   2
  28 -14  -3 12130.1 1654.51   4
  14  14  -3 14570.6 1434.88   1
  14  14  -3 13078.4 1138.51   4
  28 -14  -3 15136.6 1854.37   2
  14 -28  -3 14818.1 1522.08   4
  14  14  -3 19390.5 1758.65   3
 -28  14  -3 17698.1 1381.33   1
 -14  28  -3 16739.2 1517.66   1
  28 -14   0 14966.3 1836.17   3
  14  14   0 16409.6 980.722   4
  28 -14   0 13555.9 1476.40   4
 -14  28   0 17005.0 1457.80   1
  28 -14   0 16018.1 1578.35   2
  14 -28   0 16140.6 1216.11   4
  14  14   0 16421.4 916.878   1
  14  14   0 18377.1 1914.50   3
  28 -14   3 15087.5 2098.69   3
  14 -28   3 15167.9 879.603   4
 -28  14   3 15307.6 1773.99   1
 -14  28   3 18745.2 1660.96   1
  28 -14   6 11447.8 1980.48   3
 -14  28   6 11094.4 1686.51   1
 -14  28   6 12709.4 1531.69   3
  13 -28  -7 931.713 890.117   2
  15  13  -7 2438.39 1136.57   1
  28 -13  -7 2585.72 1373.77   4
  13 -28  -7 2444.94 1199.15   4
  15  13  -7 4270.75 1530.45   2
  28 -13  -7 2401.35 1379.93   2
 -28  15  -7 2079.02 595.421   1
 -15  28  -7 1707.86 766.348   1
  13 -28  -4 6020.60 839.319   2
  15  13  -4 10206.6 1354.48   1
  28 -13  -4 6998.75 1405.94   4
  15  13  -4 7622.73 1010.81   4
  28 -13  -4 13724.4 1890.97   2
  15  13  -4 7675.70 1388.08   2
  13 -28  -4 8017.05 1284.10   4
 -28  15  -4 8532.28 985.599   1
  15  13  -4 11257.4 1422.27   3
 -15  28  -4 9396.98 1279.25   1
  28 -13  -1 10926.7 1557.02   3
 -15  28  -1 16151.6 1407.29   1
 -28  15  -1 14712.9 1371.39   1
  15  13  -1 14344.7 1374.88   2
  28 -13  -1 12904.9 1422.13   4
  15  13  -1 13781.8 1021.90   4
  28 -13  -1 17588.6 1687.64   2
  13 -28  -1 13240.1 1136.16   4
  15  13  -1 14477.3 1093.02   1
  15  13  -1 12850.9 1670.23   3
  28 -13   2 6739.18 1528.39   3
  13 -28   2 6213.02 603.919   4
 -15  28   2 8589.55 1195.12   1
  15  13   2 10834.0 1643.93   3
 -28  15   2 8644.13 1349.40   1
  28 -13   5 8303.63 1773.82   3
 -15  28   5 9308.10 1421.27   1
 -28  15   5 7692.32 1427.10   1
  15  13   5 9679.79 1734.85   3
  28 -13   8 2383.32 1513.63   3
 -15  28   8-232.066 1061.09   1
 -15  28   8 308.228 1010.51   3
  15  13   8-350.210 1346.92   3
  12 -28  -8 3436.73 1120.72   2
  28 -12  -8 4083.01 1633.36   4
  12 -28  -8 4569.41 1521.57   4
  16  12  -8 5014.55 1870.47   2
  28 -12  -8 3625.94 1673.09   2
 -16  28  -8 6605.31 1266.25   1
 -16  28  -5 291.987 717.400   1
  12 -28  -5 104.555 585.528   2
  16  12  -5 719.396 796.576   1
  28 -12  -5-172.292 1023.63   4
  16  12  -5 1194.80 813.218   4
  16  12  -5-1156.67 962.447   2
  12 -28  -5-149.467 724.886   4
  28 -12  -5-358.513 1012.30   2
 -28  16  -5-251.435 495.414   1
  16  12  -5 103.871 702.980   3
  28 -12  -2 520.510 879.700   3
  28 -12  -2 1901.00 808.834   4
  16  12  -2 2925.67 908.416   2
  16  12  -2 2567.77 608.302   4
 -16  28  -2 1873.89 751.570   1
 -28  16  -2 2264.78 655.157   1
  28 -12  -2 640.159 767.278   2
  16  12  -2 2404.51 660.434   1
  12 -28  -2 1868.34 650.697   4
  16  12  -2 2278.56 976.259   3
  28 -12   1 775.664 1019.56   3
  28 -12   1-664.992 698.548   2
 -28  16   1 672.698 845.411   1
  12 -28   1 341.310 270.309   4
 -16  28   1 461.224 597.854   1
  16  12   1 1442.43 1083.21   3
 -28  16   4 9385.93 1494.59   1
  16  12   4 6739.50 1602.53   3
 -16  28   4 6377.11 1229.64   1
  28 -12   4 8793.72 1763.59   3
  28 -12   7 2990.62 1562.62   3
 -16  28   7 2511.25 1241.96   1
 -16  28   7-203.974 788.700   3
  16  12   7 1573.39 1388.09   3
  11 -28  -6 3663.82 932.753   2
 -28  17  -6 4598.81 865.747   1
  28 -11  -6 4693.23 1536.68   4
  17  11  -6 5315.65 1133.06   4
  17  11  -6 5171.93 1490.52   2
  11 -28  -6 4780.77 1242.07   4
  28 -11  -6 5999.93 1851.45   2
 -17  28  -6 3880.10 984.833   1
  28 -11  -3 22458.6 1891.82   3
  17  11  -3 31219.2 2078.87   1
  17  11  -3 26443.4 2159.13   2
  28 -11  -3 23105.5 2129.53   4
  17  11  -3 27564.8 1730.45   4
  28 -11  -3 33712.1 2622.10   2
  11 -28  -3 24609.2 1659.60   4
 -28  17  -3 26212.7 1700.80   1
  17  11  -3 33280.1 2262.90   3
 -17  28  -3 24880.4 1851.29   1
 -28  17   0 15806.0 1554.56   1
  17  11   0 15900.8 1060.67   4
  28 -11   0 13173.7 1420.29   4
  28 -11   0 18318.2 1611.59   2
 -17  28   0 18123.1 1511.12   1
  11 -28   0 11520.2 708.830   4
  17  11   0 15258.6 845.469   1
  17  11   0 17552.7 1854.10   3
  28 -11   0 16254.5 1863.38   3
 -17  28   3 29267.8 2131.14   1
  17  11   3 33463.8 2757.96   3
  28 -11   3 26668.7 2586.90   3
 -28  17   3 27775.6 2313.40   1
 -17  28   6 13331.1 1857.80   1
 -17  28   6 14153.9 1547.20   3
 -28  17   6 17715.0 2186.54   1
  17  11   6 13331.9 2120.06   3
  10 -28  -7 11265.0 1425.13   2
 -28  18  -7 11812.1 1227.33   1
  28 -10  -7 10570.9 2089.06   4
  18  10  -7 12797.9 1715.83   4
  18  10  -7 15466.8 2369.66   2
  10 -28  -7 9600.88 1533.47   4
  28 -10  -7 9847.99 2147.48   2
 -18  28  -7 11024.4 1465.02   1
  28 -10  -4 5125.13 1062.35   3
  18  10  -4 7123.08 1072.49   4
  28 -10  -4 7708.13 1460.82   4
  28 -10  -4 10956.2 1799.74   2
  18  10  -4 8372.72 1425.79   2
  10 -28  -4 5577.85 1051.44   4
 -28  18  -4 7975.92 985.491   1
  18  10  -4 8107.60 1275.31   3
 -18  28  -4 6082.75 1084.28   1
  28 -10  -1 16285.3 1814.15   3
 -18  28  -1 16641.9 1480.42   1
  18  10  -1 17070.3 1541.26   2
  28 -10  -1 16671.5 1573.64   4
  18  10  -1 15617.1 1152.44   4
  28 -10  -1 15429.2 1648.73   2
  18  10  -1 16904.1 1217.82   1
  10 -28  -1 12046.9 820.548   4
  18  10  -1 20100.8 1913.09   3
 -28  18  -1 12966.9 1297.56   1
  28 -10   2 3412.69 1302.21   3
 -28  18   2 5826.26 1224.67   1
 -18  28   2 5366.55 1015.58   1
  18  10   2 4758.31 1384.72   3
 -18  28   5 13553.2 1695.66   1
 -28  18   5 12050.2 1698.86   1
  18  10   5 14964.1 2166.63   3
  28 -10   5 13533.9 2041.83   3
  28 -10   8 1676.25 1518.67   3
 -18  28   8 5588.84 1529.64   1
 -18  28   8 2927.75 1214.81   3
  18  10   8 3399.73 1639.22   3
   9 -28  -8 3448.63 1155.27   2
 -28  19  -8 3721.48 858.574   1
  28  -9  -8 4455.75 1662.51   4
  19   9  -8 3750.93 1282.42   4
  19   9  -8 5894.81 1984.54   2
   9 -28  -8 4874.97 1435.26   4
  28  -9  -8 8139.71 2132.90   2
 -19  28  -8 2101.49 905.448   1
 -19  28  -5 1347.06 654.852   1
  28  -9  -5 1553.65 1099.19   4
  19   9  -5 2428.39 920.140   4
  19   9  -5 2597.81 1184.53   2
  28  -9  -5 1270.22 1150.04   2
   9 -28  -5 485.386 803.572   4
 -28  19  -5 1421.52 612.510   1
 -28  19  -2 3655.39 783.064   1
  28  -9  -2 2127.62 1116.69   3
  28  -9  -2 2697.29 958.962   4
  19   9  -2 2970.64 721.991   4
  19   9  -2 2948.13 871.525   2
  19   9  -2 2580.68 807.802   1
  28  -9  -2 3102.47 1150.65   2
 -19  28  -2 2975.73 785.408   1
   9 -28  -2 3081.60 589.091   4
  19   9  -2 2999.11 1081.50   3
 -28  19   1 6939.55 1141.97   1
 -19  28   1 6621.99 1079.73   1
  19   9   1 5055.54 1273.66   3
  28  -9   4 6658.07 1580.23   3
 -19  28   4 6665.19 1226.51   1
 -28  19   4 5722.73 1333.27   1
  19   9   4 7555.61 1650.82   3
  28  -9   7 1451.73 1433.85   3
 -19  28   7-99.5385 1056.27   1
 -28  19   7 718.796 1046.63   1
 -19  28   7-1.19013 823.634   3
  19   9   7 283.947 1341.81   3
  28  -8  -6 6301.41 1751.00   4
  20   8  -6 3991.41 1091.12   4
  20   8  -6 4995.65 1426.07   2
 -28  20  -6 4667.95 853.377   1
  28  -8  -6 4848.57 1859.45   2
   8 -28  -6 4481.72 1159.81   4
 -20  28  -6 5258.57 1141.01   1
  28  -8  -3 19315.6 1826.21   3
 -20  28  -3 22088.7 1726.01   1
  28  -8  -3 18026.4 1930.76   4
  20   8  -3 22495.1 2033.55   2
  20   8  -3 21680.2 1680.39   4
  28  -8  -3 25664.7 2255.62   2
   8 -28  -3 19467.6 1301.79   4
 -28  20  -3 22071.9 1614.13   1
  20   8  -3 25076.5 2078.22   3
  20   8   0 12925.9 1080.41   4
  28  -8   0 13758.5 1351.47   4
  28  -8   0 15963.7 1550.56   2
  20   8   0 11882.6 829.036   1
 -20  28   0 18966.4 1620.73   1
  20   8   0 15812.1 1850.99   3
 -28  20   0 15055.8 1497.37   1
  28  -8   0 16326.7 1949.69   3
 -28  20   3 39053.8 2638.15   1
  20   8   3 43799.0 3134.13   3
 -20  28   3 39025.2 2488.10   1
  28  -8   6 762.063 1328.99   3
 -20  28   6 3088.51 1249.32   1
 -28  20   6 3855.28 1374.45   1
  20   8   6 3341.42 1444.25   3
 -28  21  -7 6888.40 1073.97   1
   7 -28  -7 5418.44 1111.12   2
  28  -7  -7 7709.45 1789.42   4
  21   7  -7 6734.23 1462.09   4
  21   7  -7 7624.70 2129.10   2
  28  -7  -7 9846.95 2185.52   2
   7 -28  -7 6079.24 1314.44   4
 -21  28  -7 8245.97 1351.68   1
  28  -7  -4 5915.16 1129.32   3
  21   7  -4 8981.90 1295.98   4
  28  -7  -4 7017.78 1369.48   4
  28  -7  -4 8776.47 1790.45   2
  21   7  -4 6557.74 1367.11   2
 -28  21  -4 8578.58 1109.18   1
   7 -28  -4 5703.90 927.049   4
  21   7  -4 7933.51 1315.51   3
 -21  28  -4 9523.21 1211.75   1
  21   7  -1 15269.4 1552.55   2
  28  -7  -1 13730.8 1491.54   4
  21   7  -1 16994.3 1301.46   4
  28  -7  -1 16045.5 1735.60   2
 -21  28  -1 18112.6 1555.56   1
 -28  21  -1 16704.1 1537.78   1
  21   7  -1 20938.2 2079.02   3
  28  -7  -1 14876.4 1757.28   3
  28  -7   2 3119.41 1413.55   3
 -28  21   2 4742.33 1094.97   1
  21   7   2 5126.55 1499.06   3
 -28  21   5 14779.9 1971.22   1
 -21  28   5 10444.5 1609.51   1
  21   7   5 15736.8 2238.06   3
  28  -7   5 11066.7 2156.74   3
  28  -6  -5 3798.58 1241.88   4
  22   6  -5 2356.02 951.380   4
  22   6  -5 3449.33 1402.08   2
  28  -6  -5 724.803 1144.14   2
 -28  22  -5 3412.36 853.936   1
   6 -28  -5 3841.24 937.982   4
 -22  28  -5 4464.11 1067.14   1
  28  -6  -2 5078.87 1185.75   3
  28  -6  -2 5790.62 1160.57   4
  22   6  -2 5436.63 925.328   4
  22   6  -2 3881.82 1062.09   2
  28  -6  -2 5292.10 1264.90   2
 -22  28  -2 2816.69 771.012   1
  22   6  -2 4292.58 1192.15   3
 -28  22  -2 4831.25 893.147   1
 -28  22   1 6053.51 1086.06   1
 -22  28   1 6851.32 1094.66   1
  22   6   1 6268.54 1440.86   3
  28  -6   1 7808.38 1655.55   3
 -28  22   4 7995.02 1472.38   1
 -22  28   4 5912.19 1311.38   1
  22   6   4 9138.75 1707.57   3
  28  -6   4 6919.77 1637.70   3
  28  -6   7 3001.92 1661.79   3
 -28  22   7 1217.42 1157.80   1
 -22  28   7 1315.98 960.004   3
 -22  28   7 706.581 1057.21   1
  22   6   7 2315.44 1495.82   3
 -28  23  -6 8717.97 1173.05   1
  28  -5  -6 10988.3 1924.00   4
  23   5  -6 10271.0 1646.88   4
  28  -5  -6 12787.1 2392.82   2
  23   5  -6 8260.90 1964.34   2
   5 -28  -6 7160.23 1200.30   4
 -23  28  -6 9621.16 1318.67   1
 -23  28  -3 31037.1 2085.29   1
  28  -5  -3 21895.3 2047.98   4
  23   5  -3 28027.4 1970.93   4
  23   5  -3 29238.9 2404.71   2
  28  -5  -3 34034.6 2652.29   2
 -28  23  -3 32414.4 2012.31   1
  23   5  -3 33261.1 2390.93   3
  28  -5  -3 26721.3 2201.45   3
  28  -5   0 1884.95 1150.04   3
  23   5   0 4040.68 741.977   4
  28  -5   0 4055.88 864.719   4
  28  -5   0 1837.36 752.508   2
 -28  23   0 4517.21 972.057   1
 -23  28   0 3629.76 869.660   1
 -28  23   3 23002.2 2123.65   1
  23   5   3 19628.7 2376.34   3
  28  -5   3 21594.7 2420.34   3
 -23  28   3 23658.0 2098.18   1
 -28  23   6 5469.85 1482.67   1
 -23  28   6 8357.91 1739.58   1
  23   5   6 6332.42 1805.57   3
  28  -5   6 4807.60 1548.43   3
 -28  24  -7 9563.02 1276.29   1
  28  -4  -7 7913.42 1780.47   4
  24   4  -7 8546.34 1709.28   4
  24   4  -7 7371.34 2090.38   2
  28  -4  -7 9231.16 2191.10   2
 -24  28  -7 9900.85 1446.92   1
 -24  28  -4 7208.72 1110.59   1
  24   4  -4 9137.95 1431.57   4
  28  -4  -4 6487.86 1461.68   4
 -28  24  -4 8352.78 1190.24   1
  24   4  -4 8751.82 1622.27   2
  28  -4  -4 7310.86 1648.95   2
  28  -4  -1 16376.3 1642.77   2
  24   4  -1 21822.9 1860.49   2
  28  -4  -1 16964.0 1562.12   4
  24   4  -1 15614.5 1356.60   4
 -24  28  -1 22645.1 1772.70   1
 -28  24  -1 18848.4 1690.90   1
  24   4  -1 18260.6 2020.05   3
  28  -4  -1 20013.3 2068.26   3
 -28  24   2 7842.79 1342.30   1
 -24  28   2 6787.79 1205.50   1
  24   4   2 8898.86 1592.54   3
  28  -4   2 12183.0 1859.95   3
 -24  28   5 22600.3 2286.74   1
  24   4   5 21069.0 2611.15   3
  28  -4   5 16798.0 2306.90   3
 -28  24   5 24399.6 2410.00   1
  28  -3  -5 4312.37 1327.43   4
  25   3  -5 2203.52 996.032   4
 -25  28  -5 2846.38 893.830   1
  25   3  -5 2836.33 1477.09   2
  28  -3  -5 2459.25 1533.44   2
 -28  25  -5 2449.57 782.390   1
  28  -3  -2 10503.8 1401.62   4
  25   3  -2 15291.1 1794.52   2
  25   3  -2 12238.9 1375.00   4
  28  -3  -2 16903.3 1869.46   2
 -25  28  -2 12612.6 1447.70   1
 -28  25  -2 14941.1 1483.89   1
  25   3  -2 14111.0 1725.49   3
  28  -3  -2 16428.9 1932.98   3
 -25  28   1 3409.08 926.984   1
 -28  25   1 2982.15 999.342   1
  25   3   1 5402.09 1451.12   3
  28  -3   1 3389.05 1257.88   3
 -25  28   4 6479.98 1373.99   1
 -28  25   4 5123.27 1211.40   1
  25   3   4 6818.51 1708.03   3
  28  -3   4 4638.32 1537.25   3
 -28  25   7 2598.05 1308.87   1
 -25  28   7 2945.90 1596.27   1
  25   3   7 4419.19 2004.45   3
  28  -3   7 2967.34 1661.35   3
 -26  28  -6 4411.79 1007.26   1
  28  -2  -6 5131.95 1504.90   4
  26   2  -6 3109.74 1333.67   4
 -28  26  -6 2960.64 880.206   1
  26   2  -6 4054.22 1689.08   2
  28  -2  -6 4059.72 1675.85   2
  28  -2  -3 15729.7 1746.86   4
  26   2  -3 10902.7 1459.01   4
  26   2  -3 18152.2 2051.98   2
 -26  28  -3 15433.8 1578.87   1
  28  -2  -3 14995.3 1976.94   2
 -28  26  -3 18036.5 1648.38   1
  26   2  -3 17323.4 1880.13   3
  28  -2  -3 13465.2 1734.06   3
 -28  26   0 3231.29 962.949   1
  26   2   0 5238.36 1153.79   2
  26   2   0 4883.75 880.088   4
  28  -2   0 4753.01 1134.53   2
 -26  28   0 5387.79 1153.33   1
  28  -2   0 4032.73 902.329   4
  26   2   0 7466.34 1565.21   3
  28  -2   0 7202.85 1660.91   3
 -26  28   3 22397.4 2137.65   1
 -28  26   3 18828.6 1977.33   1
  26   2   3 20995.6 2396.89   3
  28  -2   3 17594.2 2284.89   3
 -26  28   6 5001.14 1474.19   1
 -28  26   6 3425.16 1363.70   1
  26   2   6 4840.45 1692.51   3
  28  -2   6 3118.94 1747.24   3
 -27  28  -4 7803.20 1256.48   1
  27   1  -4 6654.78 1422.57   4
 -28  27  -4 6775.82 1161.76   1
  28  -1  -4 6072.79 1380.04   4
  27   1  -4 5054.68 1415.23   2
  28  -1  -4 7264.73 1746.97   2
  28  -1  -1 11013.7 1299.65   4
  27   1  -1 12402.4 1306.79   4
  27   1  -1 12982.8 1562.90   2
  28  -1  -1 16091.2 1790.96   2
 -27  28  -1 12689.1 1519.41   1
 -28  27  -1 16163.9 1697.85   1
  27   1  -1 14256.5 1991.86   3
  28  -1  -1 16520.5 2002.64   3
 -27  28   2 3766.04 1107.93   1
 -28  27   2 4438.30 1136.64   1
  27   1   2 4747.65 1504.06   3
  28  -1   2 3805.74 1447.83   3
 -27  28   5 15597.2 2020.76   1
 -28  27   5 13090.4 1930.04   1
  27   1   5 14033.5 2303.86   3
  28  -1   5 13290.2 2341.48   3
  28   0  -5-232.557 1052.88   4
  28   0  -5 496.053 1425.73   2
 -28  28  -5-234.596 717.127   1
  28   0  -2 58.1494 694.996   4
  28   0  -2 119.536 826.740   2
 -28  28  -2-778.072 821.130   1
  28   0  -2 113.815 1020.86   3
 -28  28   1-465.273 717.759   1
  28   0   1-1344.38 1175.42   3
 -28  28   4 3401.17 1194.45   1
  28   0   4 5274.70 1730.11   3
  29 -29  -5-483.427 1090.40   4
   0  29  -5-1086.47 1502.82   3
   0  29  -5 157.504 763.008   1
  29 -29  -2 13667.2 1850.96   4
   0  29  -2 18780.9 2352.99   3
   0  29  -2 15706.9 1490.19   1
  29 -29   1 636.665 752.310   4
   0  29   1 133.759 517.404   1
   0  29   1 765.791 1117.31   3
  29 -29   4 21164.9 1833.99   4
   0  29   4 27938.2 2676.58   3
  29 -28  -3 9281.70 1739.74   4
  28 -29  -3 7792.94 1665.82   4
  -1  29  -3 9667.45 1914.04   3
   1  28  -3 13669.3 2104.99   3
   1  28  -3 10479.3 1284.15   1
  -1  29  -3 10586.8 1361.62   1
  29 -28   0 1740.60 998.606   4
  28 -29   0 967.622 782.886   4
   1  28   0 1548.42 575.409   1
  -1  29   0 1735.23 677.910   1
  -1  29   0 1167.14 1330.86   3
   1  28   0 1655.67 1153.01   3
  -1  29   3 4472.21 817.949   1
  29 -28   3 6077.32 1226.83   4
  28 -29   3 5337.86 1051.74   4
  -1  29   3 5998.46 1568.46   3
   1  28   3 8988.32 1764.13   3
  29 -27  -4 519.482 972.652   4
  27 -29  -4 2086.62 1266.59   4
   2  27  -4 1073.67 1192.18   3
  29 -27  -4 128.633 1089.49   2
   2  27  -4 1660.47 718.952   1
  -2  29  -4 2726.76 880.143   1
  29 -27  -1 2882.30 1006.19   4
  27 -29  -1 4257.24 1074.47   4
  -2  29  -1 3503.86 1454.37   3
   2  27  -1 4910.36 1494.90   3
   2  27  -1 5333.33 840.905   1
  -2  29  -1 5517.92 956.115   1
  29 -27   2-574.955 764.345   4
  27 -29   2 1745.69 825.167   4
  -2  29   2-387.230 1086.93   3
   2  27   2 1891.63 1215.66   3
   2  27   2 596.812 415.489   1
  -2  29   2 1495.84 630.598   1
  -2  29   5-142.943 1041.45   3
   2  27   5 191.521 1230.03   3
  29 -26  -5 1419.97 1267.64   4
  26 -29  -5 13.0119 1097.48   4
   3  26  -5 2286.18 1425.03   3
  29 -26  -5 120.785 1101.38   2
   3  26  -5 880.794 808.767   1
  26 -29  -5 752.472 1030.06   2
  -3  29  -5-390.413 737.603   1
  29 -26  -2 23680.6 2251.29   4
   3  26  -2 26025.8 1647.06   2
  26 -29  -2 22806.1 2159.75   4
  29 -26  -2 22970.2 2006.32   2
   3  26  -2 31129.5 2739.09   3
   3  26  -2 24719.3 1704.38   1
  -3  29  -2 25572.9 1787.41   1
  29 -26   1 1917.09 974.737   4
  26 -29   1 1293.51 772.203   4
   3  26   1 645.112 431.559   1
  -3  29   1 55.9405 494.892   1
  -3  29   1 2104.01 1153.22   3
   3  26   1 1650.33 1153.40   3
  26 -29   4 21098.8 1669.75   4
  -3  29   4 22479.1 2348.17   3
   3  26   4 19360.2 2307.95   3
  -3  29   4 17503.2 1477.19   1
  29 -25  -6 1675.98 1256.47   4
  25 -29  -6 1372.03 1217.82   4
   4  25  -6 1739.27 1278.69   3
   4  25  -6 2410.68 1027.49   1
  29 -25  -6 1226.91 1231.49   2
  -4  29  -6 3234.14 1004.19   1
  25 -29  -6 1767.58 1286.72   2
  29 -25  -3 10514.8 1732.40   4
  25 -29  -3 11946.5 1698.40   4
   4  25  -3 13548.5 1358.47   2
  29 -25  -3 13522.5 1776.47   2
   4  25  -3 18021.1 2187.80   3
   4  25  -3 13286.6 1362.67   1
  -4  29  -3 13303.1 1361.27   1
  29 -25   0 2429.22 908.066   4
   4  25   0 2274.09 565.886   1
  25 -29   0 1652.22 807.446   4
  -4  29   0 1864.90 662.142   1
  29 -25   0 1929.91 833.919   2
  -4  29   0 3828.56 1368.72   3
   4  25   0 2030.75 1109.49   3
  29 -25   3 7164.33 1654.52   3
  29 -25   3 12673.3 1471.85   4
  25 -29   3 10392.8 1200.62   4
  -4  29   3 9768.21 1135.09   1
  -4  29   3 11489.2 1887.68   3
   4  25   3 13145.7 1969.35   3
  29 -25   6 826.468 1470.49   3
  -4  29   6 1828.24 1176.34   3
   4  25   6 4183.40 1549.43   3
  29 -24  -4 1714.24 1177.22   4
  24 -29  -4 2631.13 1222.48   4
   5  24  -4 2320.12 909.447   2
  29 -24  -4 2168.83 1205.17   2
   5  24  -4 2676.94 1429.92   3
   5  24  -4 2033.92 792.042   1
  24 -29  -4 1542.60 976.772   2
  -5  29  -4 2761.36 839.520   1
  -5  29  -1 400.230 548.432   1
   5  24  -1 396.552 516.699   2
  29 -24  -1 725.837 816.691   4
  24 -29  -1 154.093 766.589   4
  29 -24  -1 123.929 795.830   2
   5  24  -1 608.877 970.384   3
   5  24  -1-240.460 471.305   1
  29 -24   2 3330.16 1318.98   3
  24 -29   2 6305.07 1026.50   4
  29 -24   2 3800.81 1001.37   4
  29 -24   2 5107.59 926.706   2
   5  24   2 5714.82 679.560   1
  -5  29   2 5104.79 889.446   1
  -5  29   2 6213.87 1409.64   3
   5  24   2 5390.18 1368.80   3
  29 -24   5 253.438 1396.52   3
  -5  29   5 612.642 1097.03   3
   5  24   5 203.985 1131.22   3
  -5  29   5 32.4156 697.810   1
  29 -23  -5 5127.86 1506.00   4
  23 -29  -5 4351.47 1363.44   4
   6  23  -5 6432.11 1219.07   1
   6  23  -5 6607.27 1270.33   2
  29 -23  -5 4498.41 1387.10   2
   6  23  -5 7352.47 1570.50   3
  23 -29  -5 3801.99 1127.68   2
  -6  29  -5 5371.17 1150.57   1
   6  23  -2 30639.8 1846.79   2
  29 -23  -2 31957.2 2437.17   4
  23 -29  -2 29937.4 2244.52   4
  29 -23  -2 31615.6 2362.16   2
   6  23  -2 31588.0 2590.15   3
   6  23  -2 36536.8 1967.76   1
  -6  29  -2 28575.6 1941.82   1
   6  23   1 5497.36 679.676   1
  29 -23   1 5466.10 1065.07   4
  -6  29   1 5424.26 881.465   1
  23 -29   1 3906.77 851.787   4
  29 -23   1 4675.55 957.601   2
  29 -23   4 16527.4 2210.39   3
  23 -29   4 19093.8 1472.94   4
  29 -23   4 21392.1 1502.15   2
  -6  29   4 20971.1 2267.89   3
   6  23   4 22353.6 2356.43   3
  29 -23   7 2409.37 1664.96   3
  -6  29   7 5182.18 1354.60   3
  -6  29   7 1111.04 920.749   1
   6  23   7 2729.56 1478.11   3
  29 -22  -6 6118.14 1699.46   4
   7  22  -6 8863.46 1418.20   1
  22 -29  -6 7175.12 1623.11   4
   7  22  -6 4959.48 1221.14   2
  29 -22  -6 8599.62 1898.44   2
   7  22  -6 10696.1 1694.61   3
  -7  29  -6 5669.25 1229.53   1
  22 -29  -6 6635.89 1450.45   2
  29 -22  -3 9845.62 1604.73   4
   7  22  -3 9760.97 1248.70   2
  22 -29  -3 9869.45 1522.13   4
  29 -22  -3 9093.36 1548.79   2
   7  22  -3 10227.6 1236.25   1
   7  22  -3 12038.1 1722.91   3
  -7  29  -3 10028.2 1231.23   1
  -7  29   0 16137.9 1397.75   1
  29 -22   0 10080.6 1420.37   4
  22 -29   0 12522.1 1343.26   4
  29 -22   0 14960.9 1587.00   2
   7  22   0 12779.0 1711.16   3
   7  22   0 12376.4 986.157   1
  22 -29   3 14763.6 1256.46   4
  29 -22   3 14755.3 1312.31   2
  -7  29   3 13427.5 1753.98   3
  -7  29   3 14080.9 1363.72   1
   7  22   3 13745.0 1885.26   3
  29 -22   6 10806.2 2250.84   3
  -7  29   6 12415.6 1518.83   1
  -7  29   6 15233.9 2008.68   3
   7  22   6 18053.8 2374.50   3
  29 -21  -7-16.4267 1287.61   4
  21 -29  -7 1686.46 1346.04   4
   8  21  -7 1072.06 985.569   1
   8  21  -7 686.926 1061.94   2
  29 -21  -7 598.144 1442.97   2
  -8  29  -7 446.886 782.000   1
  21 -29  -7 1164.15 1114.12   2
  29 -21  -4 4300.91 1419.29   4
  21 -29  -4 5600.88 1277.89   4
   8  21  -4 1808.10 910.677   2
   8  21  -4 4806.54 1028.11   1
  29 -21  -4 4515.56 1476.27   2
   8  21  -4 4747.92 1211.23   3
  21 -29  -4 2685.15 896.027   2
  -8  29  -4 3985.71 916.922   1
 -29   8  -1 56.6554 610.680   1
  -8  29  -1 419.455 501.379   1
   8  21  -1 1175.99 653.141   2
  29 -21  -1 3.71327 774.097   4
  21 -29  -1 683.035 759.256   4
  29 -21  -1 338.364 781.749   2
   8  21  -1 2282.90 1054.42   3
   8  21  -1 253.288 459.466   1
  29 -21   2 4196.99 1403.19   3
  29 -21   2 2698.03 830.734   4
  21 -29   2 3628.19 767.042   4
  29 -21   2 2885.05 822.331   2
   8  21   2 2602.22 1184.93   3
  -8  29   2 3030.26 735.203   1
  29 -21   5-1843.47 1262.82   3
  -8  29   5 119.021 993.771   3
   8  21   5 292.996 1091.25   3
  -8  29   5-365.263 683.363   1
  29 -20  -5 12473.2 1905.54   4
   9  20  -5 15298.2 1747.55   2
   9  20  -5 13976.3 1612.55   1
  20 -29  -5 7232.50 1499.16   4
  29 -20  -5 16168.7 2176.92   2
   9  20  -5 20651.4 1989.91   3
  -9  29  -5 16481.4 1656.17   1
  20 -29  -5 10582.0 1435.15   2
 -29   9  -2 15180.1 1344.31   1
   9  20  -2 16781.5 1475.63   2
  29 -20  -2 12895.8 1661.40   4
  20 -29  -2 16712.0 1686.68   4
  29 -20  -2 17011.0 1862.88   2
   9  20  -2 18276.8 1384.31   1
   9  20  -2 20005.6 1961.31   3
  -9  29  -2 15283.9 1431.69   1
 -29   9   1 15480.5 1606.89   1
   9  20   1 12199.6 804.046   1
  29 -20   1 13756.1 1998.28   3
  29 -20   1 14462.6 1477.83   4
  20 -29   1 13294.2 1252.68   4
  29 -20   1 15902.3 1521.73   2
  -9  29   1 14812.7 1356.34   1
   9  20   1 18396.0 1983.25   3
  29 -20   4 9750.70 1817.66   3
  20 -29   4 14650.4 1168.59   4
  -9  29   4 13781.6 1744.38   3
  -9  29   4 15175.8 1591.80   1
  29 -20   7 5289.26 1847.25   3
  -9  29   7 6113.57 1406.44   3
  -9  29   7 7202.22 1407.69   1
  29 -19  -6 24079.4 2800.23   4
  10  19  -6 27719.7 2339.62   1
  19 -29  -6 25504.0 2574.71   4
  10  19  -6 26091.7 2409.95   2
  29 -19  -6 23369.9 2606.64   2
  10  19  -6 29869.1 2309.74   3
 -10  29  -6 23766.1 2044.03   1
  19 -29  -6 21683.9 1971.81   2
  10  19  -3 8012.79 1233.83   2
  29 -19  -3 3948.76 1173.03   4
  19 -29  -3 4161.69 1069.29   4
  10  19  -3 6657.86 1000.30   1
  29 -19  -3 6531.22 1494.24   2
 -29  10  -3 5141.32 843.309   1
  10  19  -3 7962.45 1427.09   3
 -10  29  -3 5416.30 991.108   1
  29 -19   0 38289.1 2792.05   3
 -10  29   0 39402.7 2134.42   1
  29 -19   0 37113.7 2395.34   4
  19 -29   0 41343.2 2121.79   4
  29 -19   0 40796.4 2472.78   2
 -29  10   0 42857.3 2388.35   1
  10  19   0 42165.4 2815.76   3
  10  19   0 43371.8 1580.79   1
  29 -19   3 11796.9 1271.31   2
  19 -29   3 10781.9 1004.22   4
 -10  29   3 10875.9 1285.82   1
  10  19   3 13444.8 1839.39   3
  29 -19   6 12191.9 2288.55   3
 -10  29   6 15290.2 1745.10   1
 -10  29   6 13595.1 1775.80   3
  29 -18  -7 357.633 1381.96   4
  11  18  -7 1612.29 1078.21   1
  18 -29  -7 1599.01 1346.74   4
  11  18  -7 788.763 1055.31   2
  29 -18  -7 1374.56 1355.42   2
 -11  29  -7 2229.80 1095.14   1
  18 -29  -7 1109.42 948.113   2
  18 -29  -4 127.335 629.643   2
  29 -18  -4 1082.33 1084.43   4
  11  18  -4 1791.72 884.279   2
  18 -29  -4 1890.88 1086.21   4
  29 -18  -4 1560.47 1204.75   2
  11  18  -4 813.812 675.753   1
  11  18  -4 2021.43 1039.67   3
 -29  11  -4 2485.56 678.342   1
 -11  29  -4 1971.34 742.748   1
 -11  29  -1 8764.33 1091.55   1
  29 -18  -1 5379.28 1301.11   3
  11  18  -1 8007.20 1002.59   2
  29 -18  -1 8907.72 1252.64   4
  29 -18  -1 9495.92 1481.24   2
  18 -29  -1 6666.52 1061.84   4
  11  18  -1 8445.07 896.319   1
  11  18  -1 7183.66 1357.95   3
 -29  11  -1 7885.62 1081.40   1
  29 -18   2 3722.37 1403.42   3
 -29  11   2 2575.55 879.259   1
  18 -29   2 3548.94 704.115   4
  29 -18   2 2497.30 814.644   2
  11  18   2 550.701 917.217   3
 -11  29   2 1907.00 726.089   1
  29 -18   5 1469.59 1209.95   3
 -11  29   5 109.260 876.695   3
  18 -29   5-16.1602 445.069   4
 -11  29   5 554.262 733.284   1
  11  18   5 148.728 1169.12   3
  17 -29  -5 5058.40 1021.89   2
  12  17  -5 7789.22 1306.84   1
  29 -17  -5 7974.13 1714.46   4
  12  17  -5 9106.74 1525.44   2
  17 -29  -5 7569.48 1444.94   4
  29 -17  -5 6613.00 1697.19   2
  12  17  -5 10533.5 1466.45   3
 -12  29  -5 9176.71 1325.29   1
 -29  12  -5 7739.65 911.015   1
  29 -17  -2 7332.69 1386.10   3
  12  17  -2 8924.65 1148.73   2
  29 -17  -2 9144.43 1343.53   4
  29 -17  -2 12736.2 1693.89   2
  17 -29  -2 8902.64 1239.12   4
 -29  12  -2 9340.30 1153.86   1
  12  17  -2 9663.03 1094.24   1
  12  17  -2 8634.75 1448.57   3
 -12  29  -2 8402.23 1136.54   1
  29 -17   1 7732.57 1551.83   3
  29 -17   1 7049.84 1116.41   4
  29 -17   1 9932.30 1266.23   2
  17 -29   1 8340.79 942.084   4
 -29  12   1 9593.56 1341.48   1
 -12  29   1 8993.36 1090.40   1
  12  17   1 10319.4 1587.60   3
  12  17   1 6808.80 525.265   1
  29 -17   4 5129.40 1623.13   3
  17 -29   4 4673.11 644.473   4
  12  17   4 6169.72 1580.43   3
 -12  29   4 6170.19 1188.37   1
  29 -17   7 5571.04 1774.04   3
 -12  29   7 7249.41 1420.55   1
 -12  29   7 7557.64 1428.87   3
  12  17   7 9338.43 2052.60   3
  13  16  -6 49159.8 3175.23   1
  29 -16  -6 40633.8 3399.38   4
  13  16  -6 45670.0 3237.02   2
  16 -29  -6 51326.9 3271.31   4
  29 -16  -6 45147.9 3541.02   2
 -13  29  -6 47764.6 2765.86   1
  16 -29  -6 36204.4 2243.04   2
 -29  13  -3 4697.88 853.358   1
  16 -29  -3 2890.08 551.809   2
  29 -16  -3 4219.88 1142.89   4
  13  16  -3 2619.34 865.940   2
  16 -29  -3 4102.24 1004.03   4
  29 -16  -3 3713.65 1136.79   2
  13  16  -3 4003.54 879.729   1
  13  16  -3 5385.87 1233.60   3
 -13  29  -3 5201.06 999.181   1
  29 -16   0 28613.4 2485.31   3
 -13  29   0 29599.7 1921.34   1
  13  16   0 29964.5 1225.02   4
  29 -16   0 29142.8 1994.86   4
  29 -16   0 31549.1 2125.65   2
  16 -29   0 29264.7 1699.01   4
  13  16   0 27618.3 1189.71   1
  13  16   0 37120.1 2667.06   3
 -29  13   0 34828.9 2235.42   1
 -13  29   3 323.175 640.579   1
  29 -16   3 307.051 1252.88   3
  16 -29   3 164.892 423.100   4
  13  16   3 644.174 1254.80   3
 -29  13   3 934.804 822.454   1
  29 -16   6 29641.6 3083.03   3
 -13  29   6 31050.3 2487.76   1
 -13  29   6 30921.9 2431.14   3
  13  16   6 34969.2 3184.18   3
  15 -29  -7 7093.30 1305.45   2
  29 -15  -7 6152.18 1690.32   4
  14  15  -7 8002.15 1576.73   1
  15 -29  -7 5734.50 1497.36   4
  14  15  -7 9028.67 1809.89   2
  29 -15  -7 4815.81 1798.25   2
 -14  29  -7 8120.20 1313.53   1
 -14  29  -4-357.564 630.110   1
  15 -29  -4 711.028 553.043   2
 -29  14  -4-49.3778 497.626   1
  29 -15  -4 739.371 946.656   4
  14  15  -4-500.011 874.084   2
  14  15  -4 714.777 674.584   1
  15 -29  -4 1432.27 770.925   4
  29 -15  -4 519.841 1085.56   2
  14  15  -4-36.3677 829.944   3
  29 -15  -1 7570.76 1485.60   3
 -14  29  -1 5332.67 946.340   1
  14  15  -1 6233.42 1075.63   2
  14  15  -1 4938.94 626.190   4
  29 -15  -1 4523.57 1038.58   4
 -29  14  -1 5570.63 979.272   1
  29 -15  -1 5795.09 1167.23   2
  15 -29  -1 4737.56 830.876   4
  14  15  -1 5312.80 715.008   1
  14  15  -1 6763.95 1234.79   3
  29 -15   2 558.865 991.681   3
  29 -15   2 1043.39 695.283   2
  15 -29   2 909.514 494.642   4
  14  15   2 1697.12 1200.35   3
 -14  29   2 445.100 570.927   1
 -29  14   2 665.352 800.584   1
  29 -15   5 2605.83 1366.81   3
 -14  29   5 2555.83 933.919   3
  14  15   5 3519.25 1295.55   3
 -14  29   5 3863.10 1106.71   1
 -15  29  -5 4481.79 959.057   1
  14 -29  -5 2316.69 735.000   2
  29 -14  -5 4142.07 1470.86   4
  15  14  -5 3337.89 1007.39   1
  15  14  -5 4793.81 1377.65   2
  14 -29  -5 6007.94 1247.23   4
  29 -14  -5 5229.00 1511.09   2
  15  14  -5 5346.52 1209.04   3
 -29  15  -5 4214.42 765.688   1
  29 -14  -2 1620.08 937.222   3
 -15  29  -2 1364.91 711.828   1
  29 -14  -2-274.354 845.579   4
  15  14  -2 761.145 625.259   2
  15  14  -2 1122.34 499.993   4
  29 -14  -2 1025.27 832.566   2
  14 -29  -2 588.189 622.631   4
  15  14  -2 121.938 472.967   1
 -29  15  -2 1005.65 654.056   1
  15  14  -2-410.235 836.726   3
  29 -14   1 3627.44 1317.59   3
  29 -14   1 3931.33 873.457   4
  29 -14   1 3198.60 932.459   2
  14 -29   1 3847.08 613.236   4
 -15  29   1 2926.86 829.448   1
 -29  15   1 6286.98 1160.49   1
  15  14   1 6938.26 1426.13   3
  29 -14   4 2608.48 1407.45   3
 -15  29   4 973.058 804.614   1
  15  14   4 1589.24 1360.97   3
 -29  15   4 1150.62 900.800   1
  29 -14   7 2321.92 1458.57   3
 -15  29   7 5901.23 1505.44   1
 -15  29   7 6382.13 1341.26   3
  15  14   7 5858.74 1716.01   3
  13 -29  -6 31208.6 2082.21   2
  16  13  -6 37863.3 2897.90   1
  29 -13  -6 31565.8 3070.67   4
  16  13  -6 34989.3 2978.43   2
  29 -13  -6 33037.2 3128.27   2
 -29  16  -6 37399.8 1903.84   1
  13 -29  -6 33418.9 2605.50   4
 -16  29  -6 37732.9 2458.97   1
  29 -13  -3 381.273 821.469   3
 -16  29  -3-110.025 567.971   1
 -29  16  -3 383.431 525.795   1
  29 -13  -3 883.168 973.685   4
  16  13  -3 49.2978 534.822   4
  16  13  -3 864.851 701.450   2
  16  13  -3 922.113 667.856   1
  29 -13  -3 731.122 999.610   2
  13 -29  -3 257.629 701.575   4
  16  13  -3 2269.47 1129.38   3
  29 -13   0 25467.8 2294.84   3
  16  13   0 29001.1 1362.11   4
  29 -13   0 28375.9 1964.78   4
  29 -13   0 32764.3 2211.53   2
 -16  29   0 31105.3 2000.03   1
 -29  16   0 31384.7 2085.40   1
  13 -29   0 27347.3 1320.51   4
  16  13   0 28955.1 1145.00   1
  16  13   0 34607.5 2539.61   3
  29 -13   3 3562.17 1345.48   3
 -16  29   3 5144.40 1039.08   1
  16  13   3 5516.05 1497.30   3
 -29  16   3 4185.88 1123.58   1
 -16  29   6 42489.6 3070.70   1
 -16  29   6 37217.7 2493.54   3
  16  13   6 45322.1 3604.75   3
  29 -13   6 35427.2 3222.83   3
  12 -29  -7 4468.39 1119.74   2
 -29  17  -7 5987.63 894.555   1
  29 -12  -7 8107.15 1996.79   4
  17  12  -7 3834.13 1528.82   2
  12 -29  -7 6366.51 1457.98   4
  29 -12  -7 9535.92 2066.35   2
 -17  29  -7 8720.57 1446.15   1
 -17  29  -4 4995.07 934.384   1
  29 -12  -4 5243.07 1369.59   4
  17  12  -4 7522.73 1088.71   4
  17  12  -4 5112.31 1119.19   1
  17  12  -4 8695.40 1465.34   2
  29 -12  -4 4568.56 1560.83   2
  12 -29  -4 5366.39 1063.47   4
 -29  17  -4 6313.63 920.197   1
  17  12  -4 9970.66 1420.12   3
  29 -12  -1 10384.1 1655.92   3
 -29  17  -1 10846.9 1257.37   1
 -17  29  -1 11242.3 1294.24   1
  17  12  -1 12009.4 1338.33   2
  29 -12  -1 11412.6 1327.77   4
  17  12  -1 9089.38 908.005   4
  29 -12  -1 11131.8 1428.24   2
  17  12  -1 10954.3 953.558   1
  12 -29  -1 7776.51 836.005   4
  17  12  -1 12736.8 1716.94   3
 -17  29   2 12810.1 1431.10   1
 -29  17   2 10177.5 1479.41   1
  17  12   2 11001.3 1746.34   3
  29 -12   2 10290.5 1818.65   3
  29 -12   5 9517.87 1746.30   3
 -29  17   5 9358.04 1670.14   1
  17  12   5 9116.46 1786.04   3
 -17  29   5 7212.00 1362.85   1
 -18  29  -5 382.039 747.288   1
  11 -29  -5-88.4273 587.716   2
  29 -11  -5 727.093 1029.41   4
  18  11  -5-65.1752 714.718   4
  18  11  -5 1481.42 1212.59   2
  29 -11  -5 2235.30 1518.73   2
  11 -29  -5-363.379 811.324   4
 -29  18  -5 384.709 534.419   1
  29 -11  -2 1222.40 1004.88   3
  29 -11  -2 4455.63 1060.74   4
 -29  18  -2 3203.91 756.667   1
  18  11  -2 2561.27 666.960   4
  18  11  -2 2968.46 934.459   2
  29 -11  -2 912.797 884.882   2
 -18  29  -2 3737.65 870.362   1
  18  11  -2 1823.45 725.255   1
  11 -29  -2 2936.84 698.775   4
  18  11  -2 4196.15 1088.18   3
  29 -11   1 5806.86 1330.86   3
  29 -11   1 7326.84 1119.94   2
 -29  18   1 9206.27 1365.09   1
 -18  29   1 6895.54 1110.62   1
  29 -11   4 607.459 1171.59   3
 -29  18   4 2822.18 1080.99   1
 -18  29   4 2413.12 927.727   1
  18  11   4 680.749 1143.78   3
  29 -11   7 1896.11 1563.51   3
 -18  29   7 2515.17 1156.84   1
 -18  29   7 857.972 923.168   3
  18  11   7 2341.23 1439.39   3
  10 -29  -6 15333.3 1478.65   2
  29 -10  -6 15443.4 2333.95   4
 -29  19  -6 16052.9 1440.14   1
  19  10  -6 16807.6 1805.23   4
  19  10  -6 19984.1 2480.98   2
  29 -10  -6 16584.4 2425.17   2
  10 -29  -6 16907.6 1818.08   4
 -19  29  -6 20827.4 1868.72   1
 -19  29  -3 9139.18 1224.98   1
  29 -10  -3 8910.54 1423.45   3
  19  10  -3 13495.0 1484.37   1
  29 -10  -3 8184.37 1449.99   4
  19  10  -3 11214.8 1538.30   2
  19  10  -3 11286.5 1207.08   4
  29 -10  -3 12402.7 1692.25   2
  10 -29  -3 8518.42 1068.80   4
 -29  19  -3 10153.5 1166.05   1
  19  10  -3 12470.9 1625.34   3
 -29  19   0 43104.9 2493.95   1
  19  10   0 40924.3 1760.35   4
  29 -10   0 39234.4 2225.65   4
  29 -10   0 46009.9 2530.96   2
 -19  29   0 43579.6 2353.40   1
  19  10   0 47047.8 3025.42   3
  29 -10   0 41874.4 2956.11   3
  29 -10   3 6063.33 1504.32   3
 -19  29   3 5537.55 1088.30   1
  19  10   3 3889.04 1522.83   3
 -29  19   3 6631.39 1387.79   1
 -29  19   6 22630.4 2494.72   1
 -19  29   6 22070.4 2404.92   1
  19  10   6 26156.5 2781.82   3
  29 -10   6 17035.1 2355.37   3
   9 -29  -7 5632.04 1175.96   2
 -29  20  -7 6865.74 1089.21   1
  29  -9  -7 4042.99 1697.04   4
  20   9  -7 6414.09 1404.63   4
  20   9  -7 3454.10 1659.21   2
  29  -9  -7 7318.83 2020.21   2
   9 -29  -7 8011.62 1454.53   4
 -20  29  -7 8117.98 1293.26   1
  29  -9  -4 12399.0 1489.76   3
  29  -9  -4 14388.3 1866.02   4
  20   9  -4 17968.5 2048.52   2
  20   9  -4 14956.3 1580.86   4
  29  -9  -4 18391.6 2270.98   2
   9 -29  -4 14873.5 1413.28   4
 -29  20  -4 16520.2 1491.57   1
  20   9  -4 17158.1 1743.72   3
 -20  29  -4 17791.5 1619.48   1
  29  -9  -1 7192.39 1453.97   3
  20   9  -1 11222.6 1043.92   4
  20   9  -1 9751.58 1312.06   2
  29  -9  -1 10165.1 1292.28   4
  29  -9  -1 8981.29 1396.68   2
  20   9  -1 12576.7 1093.14   1
 -20  29  -1 12708.5 1367.19   1
  20   9  -1 14419.3 1811.46   3
 -29  20  -1 13955.1 1457.39   1
 -29  20   2 18021.1 1815.63   1
 -20  29   2 18283.2 1723.98   1
  20   9   2 17242.0 2076.68   3
  29  -9   2 14970.6 1949.71   3
 -20  29   5 16614.7 1941.72   1
 -29  20   5 18270.3 2146.45   1
  20   9   5 16755.2 2316.55   3
  29  -9   5 13055.8 2189.73   3
 -21  29  -5 655.385 734.095   1
  29  -8  -5 94.1339 964.774   4
  21   8  -5 2314.56 1017.89   4
  29  -8  -5 580.221 1214.63   2
   8 -29  -5 996.808 770.286   4
 -29  21  -5-324.971 543.500   1
 -29  21  -2 2997.14 868.032   1
  29  -8  -2 2500.41 1136.81   3
  21   8  -2 4310.15 880.369   4
  29  -8  -2 4330.08 1098.66   4
  21   8  -2 5294.30 1183.13   2
  29  -8  -2 4119.49 1183.20   2
 -21  29  -2 3669.60 927.092   1
  21   8  -2 5404.08 1322.17   3
  29  -8   1-277.204 1132.16   3
  29  -8   1 912.271 750.783   2
 -29  21   1 1399.68 767.336   1
  21   8   1 412.403 970.899   3
 -21  29   1 495.255 656.851   1
  29  -8   4 4663.55 1650.87   3
 -29  21   4 3244.07 1123.42   1
 -21  29   4 2976.53 1011.15   1
  21   8   4 4182.65 1459.58   3
  29  -8   7 2364.37 1432.96   3
 -21  29   7 3279.03 1382.79   1
 -29  21   7 1312.69 1136.34   1
 -21  29   7 1614.83 928.998   3
  21   8   7 4057.42 1688.68   3
 -29  22  -6 15017.8 1457.76   1
  29  -7  -6 14480.0 2148.48   4
  22   7  -6 14555.8 1832.78   4
  22   7  -6 14614.2 2231.79   2
  29  -7  -6 15615.2 2526.80   2
   7 -29  -6 13341.6 1555.64   4
 -22  29  -6 12822.8 1477.69   1
  29  -7  -3 12484.2 1640.16   3
 -22  29  -3 14920.1 1498.80   1
  29  -7  -3 9999.98 1551.35   4
  22   7  -3 13022.5 1416.74   4
  29  -7  -3 11965.1 1766.84   2
  22   7  -3 15696.3 1871.74   2
 -29  22  -3 17533.0 1514.63   1
  22   7  -3 14658.7 1786.12   3
  22   7   0 11721.0 1095.77   4
  29  -7   0 11951.0 1393.93   4
  29  -7   0 12887.9 1427.68   2
 -22  29   0 13297.2 1406.77   1
  22   7   0 16277.7 1980.95   3
 -29  22   0 12621.1 1411.36   1
  29  -7   0 11740.7 1838.37   3
 -29  22   3 9698.71 1506.33   1
  22   7   3 11298.5 1852.96   3
 -22  29   3 8224.45 1357.11   1
  29  -7   3 10942.1 1847.43   3
  29  -7   6 2330.52 1501.06   3
 -29  22   6 4431.64 1454.75   1
 -22  29   6 9300.36 1688.08   1
  22   7   6 8178.55 1942.15   3
  29  -6  -7 3718.85 1542.76   4
  23   6  -7 3262.31 1300.36   4
 -29  23  -7 5516.86 1048.02   1
  23   6  -7 6858.83 1957.92   2
  29  -6  -7 3000.95 1840.31   2
 -23  29  -7 7520.69 1333.20   1
 -23  29  -4 23370.1 1887.06   1
  29  -6  -4 14511.9 1922.13   4
  23   6  -4 19281.4 1817.43   4
  23   6  -4 17321.9 2171.22   2
  29  -6  -4 22498.2 2435.57   2
 -29  23  -4 18605.4 1631.93   1
  23   6  -4 18210.6 1807.04   3
  29  -6  -1 6893.84 1414.79   3
  23   6  -1 4102.21 803.715   4
  29  -6  -1 5059.58 999.779   4
  23   6  -1 5475.42 1064.41   2
  29  -6  -1 5292.97 1175.82   2
 -23  29  -1 7058.46 1118.93   1
 -29  23  -1 6047.39 1115.31   1
  23   6  -1 8326.12 1483.61   3
 -29  23   2 28433.0 2275.59   1
 -23  29   2 26584.6 2171.21   1
  23   6   2 25684.1 2482.26   3
  29  -6   2 25255.7 2543.99   3
 -23  29   5 5843.25 1367.94   1
 -29  23   5 6787.64 1475.75   1
  23   6   5 5455.03 1831.28   3
  29  -6   5 3663.39 1554.16   3
 -24  29  -5 344.022 663.402   1
  29  -5  -5-1414.33 1120.51   4
  24   5  -5 1354.75 920.532   4
  24   5  -5-332.018 1171.05   2
  29  -5  -5 732.701 1320.94   2
 -29  24  -5-211.569 617.977   1
  29  -5  -2 7707.56 1539.92   3
  24   5  -2 6490.84 1303.44   2
  24   5  -2 5322.84 969.310   4
  29  -5  -2 4309.73 1007.48   4
 -24  29  -2 6594.77 1102.48   1
  29  -5  -2 6557.65 1343.16   2
 -29  24  -2 6127.19 1036.82   1
  24   5  -2 6845.72 1409.66   3
 -24  29   1 1897.33 797.443   1
 -29  24   1 269.820 681.453   1
  24   5   1 1360.56 1081.44   3
  29  -5   1 826.162 1204.03   3
 -29  24   4 1689.31 975.883   1
 -24  29   4 3113.32 1175.83   1
  24   5   4 1174.01 1254.26   3
  29  -5   4-633.238 1358.01   3
 -25  29  -6 1180.04 809.941   1
  29  -4  -6 3138.39 1466.75   4
  25   4  -6 2610.85 1234.00   4
  25   4  -6 1789.70 1627.51   2
  29  -4  -6 3513.49 1653.11   2
 -29  25  -6 2526.10 862.737   1
  29  -4  -3 8578.75 1515.67   3
 -25  29  -3 8730.05 1317.82   1
  29  -4  -3 10732.1 1513.74   4
  25   4  -3 6891.39 1210.20   4
  29  -4  -3 12737.6 1837.05   2
  25   4  -3 8503.40 1549.95   2
 -29  25  -3 9402.90 1258.09   1
  25   4  -3 9344.88 1615.60   3
  25   4   0 2360.70 685.057   4
  29  -4   0 3279.36 837.717   4
  25   4   0 1596.93 786.911   2
  29  -4   0 1706.63 889.328   2
 -29  25   0 1231.39 683.574   1
 -25  29   0 1636.41 802.467   1
  25   4   0 943.328 1003.28   3
  29  -4   0 2856.49 1314.92   3
 -25  29   3 11998.3 1611.86   1
 -29  25   3 13167.8 1808.33   1
  25   4   3 12624.3 1979.40   3
  29  -4   3 11496.7 1962.99   3
 -29  25   6 830.864 1151.71   1
 -25  29   6 3675.92 1346.24   1
  25   4   6 3337.56 1575.87   3
  29  -4   6 2066.03 1584.14   3
 -26  29  -4 20433.1 1859.54   1
  29  -3  -4 18112.4 2096.41   4
  26   3  -4 16102.4 1809.98   4
  26   3  -4 17836.2 2297.29   2
  29  -3  -4 19268.7 2341.97   2
 -29  26  -4 18175.4 1671.71   1
 -29  26  -1 3247.79 915.929   1
  29  -3  -1 2106.63 753.326   4
  26   3  -1 2094.33 688.300   4
  26   3  -1 1288.40 822.666   2
  29  -3  -1 1162.10 807.754   2
 -26  29  -1 653.203 597.938   1
  26   3  -1 3678.50 1368.67   3
  29  -3  -1 3033.10 1356.46   3
 -29  26   2 20834.3 2018.38   1
  26   3   2 22898.0 2510.93   3
 -26  29   2 23602.0 2078.86   1
  29  -3   2 19721.1 2369.19   3
 -29  26   5 1718.99 1120.20   1
 -26  29   5 234.878 896.789   1
  26   3   5 3230.14 1554.72   3
  29  -3   5 2752.47 1426.88   3
  29  -2  -5 1652.57 1172.75   4
  27   2  -5 1849.22 1139.81   4
  27   2  -5 299.185 1232.53   2
 -27  29  -5 1235.16 837.564   1
  29  -2  -5-675.281 1306.07   2
 -29  27  -5 1085.87 768.914   1
  29  -2  -2 1774.82 1172.69   3
  29  -2  -2 2.37289 654.416   4
  27   2  -2 330.177 705.124   4
  27   2  -2 1477.85 1010.84   2
  29  -2  -2-1133.35 1013.36   2
 -27  29  -2 1341.92 714.738   1
 -29  27  -2 351.090 652.689   1
  27   2  -2 1278.84 1170.02   3
  29  -2   1 5096.53 994.761   4
 -27  29   1 4068.18 1043.20   1
 -29  27   1 5348.02 1180.67   1
  27   2   1 3679.39 1271.47   3
  29  -2   1 6505.25 1604.36   3
 -27  29   4 1304.59 1034.79   1
 -29  27   4 1896.24 1043.87   1
  27   2   4 569.126 1177.55   3
  29  -1  -3 4310.52 1146.54   4
  28   1  -3 3452.56 1004.33   4
  28   1  -3 2474.85 1148.54   2
  29  -1  -3 3951.34 1381.82   2
 -28  29  -3 4217.19 1019.78   1
 -29  28  -3 4027.24 1029.73   1
  28   1  -3 4569.36 1466.88   3
 -28  29   0 1525.36 866.403   1
 -29  28   0 594.905 694.670   1
  28   1   0 836.267 617.516   4
  29  -1   0 962.375 624.913   4
  28   1   0 1185.32 797.556   2
  29  -1   0 1420.31 838.564   2
  28   1   0 2149.92 1291.76   3
  29  -1   0 3478.97 1357.84   3
 -29  28   3 8172.25 1552.60   1
 -28  29   3 6169.29 1364.75   1
  28   1   3 5863.36 1678.21   3
  29  -1   3 10418.6 2117.42   3
  29   0  -4 20718.9 2183.58   4
 -29  29  -4 25346.6 2051.14   1
  29   0  -4 21094.4 2476.58   2
  29   0  -1 201.790 646.572   4
  29   0  -1 527.500 822.904   2
 -29  29  -1 85.6982 794.040   1
  29   0  -1 397.322 1139.23   3
 -29  29   2 13291.0 1725.22   1
  29   0   2 10393.7 2048.70   3
 -29  29   5-295.364 999.740   1
  29   0   5 1230.63 1396.04   3
  30 -30  -3-12.7426 1177.80   4
   0  30  -3-924.991 1403.70   3
   0  30  -3 25.1433 606.537   1
   0  30   0 5699.96 899.162   1
  30 -30   0 5393.69 1226.26   4
   0  30   0 6783.08 1794.78   3
  30 -30   3-960.974 760.608   4
   0  30   3-681.819 1208.39   3
  30 -29  -4 3185.06 1383.60   4
  29 -30  -4 1987.46 1165.07   4
  -1  30  -4 4838.60 1720.78   3
   1  29  -4 5960.84 1801.87   3
   1  29  -4 2586.14 893.074   1
  -1  30  -4 3310.66 969.793   1
  30 -29  -1 6934.04 1470.05   4
  29 -30  -1 8626.56 1437.09   4
  -1  30  -1 8770.37 1922.12   3
   1  29  -1 9414.94 1810.01   3
   1  29  -1 7756.72 1026.91   1
  -1  30  -1 7334.18 1048.47   1
  30 -29   2-10.9163 724.555   4
  29 -30   2-320.117 745.181   4
  -1  30   2 137.215 1246.66   3
   1  29   2-62.7351 1104.03   3
   1  29   2-44.5078 461.440   1
  -1  30   2 684.616 568.965   1
  30 -28  -5 9186.63 1866.02   4
  28 -30  -5 8839.86 1915.92   4
   2  28  -5 11033.7 2224.45   3
   2  28  -5 8457.21 1348.21   1
  -2  30  -5 8806.30 1363.40   1
  30 -28  -5 5676.60 1637.76   2
   2  28  -2 2699.87 788.888   1
  -2  30  -2 4090.77 895.490   1
  30 -28  -2 158.715 1030.01   4
  28 -30  -2 2286.54 1172.16   4
  -2  30  -2 3170.26 1271.67   3
   2  28  -2 2691.52 1448.16   3
   2  28   1 8513.63 993.289   1
  30 -28   1 9359.59 1400.53   4
  28 -30   1 9362.12 1357.49   4
  -2  30   1 9426.19 1114.24   1
  -2  30   1 13553.6 2039.53   3
   2  28   1 8561.41 1749.21   3
  30 -28   4 5945.93 1295.31   4
  28 -30   4 8039.02 1250.26   4
  -2  30   4 8310.81 1686.59   3
   2  28   4 7965.72 1674.61   3
  30 -27  -3 1449.73 1270.71   4
  27 -30  -3 1290.37 1031.61   4
  30 -27  -3 978.537 1011.74   2
   3  27  -3 2796.84 1417.35   3
   3  27  -3 768.547 664.169   1
  -3  30  -3 3727.43 973.499   1
   3  27   0 5829.97 840.829   1
  -3  30   0 7006.27 1006.04   1
   3  27   0 7972.43 961.671   2
  30 -27   0 5962.96 1302.46   4
  27 -30   0 4993.21 1088.52   4
  -3  30   0 8997.92 1766.17   3
   3  27   0 8623.77 1608.30   3
  -3  30   3 538.120 596.349   1
  30 -27   3-950.531 803.810   4
  27 -30   3-706.029 685.899   4
  -3  30   3 625.041 1022.42   3
   3  27   3 162.003 1188.82   3
  30 -26  -4 77.0865 960.230   4
  26 -30  -4 1958.56 1162.74   4
  30 -26  -4 2372.42 1243.54   2
   4  26  -4 1426.67 1406.74   3
   4  26  -4 2679.64 870.196   1
  -4  30  -4 3670.45 1016.24   1
   4  26  -1 5657.27 906.140   2
  30 -26  -1 7026.83 1372.21   4
  26 -30  -1 7576.60 1321.53   4
  30 -26  -1 5094.86 1190.20   2
   4  26  -1 8649.82 1603.78   3
   4  26  -1 7013.90 910.132   1
  -4  30  -1 5857.42 957.786   1
  30 -26   2-22.2082 725.922   4
  26 -30   2 1835.78 789.756   4
  -4  30   2 276.760 1078.43   3
   4  26   2 784.345 1015.98   3
  -4  30   2 397.511 484.055   1
  30 -26   5 2267.89 1612.76   3
  26 -30   5 1720.47 790.976   4
  -4  30   5 3380.69 1380.99   3
   4  26   5 4419.83 1621.95   3
  -4  30   5 2418.05 831.412   1
  30 -25  -5 17336.1 2369.16   4
  25 -30  -5 16436.5 2178.33   4
   5  25  -5 20651.8 1914.11   1
  30 -25  -5 13841.4 2127.64   2
  -5  30  -5 18237.7 1803.54   1
  -5  30  -2 4753.61 965.922   1
  30 -25  -2 3605.41 1140.93   4
  25 -30  -2 6356.94 1284.01   4
   5  25  -2 4655.94 943.522   2
  30 -25  -2 4452.75 1210.00   2
   5  25  -2 6557.03 1612.89   3
   5  25  -2 6510.68 983.618   1
   5  25   1 8649.73 838.443   1
  30 -25   1 8818.00 1319.19   4
  25 -30   1 8330.76 1232.54   4
  -5  30   1 10681.8 1192.50   1
  30 -25   1 9209.23 1223.39   2
  -5  30   1 11730.4 1867.22   3
   5  25   1 10995.0 1821.53   3
  30 -25   4 827.123 1231.71   3
  25 -30   4 3283.39 868.434   4
  -5  30   4 2227.98 774.171   1
  -5  30   4 2999.45 1343.59   3
   5  25   4 3174.52 1414.86   3
  30 -24  -6 3734.84 1591.55   4
  24 -30  -6 2864.41 1314.59   4
   6  24  -6 6464.71 1318.62   1
  30 -24  -6 2756.31 1648.24   2
   6  24  -6 5352.53 1551.83   3
  -6  30  -6 5932.88 1285.15   1
  -6  30  -3 4598.01 1009.62   1
  30 -24  -3 1962.47 1094.68   4
  24 -30  -3 3197.52 1182.16   4
   6  24  -3 2218.61 868.379   2
  30 -24  -3 3418.87 1144.85   2
   6  24  -3 3230.89 1292.83   3
   6  24  -3 3863.05 849.947   1
  -6  30   0 15397.7 1401.34   1
  30 -24   0 11906.4 1598.83   4
  24 -30   0 12819.6 1437.29   4
  30 -24   0 13887.6 1575.50   2
   6  24   0 17044.1 2049.92   3
   6  24   0 14911.2 1102.13   1
  30 -24   3 4071.80 1535.06   3
  30 -24   3 7107.51 1253.85   4
  24 -30   3 6286.19 996.697   4
  30 -24   3 3852.03 839.988   2
  -6  30   3 6195.96 987.684   1
  -6  30   3 7117.49 1470.58   3
   6  24   3 5828.13 1408.70   3
  30 -24   6 8154.59 1912.78   3
  -6  30   6 9500.14 1332.19   1
  -6  30   6 10232.1 1738.14   3
  30 -23  -4 1830.30 1128.11   4
  23 -30  -4 895.164 1040.39   4
   7  23  -4 820.418 837.138   2
  30 -23  -4 1431.53 1122.71   2
   7  23  -4 992.187 741.798   1
   7  23  -4 1471.96 1126.12   3
  -7  30  -4-621.025 714.838   1
   7  23  -1 3267.21 817.143   2
  -7  30  -1 3084.62 800.101   1
  30 -23  -1 858.312 855.793   4
  23 -30  -1 4384.44 1064.66   4
  30 -23  -1 2023.78 953.644   2
   7  23  -1 4757.78 1234.70   3
   7  23  -1 3680.47 711.053   1
  30 -23   2-1161.44 1216.22   3
  30 -23   2 2512.29 859.414   4
  23 -30   2 3106.53 794.696   4
  30 -23   2 960.281 692.986   2
  -7  30   2 905.331 1225.98   3
   7  23   2 1785.09 1048.83   3
  -7  30   2 2043.38 714.187   1
  30 -23   5 865.161 1231.92   3
  23 -30   5 615.224 627.985   4
  -7  30   5 911.428 1036.82   3
   7  23   5 1558.73 1408.56   3
  -7  30   5 1370.75 822.240   1
  30 -22  -5 12958.8 2140.59   4
  22 -30  -5 10585.6 1786.50   4
   8  22  -5 12370.2 1692.09   2
   8  22  -5 9676.20 1382.21   1
  30 -22  -5 12843.0 2076.63   2
   8  22  -5 15532.3 1986.47   3
  -8  30  -5 14331.2 1613.87   1
 -30   8  -2 8623.54 1046.49   1
   8  22  -2 7974.38 1127.95   2
  30 -22  -2 9584.03 1523.28   4
  22 -30  -2 8516.58 1410.37   4
  30 -22  -2 9338.41 1515.32   2
   8  22  -2 8813.01 1003.36   1
   8  22  -2 10561.8 1682.40   3
  -8  30  -2 8103.99 1121.76   1
   8  22   1 15625.3 987.478   1
  30 -22   1 12376.0 1904.83   3
  30 -22   1 16306.5 1672.25   4
  22 -30   1 15546.0 1438.13   4
  -8  30   1 23138.9 1674.26   1
  30 -22   1 17670.9 1669.04   2
   8  22   1 22624.6 2270.89   3
  30 -22   4 1417.40 1293.91   3
  30 -22   4 5670.98 971.635   2
  -8  30   4 3629.61 942.615   1
  -8  30   4 3088.21 1276.48   3
  22 -30   4 3441.23 761.594   4
   8  22   4 3052.69 1146.82   3
  30 -21  -6 4623.09 1657.51   4
   9  21  -6 8458.05 1499.12   1
   9  21  -6 10196.5 1646.03   2
  21 -30  -6 7306.19 1649.09   4
  30 -21  -6 5339.06 1593.49   2
   9  21  -6 10749.7 1690.57   3
  -9  30  -6 7476.83 1343.84   1
  21 -30  -6 3209.07 1128.52   2
  30 -21  -3 15343.6 1894.24   4
   9  21  -3 19876.5 1795.31   2
  21 -30  -3 13487.7 1671.71   4
  30 -21  -3 16212.8 2008.60   2
   9  21  -3 16332.7 1490.84   1
   9  21  -3 20201.0 2127.45   3
  -9  30  -3 19666.2 1729.07   1
  30 -21   0 11344.9 1818.21   3
  -9  30   0 16223.5 1444.02   1
  30 -21   0 15978.8 1681.88   4
  21 -30   0 12542.6 1358.54   4
  30 -21   0 16899.4 1713.12   2
 -30   9   0 14552.4 1527.84   1
   9  21   0 15043.3 1866.83   3
   9  21   0 12447.4 964.257   1
  30 -21   3 20882.0 2405.72   3
  30 -21   3 25241.1 1775.53   2
  21 -30   3 23562.7 1510.55   4
  -9  30   3 25302.8 2281.16   3
  -9  30   3 26503.1 1911.90   1
   9  21   3 27825.0 2636.97   3
  30 -21   6 7693.95 2015.31   3
  -9  30   6 8014.92 1428.62   1
  -9  30   6 10950.5 1672.36   3
   9  21   6 11146.4 1869.04   3
  30 -20  -7 664.645 1571.33   4
  20 -30  -7 1419.77 1224.69   4
  10  20  -7 1425.56 1052.56   1
  10  20  -7 482.405 1103.68   2
  30 -20  -7-834.451 1469.84   2
 -10  30  -7 3900.16 1411.85   1
  20 -30  -7 1361.41 1030.01   2
  30 -20  -4 2061.83 1233.55   4
  10  20  -4 105.142 765.592   2
  20 -30  -4 1730.13 1043.33   4
  30 -20  -4 1777.08 1264.72   2
  10  20  -4 1648.66 791.306   1
  10  20  -4 1361.28 926.774   3
 -10  30  -4 178.499 740.975   1
  30 -20  -1 1931.34 1061.41   3
 -30  10  -1 735.690 691.355   1
  10  20  -1 2124.31 682.577   2
  30 -20  -1 1223.33 776.740   4
 -10  30  -1 830.206 624.926   1
  20 -30  -1 2275.06 894.491   4
  30 -20  -1 1823.94 968.886   2
  10  20  -1 763.075 963.064   3
  10  20  -1 1153.68 492.232   1
  30 -20   2 594.966 1317.48   3
  30 -20   2 2233.82 822.130   4
  20 -30   2 1291.60 624.528   4
  30 -20   2 2098.75 830.497   2
  10  20   2 1686.72 1135.72   3
 -10  30   2 1204.82 626.067   1
  30 -20   5 1630.59 1323.13   3
 -10  30   5 693.149 894.591   3
 -10  30   5 440.748 796.800   1
  10  20   5 294.218 1201.11   3
  19 -30  -5 3495.20 1004.85   2
  30 -19  -5 9326.31 1815.90   4
  11  19  -5 7548.46 1341.08   1
  19 -30  -5 7892.70 1550.75   4
  11  19  -5 6902.37 1364.85   2
  30 -19  -5 7497.70 1729.33   2
  11  19  -5 10245.2 1571.43   3
 -11  30  -5 7213.55 1200.17   1
 -30  11  -2 193.369 600.629   1
 -11  30  -2 54.5749 587.932   1
  30 -19  -2 2184.38 1063.59   4
  11  19  -2 169.436 607.913   2
  19 -30  -2 567.550 689.648   4
  30 -19  -2 688.548 947.466   2
  11  19  -2 1055.84 528.281   1
  11  19  -2 1309.80 953.274   3
  30 -19   1 9856.46 1773.30   3
  30 -19   1 8811.47 1253.60   4
  30 -19   1 8697.18 1255.52   2
  19 -30   1 8111.24 1017.40   4
 -11  30   1 11025.5 1222.95   1
  11  19   1 12600.6 1746.63   3
 -30  11   1 13041.7 1557.61   1
  30 -19   4 4973.16 1385.76   3
  19 -30   4 8462.39 870.619   4
 -11  30   4 10697.2 1582.87   3
  11  19   4 9321.71 1770.41   3
 -11  30   4 7415.33 1216.29   1
  30 -19   7 8057.89 1955.27   3
 -11  30   7 6993.19 1430.12   1
 -11  30   7 9352.34 1615.74   3
  11  19   7 12054.0 2164.03   3
  18 -30  -6 4563.65 1145.42   2
  30 -18  -6 6371.87 1752.12   4
  18 -30  -6 4341.90 1392.98   4
  12  18  -6 4373.45 1154.47   1
  12  18  -6 4927.20 1351.14   2
  30 -18  -6 3751.04 1658.29   2
 -12  30  -6 5729.98 1247.40   1
  30 -18  -3 37755.2 2779.74   4
  12  18  -3 38111.0 2436.53   2
 -30  12  -3 31841.3 1909.68   1
  18 -30  -3 30626.8 2261.52   4
  30 -18  -3 37374.5 2849.94   2
  12  18  -3 39020.7 2175.32   1
  12  18  -3 41718.4 2775.49   3
 -12  30  -3 36740.7 2229.10   1
  30 -18   0 3243.32 1320.21   3
 -12  30   0 5238.68 996.166   1
 -30  12   0 7155.10 1168.20   1
  30 -18   0 5912.72 1070.30   4
  18 -30   0 5515.52 934.327   4
  30 -18   0 5824.22 1155.40   2
  12  18   0 5017.41 604.232   1
  30 -18   3 14773.6 2131.17   3
  30 -18   3 20173.6 1656.12   2
  18 -30   3 16690.6 1156.46   4
 -30  12   3 24800.0 2230.60   1
 -12  30   3 22171.8 1821.32   1
  12  18   3 22028.1 2393.92   3
  30 -18   6 3741.53 1594.47   3
 -12  30   6 6338.85 1307.20   1
 -12  30   6 3737.05 1278.68   3
  12  18   6 5879.63 1947.90   3
  17 -30  -7 2985.58 1202.87   2
  30 -17  -7 2604.79 1558.00   4
  13  17  -7 3920.11 1416.65   1
  17 -30  -7 2485.60 1327.65   4
  13  17  -7 2278.13 1360.80   2
  30 -17  -7 3238.04 1621.06   2
 -13  30  -7 4320.00 1151.03   1
 -30  13  -4 5181.73 868.875   1
 -13  30  -4 3978.38 953.993   1
  30 -17  -4 5032.45 1565.44   4
  13  17  -4 4643.90 1239.60   2
  17 -30  -4 3967.72 1059.34   4
  30 -17  -4 4167.90 1370.50   2
  13  17  -4 3396.69 924.488   1
  13  17  -4 4899.24 1214.37   3
 -13  30  -1 6364.23 1029.29   1
  30 -17  -1 6510.35 1465.83   3
  13  17  -1 6343.05 974.999   2
  30 -17  -1 7018.08 1307.68   4
  30 -17  -1 7523.01 1297.40   2
  17 -30  -1 3918.21 889.068   4
  13  17  -1 5147.08 727.436   1
  13  17  -1 7124.98 1370.19   3
 -30  13  -1 4986.54 982.311   1
  30 -17   2 2053.68 1105.09   3
  30 -17   2 6660.81 1081.90   2
  17 -30   2 5342.22 747.572   4
 -13  30   2 5635.64 1040.79   1
 -30  13   2 6885.96 1317.66   1
  13  17   2 6367.80 1454.79   3
  30 -17   5-491.051 1242.02   3
 -13  30   5-1011.66 899.206   3
 -13  30   5 506.278 763.594   1
  13  17   5-1558.88 1280.63   3
  16 -30  -5 340.702 633.302   2
 -30  14  -5 674.470 545.876   1
  30 -16  -5 911.700 1254.63   4
  14  16  -5 1521.15 1056.36   2
  14  16  -5 1032.20 799.235   1
  16 -30  -5 971.519 995.215   4
  30 -16  -5 113.228 1262.50   2
  14  16  -5 657.182 886.580   3
 -14  30  -5 1395.20 665.385   1
 -14  30  -2 7648.17 1154.31   1
  30 -16  -2 5662.34 1372.03   3
  14  16  -2 7369.17 1122.03   2
  30 -16  -2 7649.93 1378.01   4
 -30  14  -2 8526.19 1124.10   1
  30 -16  -2 8785.77 1502.78   2
  16 -30  -2 5104.04 990.728   4
  14  16  -2 7344.45 952.253   1
  14  16  -2 8151.07 1356.02   3
 -30  14   1 6728.74 1195.16   1
  30 -16   1 6442.45 1419.98   3
  30 -16   1 4908.09 992.457   4
  30 -16   1 4205.24 1013.99   2
  16 -30   1 4286.37 734.591   4
 -14  30   1 5103.69 971.001   1
  14  16   1 8182.82 1684.20   3
  30 -16   4 8931.25 1758.84   3
 -30  14   4 7053.13 1469.85   1
  14  16   4 11398.1 1893.22   3
 -14  30   4 9473.62 1366.88   1
 -14  30   7 2138.07 1096.22   1
  30 -16   7 1547.21 1685.69   3
 -14  30   7 391.760 1000.30   3
  14  16   7 384.786 1498.66   3
  15 -30  -6 4630.66 1013.02   2
  30 -15  -6 9646.49 1992.98   4
  15  15  -6 6382.85 1440.48   1
  15  15  -6 8158.71 1762.79   2
  15 -30  -6 6671.53 1477.23   4
  30 -15  -6 10736.9 2010.68   2
 -15  30  -6 7946.48 1339.57   1
  30 -15  -3 12927.4 1656.77   3
  30 -15  -3 17046.5 1962.71   4
  15  15  -3 15696.5 1676.95   2
  15  15  -3 18155.8 1572.05   1
  30 -15  -3 21182.5 2232.21   2
  15 -30  -3 14506.3 1501.82   4
  15  15  -3 17948.6 1818.94   3
 -15  30  -3 21476.7 1786.76   1
 -30  15  -3 17822.9 1518.46   1
  30 -15   0 414.996 1036.69   3
  15  15   0 2223.16 482.991   4
  30 -15   0 1155.59 701.469   4
  30 -15   0 3013.26 1022.06   2
  15 -30   0 2308.98 636.024   4
 -15  30   0 1689.20 715.823   1
 -30  15   0 2902.03 932.541   1
  15  15   0 2064.12 1237.34   3
  15  15   0 1889.99 372.884   1
  30 -15   3 15157.7 2151.26   3
 -30  15   3 20278.4 2070.67   1
 -15  30   3 14432.0 1566.99   1
  15  15   3 20455.3 2295.29   3
  30 -15   6 5944.56 1804.64   3
 -15  30   6 7423.46 1410.17   1
 -15  30   6 4465.79 1190.09   3
  15  15   6 5730.21 1654.92   3
  14 -30  -7 1125.70 972.632   2
  16  14  -7 1211.41 1243.88   1
  30 -14  -7 5557.72 2003.85   4
  14 -30  -7 118.082 1203.91   4
  16  14  -7 588.413 1263.17   2
  30 -14  -7 1649.79 1807.74   2
 -16  30  -7 1050.80 825.743   1
  16  14  -4 12383.9 1507.74   1
  16  14  -4 13847.3 1781.23   2
  30 -14  -4 7294.81 1591.65   4
  30 -14  -4 11425.3 1972.34   2
  14 -30  -4 7517.63 1297.59   4
 -30  16  -4 9741.56 1120.19   1
  16  14  -4 14073.1 1671.19   3
 -16  30  -4 8026.63 1244.39   1
  30 -14  -1 4440.02 1292.66   3
  30 -14  -1 5841.25 1100.47   4
  16  14  -1 5351.57 739.252   4
  16  14  -1 4543.15 919.673   2
  30 -14  -1 3880.33 1084.56   2
 -16  30  -1 4321.16 915.607   1
  14 -30  -1 4191.24 772.496   4
  16  14  -1 4824.18 703.490   1
  16  14  -1 3396.02 1277.76   3
 -30  16  -1 3818.11 889.443   1
 -30  16   2 8900.83 1490.28   1
  30 -14   2 5268.17 1373.82   3
  30 -14   2 7038.53 1134.41   2
 -16  30   2 6593.60 1129.50   1
  16  14   2 3543.66 1178.83   3
  30 -14   5 1124.51 1334.66   3
 -30  16   5 1376.68 1209.39   1
  16  14   5 4058.35 1581.66   3
 -16  30   5-258.376 904.381   1
 -17  30  -5 648.758 654.105   1
  13 -30  -5-116.064 652.296   2
  30 -13  -5 38.0973 1057.08   4
  17  13  -5 1766.68 895.553   1
  17  13  -5 1573.77 1161.39   2
  30 -13  -5 1647.04 1171.90   2
  13 -30  -5 1155.56 908.135   4
 -30  17  -5 792.357 583.820   1
 -17  30  -2 6994.29 1108.33   1
  30 -13  -2 2491.10 1134.26   3
  30 -13  -2 6536.38 1224.50   4
  17  13  -2 7138.19 906.076   4
  17  13  -2 8116.00 1028.05   1
  30 -13  -2 5998.25 1321.48   2
  13 -30  -2 5964.85 918.438   4
  17  13  -2 7915.11 1412.47   3
  17  13  -2 6520.38 1134.58   2
 -30  17  -2 7389.43 1099.28   1
  30 -13   1 2155.79 1319.42   3
  30 -13   1 7651.84 1136.11   2
  30 -13   1 2382.77 833.115   4
 -17  30   1 5540.53 1043.46   1
 -30  17   1 5420.44 1175.37   1
  17  13   1 3819.27 1342.40   3
  30 -13   4 2793.34 1365.40   3
 -30  17   4 2477.16 1094.46   1
  17  13   4 1896.62 1270.49   3
  30 -13   7-176.478 1366.71   3
 -17  30   7 3701.43 1275.00   1
 -17  30   7 993.029 966.323   3
  17  13   7 3133.45 1603.24   3
 -18  30  -6 3645.06 1056.13   1
  12 -30  -6 2701.18 884.117   2
  18  12  -6 6183.62 1481.93   1
  30 -12  -6 5904.89 1707.82   4
 -30  18  -6 5766.30 953.333   1
  18  12  -6 4835.89 1522.55   2
  12 -30  -6 2519.43 1095.39   4
  30 -12  -6 8293.40 1893.48   2
 -18  30  -3 19744.8 1727.82   1
  30 -12  -3 14956.6 1765.53   3
  18  12  -3 20541.0 1791.84   1
  30 -12  -3 18631.7 2054.50   4
  18  12  -3 19846.9 1947.67   2
  18  12  -3 19647.7 1558.94   4
  30 -12  -3 27211.5 2459.66   2
  12 -30  -3 18096.5 1474.42   4
 -30  18  -3 20895.9 1600.17   1
  18  12  -3 26596.4 2234.18   3
  30 -12   0 6854.40 1520.75   3
  18  12   0 5605.98 717.195   4
  30 -12   0 6878.59 1082.51   4
 -30  18   0 8672.48 1270.42   1
  30 -12   0 3950.27 1023.90   2
 -18  30   0 5553.73 1020.85   1
  18  12   0 6777.83 1437.11   3
 -30  18   3 33013.6 2600.18   1
  18  12   3 32639.0 2883.58   3
 -18  30   3 32886.8 2345.36   1
  30 -12   3 24564.5 2614.53   3
  30 -12   6 5271.92 1701.09   3
 -30  18   6 6081.63 1555.40   1
 -18  30   6 6422.83 1471.85   1
 -18  30   6 4646.75 1171.16   3
  18  12   6 1459.88 1417.20   3
  11 -30  -7 5975.45 1151.35   2
 -30  19  -7 9328.74 1158.35   1
  30 -11  -7 7148.20 1944.10   4
  19  11  -7 7997.49 2164.86   2
  11 -30  -7 8083.96 1543.13   4
  30 -11  -7 11191.8 2388.45   2
 -19  30  -7 12278.5 1593.84   1
  19  11  -4 9944.30 1451.14   1
  30 -11  -4 8420.12 1731.47   4
  19  11  -4 8825.26 1583.62   2
  19  11  -4 9331.93 1221.17   4
  30 -11  -4 10826.9 1873.21   2
  11 -30  -4 9972.92 1266.88   4
 -30  19  -4 8894.74 1150.57   1
  19  11  -4 13806.5 1695.25   3
 -19  30  -4 12000.7 1427.92   1
  30 -11  -1 5980.92 1396.81   3
  19  11  -1 7436.32 1175.20   2
  19  11  -1 6499.70 834.294   4
 -19  30  -1 8425.11 1187.35   1
  30 -11  -1 8010.53 1433.57   2
  30 -11  -1 4946.60 1042.99   4
  19  11  -1 6832.60 825.485   1
  19  11  -1 9828.69 1551.34   3
 -30  19  -1 8637.50 1186.80   1
  30 -11   2 2235.35 1325.41   3
 -30  19   2 2226.64 930.807   1
  19  11   2 5136.47 1420.12   3
 -19  30   2 1670.45 892.161   1
  30 -11   5 4348.27 1711.08   3
 -19  30   5 8094.71 1527.86   1
 -30  19   5 8525.73 1631.47   1
  19  11   5 9812.51 1905.43   3
 -20  30  -5 1187.61 805.265   1
  30 -10  -5 1280.08 1065.51   4
  20  10  -5 1887.02 937.052   4
  20  10  -5 1087.12 1195.05   2
  30 -10  -5 505.135 1248.20   2
  10 -30  -5 1008.30 789.099   4
 -30  20  -5 1268.87 665.091   1
  30 -10  -2 527.837 975.850   3
 -30  20  -2 1690.23 744.103   1
  30 -10  -2 872.086 916.126   4
  20  10  -2 1924.43 618.398   4
  20  10  -2 975.073 820.995   2
  30 -10  -2 2814.48 1130.76   2
  20  10  -2 1621.27 745.172   1
 -20  30  -2 979.888 755.869   1
  20  10  -2 1951.47 1057.75   3
  30 -10   1 3389.37 1311.93   3
 -30  20   1 1618.74 820.105   1
  30 -10   1 1950.19 791.124   4
  30 -10   1 2182.77 898.886   2
  20  10   1 18.2561 959.771   3
 -20  30   1 572.385 727.298   1
  30 -10   4 3098.42 1493.65   3
 -20  30   4 802.502 773.155   1
  20  10   4-571.762 1381.95   3
 -30  20   4 1288.54 1020.99   1
  30 -10   7-1220.05 1405.93   3
 -20  30   7 116.453 981.619   1
 -30  20   7 438.134 1118.37   1
 -20  30   7-399.728 808.070   3
  20  10   7 3115.52 1760.82   3
 -30  21  -6 10609.8 1252.17   1
  21   9  -6 10073.8 1553.33   4
  30  -9  -6 9878.21 2008.67   4
  21   9  -6 10962.0 2092.40   2
  30  -9  -6 10466.8 2164.39   2
 -21  30  -6 11882.9 1472.11   1
  30  -9  -3 17894.1 1916.79   3
 -21  30  -3 25058.5 1916.40   1
  30  -9  -3 19797.6 2040.32   4
  21   9  -3 19066.3 1986.56   2
  21   9  -3 21288.5 1695.10   4
  30  -9  -3 25308.6 2445.42   2
 -30  21  -3 21905.0 1739.77   1
  21   9  -3 26966.6 2240.31   3
 -30  21   0 16168.2 1600.40   1
  21   9   0 15244.5 1201.99   4
  30  -9   0 11502.9 1398.17   4
 -21  30   0 14931.2 1566.88   1
  30  -9   0 13630.7 1591.05   2
  21   9   0 15453.2 1938.19   3
  30  -9   0 11356.4 1853.32   3
 -30  21   3 15999.4 1920.22   1
  21   9   3 21333.3 2475.75   3
 -21  30   3 17640.6 1841.57   1
  30  -9   6 4409.86 1671.49   3
 -21  30   6 7214.95 1536.07   1
 -30  21   6 6929.47 1605.14   1
  30  -8  -4 2788.98 1182.02   4
 -22  30  -4 2962.39 864.462   1
  22   8  -4 3377.76 1001.48   4
  22   8  -4 2383.24 1251.07   2
  30  -8  -4 4358.66 1525.39   2
 -30  22  -4 3885.05 880.143   1
  22   8  -4 2750.98 991.299   3
  30  -8  -1 17119.0 1770.91   2
  22   8  -1 17369.0 1644.52   2
  30  -8  -1 13359.7 1520.70   4
  22   8  -1 14310.8 1259.08   4
 -22  30  -1 19333.8 1722.01   1
 -30  22  -1 16488.1 1648.85   1
  22   8  -1 21317.6 2179.83   3
  30  -8  -1 15507.5 2036.73   3
  30  -8   2 8704.51 1739.91   3
 -30  22   2 9359.47 1466.88   1
 -22  30   2 9876.83 1398.59   1
  22   8   2 9781.29 1731.04   3
 -30  22   5 12234.0 1883.49   1
 -22  30   5 10340.7 1666.70   1
  22   8   5 10147.7 2095.42   3
  30  -8   5 11393.7 2108.45   3
 -23  30  -5-220.751 721.697   1
  30  -7  -5 206.562 1111.39   4
  23   7  -5-345.176 908.007   4
  23   7  -5 834.747 1204.51   2
  30  -7  -5 2419.13 1569.57   2
 -30  23  -5 713.536 674.103   1
 -30  23  -2 2250.86 828.679   1
  30  -7  -2 2799.39 1193.84   3
  30  -7  -2 1780.27 904.538   4
  23   7  -2 1844.58 698.776   4
  23   7  -2 1991.79 1027.95   2
  30  -7  -2 1827.35 925.014   2
 -23  30  -2 2397.74 811.909   1
  23   7  -2 1241.06 1101.46   3
  30  -7   1 5392.88 1498.13   3
  30  -7   1 3209.91 850.286   4
  30  -7   1 2550.14 941.775   2
 -30  23   1 2622.38 928.733   1
  23   7   1 5401.58 1444.74   3
 -23  30   1 2510.58 897.961   1
  30  -7   4 561.624 1323.51   3
 -30  23   4 118.169 859.004   1
 -23  30   4-89.6427 808.565   1
  23   7   4 145.206 1126.74   3
 -30  24  -6 10798.6 1337.99   1
  30  -6  -6 11699.3 2246.28   4
  24   6  -6 12890.1 2326.95   2
  24   6  -6 9096.94 1603.37   4
  30  -6  -6 13996.0 2432.94   2
 -24  30  -6 12647.9 1531.81   1
  30  -6  -3 6872.21 1403.35   3
 -24  30  -3 8514.38 1267.01   1
  30  -6  -3 6600.01 1327.08   4
  24   6  -3 7813.96 1268.42   4
  24   6  -3 7361.44 1471.72   2
  30  -6  -3 5508.87 1420.38   2
 -30  24  -3 6564.90 1116.51   1
  24   6  -3 5070.68 1310.33   3
  24   6   0 11232.1 1120.80   4
  30  -6   0 11908.8 1364.53   4
  30  -6   0 10793.1 1428.51   2
 -24  30   0 13988.9 1555.38   1
 -30  24   0 13693.3 1555.22   1
  30  -6   0 10759.1 1786.03   3
  30  -6   3 3184.18 1400.74   3
 -30  24   3 3984.70 1209.68   1
  24   6   3 5608.38 1640.10   3
 -24  30   3 6119.77 1317.76   1
  30  -6   6 3836.63 1551.80   3
 -30  24   6 8051.64 1788.25   1
 -24  30   6 7241.57 1667.60   1
  24   6   6 7759.44 1905.63   3
  30  -5  -4 2127.75 1086.89   4
  25   5  -4 2553.86 1012.96   4
  25   5  -4 3545.87 1324.78   2
  30  -5  -4 3521.72 1494.80   2
 -25  30  -4 2572.42 907.225   1
 -30  25  -4 3248.16 978.968   1
  30  -5  -1 8493.72 1596.53   3
  25   5  -1 9102.59 1379.16   2
  30  -5  -1 8809.49 1211.60   4
  25   5  -1 7777.89 1047.96   4
  30  -5  -1 7492.09 1395.55   2
 -25  30  -1 6410.65 1118.36   1
 -30  25  -1 10350.1 1379.56   1
  25   5  -1 8846.47 1599.24   3
 -25  30   2 3836.52 1059.89   1
  25   5   2 3453.49 1477.64   3
 -30  25   2 6143.22 1263.43   1
  30  -5   2 4965.78 1549.50   3
 -30  25   5 21127.8 2376.04   1
 -25  30   5 15695.7 2134.04   1
  25   5   5 16626.6 2473.04   3
  30  -5   5 12117.3 2133.76   3
  30  -4  -5 5587.79 1495.63   4
  26   4  -5 2073.92 1070.96   4
 -26  30  -5 3924.29 978.242   1
  26   4  -5 4957.07 1606.70   2
  30  -4  -5 4045.48 1630.04   2
 -30  26  -5 2828.02 949.214   1
  30  -4  -2 335.184 1061.48   3
  30  -4  -2 992.674 789.010   4
  26   4  -2 645.405 691.091   4
  26   4  -2 1259.32 893.537   2
  30  -4  -2 355.495 1029.62   2
 -26  30  -2 825.660 729.138   1
 -30  26  -2 500.137 647.796   1
  26   4  -2 1986.94 1171.06   3
 -30  26   1 8425.61 1378.56   1
  30  -4   1 8682.10 1309.55   2
  30  -4   1 7289.26 1093.34   4
 -26  30   1 8128.47 1327.16   1
  26   4   1 8997.08 1732.66   3
  30  -4   1 4099.47 1486.16   3
 -30  26   4 3407.32 1234.32   1
  26   4   4 3119.82 1556.76   3
 -26  30   4 3377.38 1201.61   1
  30  -4   4 3097.03 1575.98   3
  30  -3  -3 746.438 867.275   4
  27   3  -3-293.155 777.545   4
  27   3  -3 124.643 1027.63   2
  30  -3  -3 208.321 958.059   2
 -27  30  -3 958.547 894.732   1
 -30  27  -3 458.814 670.433   1
  27   3  -3 1149.23 1158.82   3
  27   3   0 3542.94 834.464   4
  30  -3   0 5342.35 1010.74   4
  27   3   0 6069.83 1127.13   2
  30  -3   0 4643.49 1154.54   2
 -30  27   0 6123.53 1133.02   1
 -27  30   0 8025.63 1323.15   1
  27   3   0 5895.37 1561.91   3
  30  -3   0 4403.11 1545.81   3
 -30  27   3 2102.65 1006.79   1
 -27  30   3 1739.36 947.911   1
  27   3   3 1815.88 1395.93   3
  30  -3   3 2092.05 1456.18   3
 -28  30  -4 6291.82 1177.51   1
  28   2  -4 6605.99 1461.62   4
  30  -2  -4 4389.34 1285.10   4
 -30  28  -4 6619.50 1222.47   1
  28   2  -4 6951.52 1636.45   2
  30  -2  -4 7246.53 1737.37   2
  30  -2  -1 7547.94 1184.44   4
  28   2  -1 10099.4 1309.03   4
  28   2  -1 9651.50 1524.28   2
  30  -2  -1 10512.4 1493.88   2
 -28  30  -1 11077.0 1481.37   1
 -30  28  -1 8365.52 1289.47   1
  28   2  -1 11890.9 1893.96   3
  30  -2  -1 9341.95 1775.30   3
 -28  30   2 4431.52 1129.89   1
 -30  28   2 4299.38 1205.14   1
  28   2   2 5312.30 1575.89   3
  30  -2   2 2019.65 1492.86   3
 -30  28   5 4338.06 1417.32   1
 -28  30   5 5799.52 1553.92   1
  28   2   5 3674.84 1720.84   3
  30  -2   5 5935.61 1864.25   3
  30  -1  -2 888.616 815.582   4
  29   1  -2 309.223 775.690   4
  29   1  -2-1191.02 1026.04   2
  30  -1  -2 116.528 937.655   2
 -29  30  -2 846.301 744.767   1
 -30  29  -2 252.258 691.123   1
  29   1  -2 664.359 1182.14   3
  30  -1  -2 793.474 1158.22   3
  29   1   1 7356.02 1103.79   4
  30  -1   1 7098.59 1101.31   4
 -29  30   1 8108.60 1377.37   1
 -30  29   1 8067.74 1423.99   1
  29   1   1 8331.19 1948.14   3
  30  -1   1 5282.26 1616.70   3
 -29  30   4 3769.86 1298.23   1
 -30  29   4 2731.25 1261.52   1
  29   1   4 4351.08 1685.04   3
  30  -1   4 192.691 1359.35   3
  30   0  -3-2140.86 1079.40   4
  30   0  -3-680.910 1062.62   2
 -30  30  -3 795.433 792.033   1
  30   0   0 5512.60 1059.31   4
 -30  30   0 6590.31 1282.74   1
  30   0   0 5730.31 1208.12   2
  30   0   0 8096.90 1827.51   3
 -30  30   3 862.084 943.603   1
  30   0   3-2235.83 1411.57   3
   0  31  -1-475.721 703.931   1
  31 -31  -1 159.957 940.827   4
   0  31  -1-453.159 1355.91   3
  31 -31   2 7430.82 1336.55   4
   0  31   2 8551.95 1736.07   3
  31 -30  -2 6905.82 1474.73   4
  30 -31  -2 7265.99 1625.31   4
  -1  31  -2 5781.01 1764.73   3
   1  30  -2 5068.40 1825.26   3
   1  30  -2 9395.61 1208.40   1
  -1  31  -2 6981.26 1135.14   1
  31 -30   1 14860.6 1783.51   4
  30 -31   1 14532.0 1700.43   4
   1  30   1 14100.0 1283.13   1
  -1  31   1 13416.0 1249.71   1
  -1  31   1 17437.6 2316.14   3
   1  30   1 16733.9 2315.00   3
  31 -29  -3 5615.65 1628.83   4
  29 -31  -3 6484.26 1494.03   4
  -2  31  -3 10587.6 2147.90   3
   2  29  -3 9150.25 1869.26   3
  -2  31  -3 7105.68 1177.68   1
   2  29  -3 7678.05 1094.32   1
   2  29   0 5421.49 862.952   1
  -2  31   0 6261.73 977.035   1
  31 -29   0 4594.07 1215.87   4
  29 -31   0 4426.06 1236.41   4
  -2  31   0 5844.06 1717.65   3
  -2  31   3 3739.66 794.748   1
  31 -29   3 3322.04 1058.13   4
  29 -31   3 3708.06 1054.70   4
  -2  31   3 4438.55 1445.62   3
   2  29   3 7683.02 1631.23   3
  31 -28  -4 8788.12 1827.56   4
  28 -31  -4 6270.29 1681.49   4
  31 -28  -4 5426.09 1463.58   2
   3  28  -4 7642.00 1248.96   1
  -3  31  -4 8344.89 1349.17   1
   3  28  -1 2552.76 723.955   1
  -3  31  -1 1941.75 772.245   1
  31 -28  -1 2604.32 1157.03   4
  28 -31  -1-68.9756 889.640   4
  -3  31  -1-184.297 1328.70   3
   3  28  -1 3375.51 1416.85   3
  31 -28   2 2412.18 923.480   4
  28 -31   2 2233.47 976.309   4
  -3  31   2 3490.54 1552.25   3
   3  28   2 3572.26 1399.35   3
  -3  31   2 2164.86 712.620   1
  31 -27  -5 3616.90 1455.89   4
  27 -31  -5 5545.94 1638.45   4
  31 -27  -5 2323.40 1419.96   2
   4  27  -5 8183.85 2040.49   3
  31 -27  -2 1709.26 1077.90   4
  27 -31  -2 2253.34 1068.23   4
  31 -27  -2 4158.52 1224.67   2
   4  27  -2 7723.63 1699.01   3
   4  27  -2 5904.79 976.089   1
  -4  31  -2 6702.51 1075.44   1
   4  27   1 6739.66 832.717   1
  27 -31   1 7678.82 1257.59   4
  31 -27   1 6118.55 1277.88   4
  -4  31   1 8245.17 1067.87   1
  -4  31   1 7087.53 1513.06   3
   4  27   1 8269.21 1656.59   3
  31 -27   4 11611.9 1614.97   4
  27 -31   4 10278.9 1301.28   4
  -4  31   4 13319.5 1919.04   3
   4  27   4 11959.6 1899.78   3
  -4  31   4 10144.9 1225.40   1
  31 -26  -3 12419.3 1905.95   4
  26 -31  -3 13086.0 1884.56   4
   5  26  -3 15394.6 2082.71   3
   5  26  -3 15981.5 1557.97   1
  -5  31  -3 14619.1 1560.09   1
  -5  31   0 9040.82 1142.28   1
   5  26   0 8961.53 1037.59   2
  31 -26   0 9267.61 1446.51   4
  26 -31   0 6453.91 1204.66   4
  31 -26   0 9304.41 1348.86   2
  -5  31   0 10680.4 1838.58   3
   5  26   0 13891.4 1934.98   3
   5  26   0 10939.5 990.532   1
  26 -31   3 6548.89 1100.54   4
  31 -26   3 6713.41 1223.39   4
  -5  31   3 7426.66 1100.47   1
  -5  31   3 7097.36 1654.24   3
   5  26   3 4304.54 1429.08   3
  31 -25  -4 3656.80 1422.26   4
  25 -31  -4 3974.80 1399.30   4
  31 -25  -4 2182.09 1247.14   2
   6  25  -4 4963.28 1462.80   3
   6  25  -4 3294.85 984.200   1
  -6  31  -4 3885.06 993.203   1
  -6  31  -1 6931.64 1052.99   1
   6  25  -1 7303.91 1017.41   2
  31 -25  -1 5810.22 1334.14   4
  25 -31  -1 5232.55 1248.99   4
  31 -25  -1 8577.49 1443.41   2
   6  25  -1 10371.2 1841.69   3
   6  25  -1 7656.34 951.103   1
  31 -25   2 4166.72 1124.71   4
  25 -31   2 2936.51 821.636   4
  -6  31   2 7781.34 1052.73   1
  -6  31   2 4226.98 1278.59   3
   6  25   2 6826.65 1569.05   3
  31 -25   5 2845.18 1672.75   3
  25 -31   5 1596.66 749.798   4
  -6  31   5 2494.48 1247.16   3
   6  25   5 682.153 1192.63   3
  -6  31   5 548.063 713.711   1
  31 -24  -5 14117.7 2320.37   4
  24 -31  -5 15238.2 2075.54   4
   7  24  -5 17368.7 1783.64   1
  31 -24  -5 17238.3 2413.63   2
   7  24  -5 22674.4 2404.04   3
  -7  31  -5 17006.3 1765.74   1
  -7  31  -2 4840.91 929.749   1
   7  24  -2 5475.98 1047.74   2
  31 -24  -2 1647.57 1034.47   4
  24 -31  -2 2993.98 1051.41   4
  31 -24  -2 4688.24 1330.86   2
   7  24  -2 5106.46 1400.72   3
   7  24  -2 3718.43 812.167   1
  31 -24   1 9996.47 1396.23   4
  24 -31   1 8009.06 1191.16   4
  -7  31   1 10509.1 1228.99   1
  31 -24   1 10573.3 1351.59   2
   7  24   1 11189.8 1800.71   3
  24 -31   4 15534.1 1396.57   4
  -7  31   4 16605.2 2192.54   3
   7  24   4 18940.5 2353.24   3
  -7  31   4 15740.9 1543.21   1
  31 -23  -6 20048.6 2708.07   4
  23 -31  -6 17646.3 2331.33   4
   8  23  -6 18586.4 1976.27   1
  31 -23  -6 16173.1 2401.80   2
  -8  31  -6 20279.6 2033.61   1
  31 -23  -3 10212.9 1829.15   4
   8  23  -3 12306.8 1452.87   2
  23 -31  -3 9007.06 1464.99   4
  31 -23  -3 11277.9 1776.72   2
   8  23  -3 14655.7 1481.92   1
   8  23  -3 15233.2 2003.42   3
  -8  31  -3 12716.6 1459.55   1
  31 -23   0 2751.47 972.946   4
  23 -31   0 2742.81 894.197   4
  31 -23   0 3441.21 1091.08   2
  -8  31   0 4208.93 890.557   1
   8  23   0 3496.05 603.608   1
  31 -23   3 7966.39 1836.61   3
  23 -31   3 11561.1 1198.31   4
  31 -23   3 11737.3 1333.91   2
  -8  31   3 12250.2 1797.23   3
  -8  31   3 12644.7 1411.20   1
  31 -23   6 2853.20 1556.00   3
  -8  31   6 5879.37 1209.60   1
  -8  31   6 4669.86 1520.53   3
   8  23   6 6969.78 1855.62   3
  -9  31  -4 2652.87 913.103   1
  31 -22  -4 1085.11 1166.96   4
  22 -31  -4 2106.85 1038.12   4
   9  22  -4 1274.30 920.832   2
  31 -22  -4 2576.89 1373.73   2
   9  22  -4 4526.58 1044.63   1
   9  22  -4 2762.54 1193.56   3
   9  22  -1 1788.67 737.547   2
  31 -22  -1 1441.61 959.022   4
  -9  31  -1 914.592 693.774   1
  22 -31  -1 1450.47 822.226   4
  31 -22  -1 2357.61 983.428   2
 -31   9  -1 957.099 637.251   1
   9  22  -1 3471.51 1196.65   3
   9  22  -1 1472.87 487.332   1
  31 -22   2 1137.16 1300.57   3
  31 -22   2 858.207 734.782   4
  22 -31   2 1184.80 624.602   4
  31 -22   2-268.722 686.068   2
   9  22   2-377.059 1076.17   3
  -9  31   2 711.634 602.373   1
  31 -22   5 380.337 1222.72   3
  -9  31   5 663.164 954.861   3
   9  22   5 1941.84 1336.84   3
  -9  31   5-602.911 778.402   1
  31 -21  -5 7838.47 1828.00   4
  10  21  -5 8920.62 1353.37   1
  21 -31  -5 3652.44 1292.86   4
  10  21  -5 7979.67 1483.58   2
  31 -21  -5 8084.31 1783.14   2
  10  21  -5 11666.9 1840.55   3
 -10  31  -5 9585.65 1438.51   1
  10  21  -2 10871.6 1305.14   2
  31 -21  -2 10829.7 1605.26   4
  21 -31  -2 7308.30 1305.15   4
  31 -21  -2 10865.7 1644.77   2
 -31  10  -2 9097.26 1138.23   1
  10  21  -2 10420.1 1095.21   1
  10  21  -2 11326.5 1761.12   3
 -10  31  -2 10820.3 1281.10   1
  31 -21   1 7504.90 1565.79   3
  31 -21   1 10953.8 1429.31   4
  21 -31   1 13759.3 1330.71   4
  31 -21   1 9528.42 1319.87   2
 -10  31   1 14015.5 1398.84   1
  10  21   1 15368.1 2012.03   3
  31 -21   4 9219.10 1924.96   3
  31 -21   4 11019.9 1280.35   2
 -10  31   4 10490.7 1637.70   3
  10  21   4 9051.73 1838.06   3
 -10  31   4 7587.28 1252.76   1
  31 -20  -6 8613.12 1963.63   4
  11  20  -6 11577.2 1625.75   1
  20 -31  -6 9632.36 1831.03   4
  11  20  -6 10430.2 1815.13   2
  31 -20  -6 8646.55 2058.52   2
 -11  31  -6 8581.44 1391.63   1
  31 -20  -3 16152.5 1998.90   4
  11  20  -3 20822.8 1857.20   2
  20 -31  -3 14890.4 1693.61   4
  31 -20  -3 18641.3 2257.98   2
  11  20  -3 17190.2 1484.12   1
  11  20  -3 20323.9 2152.40   3
 -31  11  -3 13202.3 1314.91   1
 -11  31  -3 17090.0 1611.25   1
  31 -20   0 10962.0 1856.45   3
 -11  31   0 8331.63 1169.34   1
  31 -20   0 4266.29 1037.96   4
  31 -20   0 9801.73 1398.36   2
  20 -31   0 8321.70 1134.58   4
  11  20   0 9872.90 1676.24   3
 -31  11   0 8415.39 1316.65   1
  11  20   0 8120.05 748.153   1
  31 -20   3 13758.9 1433.97   2
 -11  31   3 13471.7 1490.34   1
  11  20   3 11153.6 1841.49   3
  31 -20   6 5903.84 1812.75   3
 -11  31   6 3075.54 1060.53   1
 -11  31   6 6082.86 1368.88   3
  11  20   6 2758.46 1623.63   3
 -12  31  -4 1771.68 739.713   1
  31 -19  -4 1688.87 1185.98   4
  12  19  -4 3390.88 1197.10   2
  19 -31  -4 2439.90 1164.83   4
  31 -19  -4 3779.98 1539.78   2
  12  19  -4 1364.98 725.821   1
  12  19  -4 2479.97 1137.83   3
  31 -19  -1 2855.22 1193.20   3
  12  19  -1 2490.84 794.539   2
  31 -19  -1 1649.55 884.084   4
 -12  31  -1 1738.01 680.132   1
  19 -31  -1 713.479 714.243   4
  31 -19  -1 2278.78 1061.05   2
  12  19  -1 2443.02 1099.93   3
 -31  12  -1 631.775 682.660   1
  12  19  -1 1343.02 557.462   1
  31 -19   2 11462.6 1448.09   4
  31 -19   2 12824.0 1459.73   2
  19 -31   2 9444.33 996.226   4
 -31  12   2 9720.73 1512.92   1
 -12  31   2 11503.6 1311.99   1
  12  19   2 13301.5 1887.45   3
  31 -19   5 1049.58 1407.34   3
 -12  31   5 91.6247 948.121   3
 -12  31   5 1283.65 804.000   1
  12  19   5 1116.61 1283.33   3
  31 -18  -5 2738.10 1397.61   4
  13  18  -5 1554.44 1043.03   2
  18 -31  -5 2064.84 1100.55   4
  13  18  -5 4149.47 1078.97   1
  31 -18  -5 2720.97 1521.07   2
  13  18  -5 3371.43 1104.08   3
 -13  31  -5 1622.90 857.954   1
 -13  31  -2 13659.9 1398.43   1
  31 -18  -2 7481.62 1480.02   3
  13  18  -2 10618.0 1317.53   2
  31 -18  -2 9544.60 1552.17   4
  31 -18  -2 15326.4 1933.18   2
  18 -31  -2 11013.6 1367.55   4
  13  18  -2 14683.2 1277.84   1
 -31  13  -2 11785.8 1344.98   1
  13  18  -2 13428.1 1840.42   3
  31 -18   1 6211.85 1484.01   3
  31 -18   1 5514.95 1073.15   4
  31 -18   1 8965.35 1276.40   2
  18 -31   1 4416.45 793.227   4
 -13  31   1 5908.19 997.229   1
 -31  13   1 8462.60 1395.26   1
  13  18   1 5386.15 1413.32   3
  31 -18   4 19067.3 2471.94   3
  13  18   4 22153.9 2529.44   3
 -13  31   4 21241.3 1974.72   1
  14  17  -6 8816.52 1533.85   1
  31 -17  -6 8483.78 1992.00   4
  14  17  -6 8981.48 1863.38   2
  17 -31  -6 7140.36 1554.01   4
  31 -17  -6 4858.97 1884.11   2
 -14  31  -6 9058.62 1391.20   1
 -31  14  -3 17225.2 1487.16   1
  31 -17  -3 21282.1 2223.24   4
  14  17  -3 18142.2 1767.24   2
  31 -17  -3 18247.7 2114.04   2
  17 -31  -3 17630.0 1752.22   4
  14  17  -3 19826.8 1633.26   1
  14  17  -3 18775.0 2014.26   3
 -14  31  -3 21413.7 1802.10   1
  31 -17   0 13705.6 1909.44   3
  31 -17   0 13566.5 1493.65   4
 -14  31   0 18959.9 1684.82   1
  31 -17   0 17074.1 1794.24   2
  17 -31   0 12885.4 1213.51   4
  14  17   0 17502.6 2006.78   3
 -31  14   0 17781.5 1751.88   1
  31 -17   3 21101.3 2366.40   3
 -31  14   3 25974.7 2388.82   1
 -14  31   3 23809.3 1962.62   1
  14  17   3 23261.7 2464.36   3
  31 -17   6 7405.89 1952.47   3
 -14  31   6 5814.93 1379.79   1
 -14  31   6 6847.88 1420.20   3
  14  17   6 9812.69 2194.06   3
  31 -16  -4 13717.0 1984.01   4
  15  16  -4 15061.9 1899.82   2
  15  16  -4 16511.5 1670.83   1
  31 -16  -4 15076.5 2120.90   2
  16 -31  -4 12195.5 1622.14   4
  15  16  -4 17295.5 1882.43   3
 -15  31  -4 13680.2 1521.63   1
 -31  15  -4 13268.3 1294.31   1
  31 -16  -1 1962.42 988.613   3
  15  16  -1 3188.57 923.872   2
  31 -16  -1 753.868 793.153   4
  31 -16  -1 2825.39 1046.83   2
 -31  15  -1 1920.95 797.703   1
  16 -31  -1 230.633 661.241   4
 -15  31  -1 1936.42 773.305   1
  15  16  -1 1277.87 471.495   1
  15  16  -1 1021.29 1035.42   3
  31 -16   2 15709.4 2119.05   3
  31 -16   2 15698.1 1615.11   2
 -31  15   2 17473.1 1884.23   1
 -15  31   2 15997.6 1560.97   1
  15  16   2 18682.6 2210.00   3
  31 -16   5 1670.75 1539.48   3
 -15  31   5 886.356 889.596   3
 -15  31   5 1586.80 950.695   1
 -16  31  -5 2559.05 989.877   1
 -31  16  -5 2167.74 672.996   1
  31 -15  -5 977.993 1206.61   4
  16  15  -5 3468.68 1150.36   1
  16  15  -5 1430.99 1151.42   2
  15 -31  -5 4821.08 1300.46   4
  31 -15  -5 3456.25 1598.56   2
 -16  31  -2 19049.4 1691.37   1
 -31  16  -2 15775.3 1520.80   1
  16  15  -2 17312.8 1704.59   2
  31 -15  -2 15971.6 1796.48   4
  31 -15  -2 14554.3 1911.29   2
  16  15  -2 17031.4 1339.11   1
  15 -31  -2 16202.3 1475.63   4
  16  15  -2 19763.8 2127.26   3
  31 -15   1 1256.69 1058.56   3
  31 -15   1 2647.96 870.214   4
 -31  16   1 536.733 830.225   1
  31 -15   1 522.886 780.204   2
 -16  31   1 976.640 649.911   1
  16  15   1 2339.99 1201.31   3
  31 -15   4 11123.0 2003.68   3
 -31  16   4 11767.4 1708.29   1
  16  15   4 15444.0 2182.77   3
 -16  31   4 12986.2 1652.16   1
  17  14  -6 10108.7 1706.48   1
  31 -14  -6 9012.74 1938.89   4
  14 -31  -6 9451.74 1589.53   4
  17  14  -6 11792.0 1953.53   2
  31 -14  -6 9828.80 2077.17   2
 -31  17  -6 9583.63 1109.31   1
 -17  31  -6 10757.7 1510.69   1
  31 -14  -3 16853.0 1847.54   3
  31 -14  -3 22523.9 2232.51   4
  17  14  -3 26560.6 2258.45   2
  17  14  -3 25799.7 1834.29   1
  31 -14  -3 22664.7 2452.37   2
  14 -31  -3 21495.7 1765.42   4
  17  14  -3 27162.5 2241.33   3
 -31  17  -3 22506.5 1716.04   1
 -17  31  -3 25713.7 1940.08   1
  31 -14   0 13399.7 1864.70   3
  17  14   0 14976.9 1057.87   4
  31 -14   0 13224.2 1562.81   4
  31 -14   0 16358.6 1808.91   2
 -17  31   0 14305.0 1454.99   1
 -31  17   0 20541.6 1885.69   1
  17  14   0 14655.6 1848.73   3
 -31  17   3 18946.4 2078.20   1
 -17  31   3 19978.1 1918.98   1
  17  14   3 17982.6 2236.14   3
  31 -14   6 5945.00 1661.93   3
 -17  31   6 9294.37 1706.73   1
 -17  31   6 5390.35 1249.83   3
  18  13  -4 23247.6 2033.81   1
  31 -13  -4 20868.3 2283.45   4
  18  13  -4 19308.5 2129.86   2
  31 -13  -4 24398.4 2588.49   2
  13 -31  -4 15227.7 1559.33   4
 -31  18  -4 21618.9 1657.77   1
  18  13  -4 28845.6 2283.22   3
 -18  31  -4 24451.9 1944.80   1
  31 -13  -1 8418.55 1635.76   3
  18  13  -1 6534.28 1062.58   2
 -18  31  -1 8460.40 1211.58   1
  31 -13  -1 8211.29 1282.23   4
  18  13  -1 5929.12 827.824   4
  31 -13  -1 6277.78 1270.23   2
  18  13  -1 8836.74 1571.54   3
 -31  18  -1 5654.90 1059.88   1
  31 -13   2 9106.02 1742.23   3
  31 -13   2 10786.1 1413.34   2
 -18  31   2 12103.6 1462.00   1
  18  13   2 12697.8 1972.70   3
 -31  18   2 11832.3 1606.11   1
  31 -13   5 1681.54 1289.56   3
 -31  18   5 2158.50 1182.78   1
  18  13   5-1512.80 1576.91   3
 -18  31   5 2800.56 1095.55   1
 -19  31  -5-902.530 760.691   1
  19  12  -5 880.334 957.858   1
  31 -12  -5-101.646 1085.30   4
  19  12  -5 1606.96 1209.01   2
  31 -12  -5 1253.35 1418.52   2
  12 -31  -5-256.856 847.717   4
 -31  19  -5 239.728 541.041   1
 -19  31  -2 9920.99 1271.51   1
  31 -12  -2 7008.79 1504.35   3
  19  12  -2 11048.8 1451.93   2
  31 -12  -2 10886.2 1522.97   4
  19  12  -2 8677.40 1021.73   4
  19  12  -2 12525.8 1223.89   1
  31 -12  -2 8993.08 1537.40   2
  19  12  -2 11509.3 1717.65   3
 -31  19  -2 9136.37 1215.22   1
  31 -12   1 1819.45 1202.13   3
  31 -12   1 1091.18 725.775   4
  31 -12   1 2376.38 967.460   2
 -31  19   1 2964.55 950.363   1
  19  12   1 4010.86 1378.93   3
 -19  31   1 2380.73 862.055   1
  31 -12   4 1317.71 1391.64   3
 -31  19   4 1812.59 1140.78   1
 -19  31   4 1652.41 833.907   1
  19  12   4 2710.88 1440.93   3
 -20  31  -6 5925.34 1172.28   1
  31 -11  -6 6370.97 1827.59   4
 -31  20  -6 7159.69 1076.37   1
  20  11  -6 7217.13 1911.17   2
  31 -11  -6 6525.74 2113.12   2
 -20  31  -3 12150.6 1471.97   1
  31 -11  -3 5583.86 1291.13   3
  20  11  -3 11011.6 1410.09   1
  31 -11  -3 9760.19 1588.29   4
  20  11  -3 12869.2 1674.81   2
  20  11  -3 10701.9 1279.97   4
  31 -11  -3 10966.9 1735.19   2
 -31  20  -3 11027.7 1323.48   1
  20  11  -3 14079.8 1778.48   3
  31 -11   0 4767.83 1392.41   3
 -31  20   0 7594.99 1257.91   1
  20  11   0 6989.09 857.067   4
  31 -11   0 5845.14 1166.11   4
  31 -11   0 9107.05 1435.39   2
 -20  31   0 7218.82 1113.24   1
  20  11   0 9875.96 1645.63   3
  20  11   3 19210.3 2469.10   3
 -20  31   3 13090.8 1666.26   1
 -31  20   3 15240.3 1893.71   1
  31 -11   3 14393.5 2170.06   3
  31 -11   6 8285.10 2144.63   3
 -31  20   6 13643.6 2052.40   1
 -20  31   6 9275.76 1810.71   1
  20  11   6 9823.48 2192.92   3
 -21  31  -4 9222.68 1324.60   1
  21  10  -4 7574.26 1237.22   4
  31 -10  -4 6637.00 1635.01   4
  31 -10  -4 11152.0 1926.94   2
  21  10  -4 6375.12 1547.16   2
 -31  21  -4 11871.0 1313.96   1
  21  10  -4 8793.08 1522.69   3
  31 -10  -1 10277.3 1786.19   3
  21  10  -1 11770.3 1394.30   2
  31 -10  -1 7712.77 1361.40   4
  21  10  -1 10805.1 1086.42   4
  31 -10  -1 11530.0 1591.95   2
 -21  31  -1 13074.6 1533.83   1
  21  10  -1 14574.2 1905.13   3
 -31  21  -1 12308.1 1410.88   1
 -31  21   2 10731.6 1660.91   1
 -21  31   2 8577.71 1325.06   1
  21  10   2 12098.2 1917.53   3
  31 -10   2 10835.7 1939.57   3
 -21  31   5 8304.81 1555.07   1
  31 -10   5 7925.63 1955.53   3
 -31  21   5 10004.6 1725.29   1
  21  10   5 8122.25 1846.40   3
 -22  31  -5 89.0545 813.782   1
  31  -9  -5 1300.07 1111.67   4
  22   9  -5 1705.08 939.531   4
  22   9  -5 1287.90 1234.02   2
  31  -9  -5-938.347 1264.44   2
 -31  22  -5 1898.37 734.852   1
  31  -9  -2 306.736 989.844   3
 -31  22  -2 1270.94 759.793   1
  31  -9  -2 1463.89 934.887   4
  22   9  -2-324.932 540.614   4
  22   9  -2 1393.87 869.265   2
  31  -9  -2 551.904 1042.32   2
 -22  31  -2 354.454 655.336   1
  22   9  -2-134.331 1034.21   3
  31  -9   1 3812.77 1448.26   3
  31  -9   1 3127.96 945.626   4
  31  -9   1 1775.93 947.242   2
  22   9   1 4004.59 1525.01   3
 -22  31   1 1607.76 878.387   1
 -31  22   1 2272.01 940.909   1
  31  -9   4 3426.26 1472.40   3
 -22  31   4 3470.57 1115.41   1
 -31  22   4 2516.91 1185.85   1
  22   9   4 4277.00 1541.21   3
 -23  31  -6 6246.41 1205.20   1
  31  -8  -6 5595.38 1859.63   4
  23   8  -6 3157.56 1211.60   4
  23   8  -6 4397.63 1749.57   2
  31  -8  -6 3238.94 1724.07   2
 -31  23  -6 4957.19 982.618   1
  31  -8  -3 9104.92 1524.87   3
 -23  31  -3 14031.3 1569.82   1
  31  -8  -3 11989.6 1714.85   4
  23   8  -3 14238.9 1812.64   2
  23   8  -3 11491.6 1420.55   4
  31  -8  -3 10744.6 1803.09   2
 -31  23  -3 14215.7 1502.83   1
  23   8  -3 17590.0 1942.66   3
  31  -8   0 7355.54 1706.24   3
  23   8   0 4504.54 775.307   4
  31  -8   0 4519.11 1024.07   4
  31  -8   0 4649.14 1126.10   2
 -31  23   0 4128.31 987.205   1
 -23  31   0 3741.21 930.355   1
  23   8   0 5188.97 1472.53   3
 -31  23   3 13917.2 1802.09   1
  23   8   3 11947.1 1976.11   3
 -23  31   3 14817.4 1739.65   1
  31  -8   3 12100.0 2048.83   3
  31  -8   6 11784.8 2279.75   3
 -23  31   6 15373.1 2151.36   1
 -31  23   6 14917.0 2205.13   1
  23   8   6 12323.9 2254.72   3
 -24  31  -4 15682.8 1669.49   1
  31  -7  -4 12541.6 1951.27   4
  24   7  -4 14370.7 1665.63   4
  24   7  -4 15869.1 2050.56   2
  31  -7  -4 17676.2 2355.44   2
 -31  24  -4 16069.3 1563.60   1
  31  -7  -1 7476.92 1650.30   3
  24   7  -1 8718.36 1318.18   2
  31  -7  -1 7014.99 1225.66   4
  24   7  -1 8342.39 1061.53   4
  31  -7  -1 9880.26 1504.40   2
 -24  31  -1 6640.55 1150.31   1
 -31  24  -1 11995.6 1536.32   1
  24   7  -1 13291.6 1910.13   3
  31  -7   2 4131.19 1590.28   3
 -31  24   2 4810.52 1196.50   1
 -24  31   2 2593.42 963.598   1
  24   7   2 5440.98 1557.47   3
  31  -7   5 11579.4 2232.20   3
 -31  24   5 11533.6 1961.40   1
 -24  31   5 13623.9 1998.09   1
  24   7   5 16100.5 2402.73   3
  31  -6  -5 169.520 1145.86   4
  25   6  -5 2884.67 1151.29   4
 -25  31  -5 1535.13 836.296   1
  25   6  -5 3339.70 1494.75   2
  31  -6  -5 2801.29 1471.07   2
 -31  25  -5 1656.27 712.153   1
  31  -6  -2 4348.85 1392.54   3
  31  -6  -2 4190.22 1066.86   4
  25   6  -2 4543.11 937.489   4
  25   6  -2 6958.94 1384.27   2
  31  -6  -2 3658.84 1280.50   2
 -25  31  -2 4558.97 1031.78   1
 -31  25  -2 5957.00 1158.36   1
  25   6  -2 5039.68 1434.57   3
  31  -6   1 5032.35 1649.95   3
 -31  25   1 7981.14 1455.87   1
  25   6   1 7899.33 1031.13   4
  31  -6   1 7239.69 1196.11   4
  31  -6   1 5421.50 1185.13   2
 -25  31   1 6975.18 1312.50   1
  25   6   1 7804.64 1663.06   3
  31  -6   4-400.226 1449.68   3
 -31  25   4 3480.18 1303.79   1
 -25  31   4 2061.79 994.111   1
  25   6   4 1240.01 1347.16   3
  26   5  -3 8510.03 1291.15   4
 -26  31  -3 11074.6 1485.64   1
  31  -5  -3 6251.06 1366.49   4
  31  -5  -3 9825.00 1730.76   2
  26   5  -3 5587.53 1431.20   2
 -31  26  -3 7563.82 1202.68   1
  26   5  -3 3203.22 1413.16   3
  31  -5   0 5694.03 1567.17   3
  26   5   0 6424.43 967.814   4
  31  -5   0 7915.24 1212.40   4
  26   5   0 6682.38 1160.55   2
  31  -5   0 4497.88 1256.45   2
 -26  31   0 6643.66 1220.06   1
 -31  26   0 7027.92 1346.20   1
  26   5   0 9540.80 1760.47   3
 -26  31   3 13135.0 1817.28   1
 -31  26   3 14112.2 1864.72   1
  26   5   3 9348.05 1907.85   3
  31  -5   3 10320.2 1991.34   3
 -27  31  -4 10966.1 1519.66   1
  31  -4  -4 10190.8 1737.19   4
  27   4  -4 9352.09 1553.56   4
  27   4  -4 9535.35 1921.92   2
  31  -4  -4 10820.7 2053.74   2
 -31  27  -4 13479.3 1540.27   1
  31  -4  -1 5420.30 1574.07   3
  31  -4  -1 6444.43 1163.32   4
  27   4  -1 7231.03 1087.07   4
  27   4  -1 5178.57 1178.04   2
  31  -4  -1 6823.88 1303.08   2
 -27  31  -1 8398.77 1328.22   1
 -31  27  -1 7103.66 1268.79   1
  27   4  -1 9720.61 1760.53   3
 -31  27   2 6728.03 1442.74   1
 -27  31   2 7004.04 1384.68   1
  27   4   2 4983.37 1537.29   3
  31  -4   2 3405.35 1469.23   3
 -27  31   5 5752.72 1548.21   1
 -31  27   5 6797.54 1649.79   1
  27   4   5 3834.97 1729.55   3
  31  -4   5 8622.75 2117.95   3
  31  -3  -2 932.700 1145.76   3
  31  -3  -2 2745.84 983.739   4
  28   3  -2 3358.62 948.836   4
  28   3  -2 2013.77 1007.82   2
  31  -3  -2 1505.20 1046.69   2
 -28  31  -2 2337.78 970.938   1
  28   3  -2 81.0297 1185.36   3
 -31  28  -2 3430.37 1073.47   1
  28   3   1 1520.06 666.941   4
  31  -3   1 1812.23 748.645   4
  31  -3   1 2164.91 1008.03   2
 -28  31   1 2425.46 981.780   1
 -31  28   1 785.336 788.182   1
  28   3   1 1357.63 1206.39   3
  31  -3   1 1642.34 1326.39   3
 -28  31   4 8391.99 1636.65   1
 -31  28   4 6803.46 1724.73   1
  28   3   4 6607.16 1884.45   3
  31  -3   4 2371.23 1595.44   3
  31  -2  -3 3786.14 1143.52   4
  29   2  -3 4800.86 1126.12   4
  29   2  -3 3178.51 1380.81   2
  31  -2  -3 6306.63 1616.61   2
 -29  31  -3 2753.96 1014.91   1
 -31  29  -3 6170.36 1211.34   1
 -29  31   0 4436.19 1248.20   1
  31  -2   0 4306.69 939.774   4
  29   2   0 5279.00 961.135   4
  29   2   0 5444.97 1102.43   2
  31  -2   0 3955.07 1089.75   2
 -31  29   0 4722.56 1151.01   1
  29   2   0 8804.76 1895.01   3
  31  -2   0 3545.06 1503.36   3
 -31  29   3 6697.59 1422.82   1
 -29  31   3 7045.43 1450.70   1
  29   2   3 7752.73 1919.41   3
  31  -2   3 7584.98 1859.45   3
  31  -1  -1 12992.6 1543.05   4
  30   1  -1 10990.9 1440.44   4
  30   1  -1 12467.1 1724.60   2
  31  -1  -1 11118.2 1669.82   2
 -30  31  -1 14505.0 1732.07   1
 -31  30  -1 12991.9 1661.58   1
  30   1  -1 13714.7 2087.03   3
  31  -1  -1 11927.1 2105.22   3
 -30  31   2 4269.25 1241.27   1
 -31  30   2 6349.32 1419.92   1
  30   1   2 3224.26 1724.44   3
  31  -1   2 8658.20 1958.87   3
  31   0  -2 3407.81 1123.60   4
  31   0  -2 6046.95 1394.04   2
 -31  31  -2 5712.06 1229.76   1
  31   0   1 277.222 635.482   4
  31   0   1-914.334 954.401   2
 -31  31   1 203.938 835.223   1
  31   0   1-468.974 1515.89   3
  32 -31   0-419.123 1001.83   4
  31 -32   0-1481.02 1024.29   4
   1  31   0 583.699 568.861   1
  -1  32   0 501.174 601.558   1
  -1  32   0-135.096 1481.26   3
   1  31   0 2172.61 1815.34   3
   2  30  -1 1288.52 667.360   1
  -2  32  -1 906.659 667.329   1
  32 -30  -1 1249.62 1014.77   4
  30 -32  -1 3014.90 1192.08   4
  -2  32  -1 1139.78 1288.50   3
   2  30  -1 1450.41 1323.38   3
  32 -30   2 1400.62 964.715   4
  30 -32   2 1451.73 871.525   4
  -2  32   2 2009.04 1448.37   3
   2  30   2 2101.78 1410.97   3
  -2  32   2 1402.94 687.119   1
  32 -29  -2 18390.9 2221.74   4
  29 -32  -2 15468.3 1981.27   4
  -3  32  -2 19773.3 2645.45   3
   3  29  -2 20966.7 2645.07   3
   3  29  -2 18766.7 1594.93   1
  -3  32  -2 17915.5 1630.51   1
  32 -29   1 846.923 887.267   4
  29 -32   1 69.7437 844.518   4
  -3  32   1 352.818 586.440   1
  -3  32   1-1312.97 1320.57   3
   3  29   1 873.344 1198.01   3
  32 -28  -3 6099.28 1661.14   4
  28 -32  -3 3966.03 1425.06   4
   4  28  -3 7810.91 1943.95   3
  -4  32  -3 8210.17 1284.08   1
   4  28  -3 4374.89 959.276   1
  32 -28   0 957.757 922.019   4
  28 -32   0 1188.30 933.019   4
   4  28   0 1469.95 566.904   1
  -4  32   0 2753.86 777.933   1
  -4  32   0 3126.25 1553.00   3
   4  28   0 2905.16 1436.62   3
  32 -28   3 4810.27 1156.83   4
  28 -32   3 4332.95 1043.38   4
  -4  32   3 5411.45 975.833   1
   4  28   3 3152.12 1366.45   3
  32 -27  -4 3218.44 1365.03   4
  27 -32  -4 2905.57 1364.49   4
  32 -27  -4 2886.17 1368.69   2
   5  27  -4 3229.77 1622.15   3
   5  27  -4 4815.61 1100.19   1
  -5  32  -4 2911.30 1003.74   1
   5  27  -1 3017.23 738.036   1
  32 -27  -1 962.413 947.267   4
  -5  32  -1 4044.73 869.767   1
  27 -32  -1 5307.85 1304.15   4
   5  27  -1 1914.96 1308.75   3
  32 -27   2 2725.71 1013.27   4
  27 -32   2 1189.26 891.708   4
  -5  32   2 4235.15 1380.59   3
   5  27   2 2319.09 1284.26   3
  -5  32   2 611.517 580.833   1
  32 -26  -2 5671.87 1436.21   4
  26 -32  -2 10138.4 1628.68   4
  32 -26  -2 8305.58 1503.56   2
   6  26  -2 10457.5 1878.02   3
   6  26  -2 11489.8 1232.38   1
  -6  32  -2 11779.4 1423.20   1
  32 -26   1 3187.15 1087.79   4
  26 -32   1 2042.79 890.279   4
  -6  32   1 4227.90 876.373   1
  -6  32   1 2497.98 1325.03   3
   6  26   1 4831.24 1521.07   3
  32 -26   4 6519.81 1951.81   3
  26 -32   4 9589.32 1244.57   4
  -6  32   4 9086.03 1749.56   3
  -6  32   4 8529.44 1172.00   1
  -7  32  -3 5439.28 1123.24   1
  32 -25  -3 5840.46 1507.07   4
  25 -32  -3 4241.76 1307.99   4
   7  25  -3 3955.30 1077.02   2
  32 -25  -3 3603.77 1441.00   2
   7  25  -3 5820.19 1560.61   3
   7  25  -3 5030.07 1020.78   1
  32 -25   0 5395.82 1246.64   4
  25 -32   0 4417.27 1083.39   4
  -7  32   0 5430.72 973.262   1
  32 -25   0 4218.61 1148.48   2
   7  25   0 6174.12 1498.40   3
   7  25   0 4926.90 728.141   1
  32 -25   3 4998.26 1639.83   3
  32 -25   3 6820.63 1245.92   4
  25 -32   3 4947.03 988.797   4
  -7  32   3 6717.52 1617.88   3
  -7  32   3 6480.63 1070.78   1
   7  25   3 7579.53 1852.45   3
  -8  32  -4 944.242 791.059   1
  32 -24  -4 2751.04 1346.45   4
  24 -32  -4 1151.33 1107.80   4
   8  24  -4 551.854 885.132   2
  32 -24  -4 106.662 1218.28   2
   8  24  -4 2084.50 1358.07   3
   8  24  -4 1895.17 853.015   1
  32 -24  -1 2395.88 1119.83   4
   8  24  -1 2938.12 817.093   2
  -8  32  -1 2894.86 898.654   1
  24 -32  -1 604.353 911.976   4
  32 -24  -1 4226.69 1238.90   2
   8  24  -1 4523.62 1418.19   3
   8  24  -1 1932.50 594.925   1
  32 -24   2 2430.74 1334.87   3
  32 -24   2 790.239 817.145   4
  24 -32   2 932.302 704.792   4
  32 -24   2 1905.08 935.648   2
  -8  32   2 3416.50 1394.63   3
   8  24   2 3314.00 1198.75   3
  -8  32   2 2262.96 787.826   1
  32 -24   5 776.018 1354.65   3
  -8  32   5 2455.41 1224.09   3
   8  24   5 2245.69 1292.46   3
  -8  32   5 1728.92 976.799   1
  32 -23  -5 8014.61 1732.21   4
  23 -32  -5 6985.50 1655.07   4
   9  23  -5 5643.79 1367.49   2
   9  23  -5 7358.62 1302.70   1
  32 -23  -5 8621.58 1920.57   2
   9  23  -5 10086.0 1741.98   3
  -9  32  -5 9323.10 1416.47   1
   9  23  -2 6187.02 1109.32   2
  32 -23  -2 4922.75 1423.71   4
  23 -32  -2 3919.35 1179.34   4
  32 -23  -2 6941.87 1537.79   2
   9  23  -2 8436.71 1646.93   3
   9  23  -2 5058.85 850.253   1
  -9  32  -2 7273.38 1176.53   1
  32 -23   1 6513.20 1650.89   3
  32 -23   1 9902.35 1430.06   4
  23 -32   1 7329.27 1146.94   4
  32 -23   1 10507.1 1401.31   2
  -9  32   1 9167.56 1141.98   1
   9  23   1 11371.7 1896.05   3
  32 -23   4 8555.76 1947.69   3
  -9  32   4 12448.7 1921.78   3
  -9  32   4 11329.2 1453.59   1
 -10  32  -3 4850.93 1016.07   1
  32 -22  -3 2273.14 1208.01   4
  10  22  -3 4886.05 1171.88   2
  22 -32  -3 2906.82 1100.07   4
  32 -22  -3 3519.74 1395.39   2
  10  22  -3 4126.20 881.734   1
  10  22  -3 5368.68 1485.05   3
  32 -22   0 9687.89 1804.91   3
 -10  32   0 16413.3 1507.54   1
  32 -22   0 14417.2 1659.94   4
  22 -32   0 11535.9 1362.64   4
  32 -22   0 14775.4 1753.28   2
  10  22   0 19336.1 2164.67   3
  32 -22   3 2366.97 1428.98   3
  32 -22   3 5214.33 1034.59   2
 -10  32   3 7121.15 1573.67   3
 -10  32   3 6391.65 1110.03   1
  10  22   3 4165.44 1572.14   3
 -11  32  -4-1.21085 750.755   1
  32 -21  -4 486.151 1084.40   4
  11  21  -4 413.792 861.330   2
  21 -32  -4 202.179 952.729   4
  32 -21  -4 142.567 1126.28   2
  11  21  -4-201.463 669.094   1
  11  21  -4 829.272 1111.90   3
  11  21  -1 3540.62 834.656   2
  32 -21  -1 1871.18 882.689   4
  21 -32  -1 1342.78 851.042   4
 -11  32  -1 2814.14 836.094   1
  32 -21  -1 2203.77 1054.92   2
 -32  11  -1 2289.12 822.680   1
  11  21  -1 2675.20 1195.28   3
  11  21  -1 2426.13 572.803   1
  32 -21   2 1141.35 1199.65   3
  32 -21   2-552.131 733.432   4
  32 -21   2 780.721 844.924   2
  11  21   2 359.979 1012.08   3
 -11  32   2 686.920 625.617   1
  32 -21   5 175.689 1329.81   3
 -11  32   5 2273.09 1053.77   3
 -11  32   5 1439.95 904.675   1
  11  21   5-301.533 1248.64   3
 -12  32  -5 4834.34 1142.10   1
  32 -20  -5 6643.53 1683.81   4
  20 -32  -5 5216.23 1461.05   4
  12  20  -5 6028.58 1467.98   2
  32 -20  -5 2333.95 1454.48   2
  12  20  -5 4381.38 1103.57   1
  12  20  -5 7025.04 1554.39   3
 -12  32  -2 9029.46 1254.13   1
 -32  12  -2 8011.66 1157.90   1
  12  20  -2 7995.35 1224.60   2
  32 -20  -2 10583.3 1667.03   4
  32 -20  -2 12756.9 1910.01   2
  20 -32  -2 5589.73 1143.03   4
  12  20  -2 8918.37 1036.58   1
  12  20  -2 10516.2 1783.66   3
 -32  12   1 5471.68 1197.39   1
  32 -20   1 4696.21 1549.36   3
  32 -20   1 4927.01 1096.73   4
  32 -20   1 7425.01 1335.63   2
 -12  32   1 6854.10 1090.09   1
  12  20   1 6279.56 1541.23   3
  32 -20   4 3547.54 1480.90   3
 -12  32   4 2507.68 1026.70   1
 -12  32   4 3921.24 1315.89   3
  12  20   4 3669.89 1452.75   3
  32 -19  -6 18239.8 2675.75   4
  13  19  -6 16856.5 1962.53   1
  13  19  -6 14733.6 2114.95   2
  19 -32  -6 18448.8 2262.08   4
  32 -19  -6 16629.4 2544.46   2
 -13  32  -6 20554.6 1969.33   1
 -13  32  -3 4730.23 1044.00   1
  32 -19  -3 2087.07 1124.72   4
  13  19  -3 2558.11 930.132   2
  19 -32  -3 3183.42 1097.69   4
  32 -19  -3 4926.42 1582.19   2
 -32  13  -3 2426.33 833.098   1
  13  19  -3 3998.17 888.502   1
  13  19  -3 3573.16 1309.58   3
  32 -19   0 23611.4 2474.58   3
  32 -19   0 25036.5 2130.30   4
 -13  32   0 25592.7 1920.47   1
  32 -19   0 27938.0 2269.47   2
  19 -32   0 25014.3 1736.20   4
 -32  13   0 27742.8 2128.38   1
  13  19   0 27642.4 2571.47   3
 -13  32   3 1110.97 786.963   1
  32 -19   3-449.336 1224.18   3
  32 -19   3 1671.47 812.570   2
  13  19   3 168.122 1173.54   3
  32 -19   6 8408.88 2061.71   3
 -13  32   6 11356.6 1752.77   1
 -13  32   6 15999.2 2005.40   3
  13  19   6 15737.9 2464.74   3
 -14  32  -4-357.782 775.279   1
  32 -18  -4 1216.78 1150.21   4
  14  18  -4 546.777 933.162   2
  18 -32  -4 486.158 924.493   4
  32 -18  -4-602.439 1245.34   2
  14  18  -4 778.377 637.796   1
  14  18  -4-876.987 1078.12   3
 -32  14  -1 3463.88 930.685   1
 -14  32  -1 6637.63 1112.33   1
  32 -18  -1 5460.95 1609.98   3
  14  18  -1 6200.17 1037.42   2
  32 -18  -1 5317.26 1165.79   4
  32 -18  -1 5927.46 1336.19   2
  18 -32  -1 3277.54 890.153   4
  14  18  -1 5638.67 1399.80   3
  32 -18   2 875.570 1199.93   3
  32 -18   2 905.439 814.074   4
  32 -18   2 1384.89 811.188   2
  14  18   2 1508.64 1311.80   3
 -32  14   2 1067.21 1002.78   1
 -14  32   2 475.462 687.160   1
  32 -18   5-2065.12 1500.56   3
 -14  32   5 2065.06 1132.73   3
 -14  32   5 1088.77 802.090   1
  14  18   5 741.404 1267.47   3
 -15  32  -5 4790.67 1111.47   1
  32 -17  -5 5807.14 1703.55   4
  15  17  -5 4953.32 1529.94   2
  17 -32  -5 5001.97 1296.11   4
  15  17  -5 4812.99 1140.37   1
  32 -17  -5 6234.79 1859.61   2
  32 -17  -2 2994.65 1211.95   3
  32 -17  -2 1233.47 946.884   4
 -32  15  -2 1536.38 750.666   1
  15  17  -2 3381.78 1000.19   2
 -15  32  -2 957.238 676.751   1
  32 -17  -2 3601.52 1258.37   2
  17 -32  -2 2616.30 876.244   4
  15  17  -2 3244.16 732.723   1
  15  17  -2 3316.56 1153.32   3
  32 -17   1 7756.21 1633.10   3
  32 -17   1 5733.47 1171.81   4
 -32  15   1 10037.3 1515.39   1
  32 -17   1 9627.83 1399.05   2
 -15  32   1 12076.8 1404.43   1
  15  17   1 11279.3 1814.77   3
  32 -17   4 5318.08 1665.34   3
 -15  32   4 1469.18 924.079   1
  15  17   4 5185.40 1565.00   3
 -32  15   4 3183.00 1277.47   1
  16  16  -6 14704.8 1922.70   1
  32 -16  -6 10894.2 2205.34   4
  16  16  -6 17100.1 2314.26   2
  16 -32  -6 10517.8 1714.62   4
  32 -16  -6 14425.8 2404.36   2
 -16  32  -6 16086.3 1764.70   1
 -16  32  -3 1926.58 848.595   1
  32 -16  -3 519.857 897.921   4
  16  16  -3-175.946 897.194   2
  32 -16  -3 951.551 1139.86   2
  16 -32  -3 212.803 824.542   4
  16  16  -3 854.094 643.691   1
 -32  16  -3 1168.90 718.512   1
  16  16  -3 1007.65 1065.34   3
  32 -16   0 33440.3 2811.52   3
  32 -16   0 39265.9 2475.38   4
  32 -16   0 43421.8 2756.23   2
 -16  32   0 46677.9 2572.93   1
 -32  16   0 39619.9 2616.00   1
  16  16   0 50850.9 3336.68   3
  32 -16   3 1737.81 1363.96   3
 -16  32   3-77.9591 759.350   1
 -32  16   3 2657.47 1161.55   1
  16  16   3 1821.26 1354.69   3
  32 -16   6 12592.4 2336.75   3
 -16  32   6 13302.4 1916.78   1
 -16  32   6 10196.8 1698.36   3
  16  16   6 17016.3 2475.74   3
 -17  32  -4 2472.55 939.738   1
  32 -15  -4 2626.17 1242.82   4
 -32  17  -4 1793.46 714.746   1
  17  15  -4 2932.50 1333.34   2
  17  15  -4 3781.14 1023.71   1
  32 -15  -4-91.8071 1324.84   2
  17  15  -4 3669.50 1246.01   3
  32 -15  -1 9884.29 1682.59   3
 -17  32  -1 10748.7 1362.46   1
  17  15  -1 12112.9 1362.26   2
  32 -15  -1 9565.35 1429.62   4
  32 -15  -1 11634.9 1682.64   2
 -32  17  -1 11644.1 1482.92   1
  17  15  -1 12627.8 1804.91   3
  32 -15   2 4369.58 1553.88   3
  32 -15   2 4688.31 1090.42   2
  17  15   2 5206.60 1505.82   3
 -32  17   2 2500.83 1064.48   1
 -17  32   2 2663.32 926.589   1
 -32  17   5 4974.56 1466.76   1
  17  15   5 4117.92 1567.30   3
 -17  32   5 2975.36 1095.58   1
 -32  18  -5 2203.71 709.925   1
 -18  32  -5 2234.92 1032.56   1
  32 -14  -5 3180.89 1424.01   4
  18  14  -5 1116.96 962.313   1
  18  14  -5 1968.53 1233.23   2
  32 -14  -5-78.1682 1295.52   2
  32 -14  -2-148.870 979.620   3
  32 -14  -2 537.655 863.241   4
  18  14  -2-407.122 747.738   2
  32 -14  -2 312.022 977.385   2
 -18  32  -2 677.944 764.035   1
  18  14  -2 163.569 544.243   1
 -32  18  -2-58.7946 662.091   1
  18  14  -2 2759.06 1175.05   3
  32 -14   1 2594.17 1331.10   3
  32 -14   1 3498.71 938.634   4
  32 -14   1 4036.63 1078.48   2
  18  14   1 4418.49 1321.30   3
 -18  32   1 4801.88 1024.87   1
 -32  18   1 3227.36 1053.76   1
  32 -14   4 602.265 1269.90   3
 -18  32   4 1291.53 864.995   1
 -32  18   4-235.826 895.431   1
  19  13  -6 19975.2 2248.77   1
  32 -13  -6 16014.6 2540.98   4
  19  13  -6 19595.5 2576.59   2
  32 -13  -6 20217.0 2774.17   2
 -32  19  -6 17833.9 1520.11   1
 -19  32  -6 18934.6 1916.01   1
  32 -13  -3-776.472 1094.26   3
  32 -13  -3 49.2667 832.255   4
 -19  32  -3 151.140 737.001   1
  19  13  -3 1723.27 924.081   2
 -32  19  -3 465.138 646.772   1
  32 -13  -3 112.489 1021.90   2
  19  13  -3 2400.93 874.901   1
  19  13  -3 437.301 1003.33   3
  32 -13   0 18785.9 2218.70   3
  32 -13   0 22747.6 1892.94   4
  19  13   0 24560.4 1403.37   4
  32 -13   0 28010.5 2214.23   2
 -32  19   0 24192.1 2069.30   1
 -19  32   0 24887.2 1930.80   1
  19  13   0 26992.9 2543.98   3
  32 -13   3 1148.97 1399.70   3
  19  13   3 6155.95 1752.39   3
 -32  19   3 3923.10 1243.90   1
 -19  32   6 17945.0 2314.95   1
 -19  32   6 12561.4 1686.21   3
  19  13   6 15889.6 2475.85   3
 -32  19   6 16359.1 2254.04   1
  32 -13   6 14622.5 2454.48   3
 -32  20  -4 3734.95 925.171   1
 -20  32  -4 4670.64 1126.02   1
  32 -12  -4 2555.83 1226.88   4
  20  12  -4 4901.51 1176.53   1
  20  12  -4 2713.28 1247.56   2
  32 -12  -4 3108.07 1545.16   2
  20  12  -4 5218.65 1371.16   3
  32 -12  -1 4549.78 1439.34   3
  20  12  -1 4405.12 785.462   4
  32 -12  -1 3396.05 1045.30   4
  20  12  -1 5318.21 1074.26   2
  32 -12  -1 3615.98 1024.42   2
 -20  32  -1 5846.84 1064.50   1
 -32  20  -1 5448.46 1140.03   1
  20  12  -1 4525.75 1316.28   3
  32 -12   2 5728.43 1566.55   3
  32 -12   2 8017.80 1328.75   2
 -20  32   2 7722.38 1292.84   1
  20  12   2 6398.14 1517.77   3
 -32  20   2 6235.33 1396.51   1
  32 -12   5 4960.19 1707.44   3
 -20  32   5 8750.22 1608.00   1
 -32  20   5 6805.70 1645.56   1
  20  12   5 6920.77 1764.44   3
 -21  32  -5 3283.33 1026.21   1
  21  11  -5 999.627 917.007   1
  32 -11  -5 528.245 1056.27   4
  21  11  -5 2563.00 1375.23   2
  32 -11  -5 993.501 1461.63   2
 -32  21  -5 1753.97 818.815   1
  32 -11  -2-428.071 1147.26   3
  32 -11  -2 41.4544 798.178   4
  21  11  -2 982.421 633.875   4
  21  11  -2 764.924 838.951   2
  32 -11  -2 758.286 1000.43   2
 -32  21  -2 912.271 768.876   1
 -21  32  -2-308.585 662.266   1
  21  11  -2-607.655 1163.75   3
  32 -11   1 2862.70 1461.94   3
  32 -11   1 2552.73 853.997   4
  32 -11   1 4713.72 1105.49   2
 -32  21   1 4008.94 1060.87   1
  21  11   1 4640.66 1390.25   3
 -21  32   1 4990.35 1099.35   1
 -32  21   4 1407.93 1097.31   1
  32 -11   4-1342.66 1308.32   3
 -21  32   4 406.434 837.692   1
  21  11   4-982.385 1222.41   3
  32 -10  -3 6142.85 1435.70   3
 -32  22  -3 4473.88 965.415   1
  32 -10  -3 5153.25 1392.73   4
  22  10  -3 3655.81 955.646   4
  22  10  -3 4503.95 1061.84   1
  22  10  -3 5174.18 1305.85   2
  32 -10  -3 2657.66 1372.08   2
 -22  32  -3 3711.38 938.340   1
  22  10  -3 5210.18 1352.72   3
 -32  22   0 15369.0 1748.34   1
  22  10   0 13130.3 1157.16   4
  32 -10   0 13844.4 1508.52   4
  32 -10   0 13308.8 1692.27   2
 -22  32   0 17625.0 1719.91   1
  32 -10   0 12153.8 1939.55   3
  32 -10   3 5100.97 1623.60   3
 -32  22   3 4074.85 1256.14   1
 -22  32   3 1536.68 857.312   1
 -23  32  -4 12099.5 1467.38   1
  32  -9  -4 10845.9 1843.75   4
  23   9  -4 10725.3 1510.35   4
  23   9  -4 11719.1 1910.97   2
  32  -9  -4 12965.9 2157.39   2
 -32  23  -4 10409.5 1329.72   1
  32  -9  -1 7250.10 1604.80   3
  23   9  -1 11300.0 1455.38   2
  32  -9  -1 9326.38 1329.51   4
  23   9  -1 8320.49 1051.71   4
  32  -9  -1 7542.88 1452.22   2
 -23  32  -1 8897.20 1370.64   1
  23   9  -1 13175.2 1826.15   3
 -32  23  -1 11136.5 1537.95   1
  32  -9   2 5811.82 1712.91   3
 -32  23   2 5595.12 1462.23   1
 -23  32   2 7507.26 1321.34   1
  23   9   2 5359.32 1534.14   3
 -23  32   5 8663.45 1680.30   1
 -32  23   5 9994.66 1838.47   1
  23   9   5 8090.55 1962.77   3
 -24  32  -5 2121.76 929.190   1
  32  -8  -5 4111.22 1490.34   4
  24   8  -5 1020.43 978.094   4
  24   8  -5 745.101 1260.79   2
  32  -8  -5 3195.59 1612.92   2
 -32  24  -5 4704.65 1033.81   1
  32  -8  -2 2736.15 1243.46   3
 -32  24  -2 1083.94 799.095   1
  32  -8  -2 1196.87 960.527   4
  24   8  -2 1954.90 789.285   4
  24   8  -2 2045.77 1092.57   2
  32  -8  -2 1015.17 971.904   2
 -24  32  -2 448.252 663.850   1
  24   8  -2 3063.02 1337.16   3
  32  -8   1 4459.14 1475.70   3
  24   8   1 2002.83 680.666   4
  32  -8   1 2315.52 861.671   4
  32  -8   1 2322.69 927.920   2
  24   8   1 518.948 1240.69   3
 -32  24   1 2902.63 954.365   1
 -24  32   1 1622.82 900.642   1
  32  -8   4 641.034 1395.18   3
 -32  24   4 1028.23 1061.06   1
 -24  32   4 1648.55 1133.88   1
  24   8   4 364.080 1332.20   3
 -25  32  -3 6939.56 1287.43   1
  32  -7  -3 8478.19 1598.37   4
  25   7  -3 6138.43 1162.58   4
  25   7  -3 7530.15 1527.08   2
  32  -7  -3 5621.23 1480.88   2
  25   7  -3 6624.85 1514.90   3
 -32  25  -3 6041.92 1107.57   1
  32  -7   0 4194.21 1546.27   3
  25   7   0 2674.69 708.666   4
  32  -7   0 1952.45 802.421   4
  25   7   0 3056.21 1000.11   2
  32  -7   0 4764.05 1163.74   2
 -32  25   0 3907.96 1033.91   1
 -25  32   0 3057.67 985.227   1
  25   7   0 4346.97 1518.23   3
  32  -7   3 4908.81 1667.30   3
 -25  32   3 4208.69 1213.35   1
 -32  25   3 2562.21 1201.17   1
  25   7   3 6006.55 1708.82   3
 -26  32  -4 11160.2 1477.07   1
  32  -6  -4 11420.8 1756.04   4
  26   6  -4 11052.0 1567.73   4
  26   6  -4 9271.20 1818.86   2
  32  -6  -4 9781.48 2040.17   2
 -32  26  -4 13299.6 1546.91   1
  32  -6  -1 5037.14 1605.01   3
  32  -6  -1 1233.42 709.411   4
  26   6  -1 3466.94 869.808   4
  26   6  -1 1974.21 1062.99   2
 -32  26  -1 2571.91 933.605   1
  32  -6  -1 2623.31 1012.89   2
 -26  32  -1 3718.05 1009.35   1
  26   6  -1 6313.39 1588.55   3
  32  -6   2 9143.66 1915.62   3
 -32  26   2 12051.4 1689.03   1
 -26  32   2 12287.3 1634.40   1
  26   6   2 11962.1 2029.62   3
  32  -5  -2 2423.91 1456.41   3
 -32  27  -2 1881.20 868.408   1
  32  -5  -2 2264.22 960.248   4
  27   5  -2 1861.14 804.674   4
  27   5  -2 3451.15 1209.00   2
  32  -5  -2 1739.03 1112.45   2
 -27  32  -2 3677.51 985.569   1
  27   5  -2 544.111 1227.62   3
  32  -5   1 3654.27 1556.85   3
 -27  32   1 1947.96 1054.50   1
  27   5   1 2787.18 804.690   4
  32  -5   1 1567.93 715.070   4
  32  -5   1 3227.88 1036.33   2
 -32  27   1 2904.94 1069.69   1
  27   5   1 2506.18 1346.39   3
 -32  27   4 1583.80 1089.66   1
  27   5   4 2085.68 1474.78   3
  32  -5   4 1669.56 1561.21   3
 -27  32   4 2140.91 1109.98   1
  32  -4  -3 5840.05 1333.62   4
  28   4  -3 5978.26 1248.20   4
  28   4  -3 7123.09 1497.92   2
  32  -4  -3 5473.13 1466.45   2
 -28  32  -3 3420.10 980.259   1
 -32  28  -3 6507.58 1169.40   1
  32  -4   0 2724.39 1408.37   3
 -28  32   0 1641.56 881.175   1
  32  -4   0 1228.38 713.046   4
  28   4   0 1362.96 733.766   4
  28   4   0 1431.88 873.015   2
  32  -4   0 1850.10 988.279   2
 -32  28   0 884.768 950.324   1
  28   4   0 947.494 1246.90   3
 -32  28   3 4678.66 1420.27   1
 -28  32   3 5409.35 1383.79   1
  28   4   3 5825.52 1649.32   3
  32  -4   3 3122.82 1703.42   3
  32  -3  -1 1590.15 1447.36   3
 -32  29  -1 925.344 874.021   1
  32  -3  -1 1474.11 862.361   4
  29   3  -1 119.966 694.178   4
  29   3  -1 809.883 892.083   2
  32  -3  -1 833.387 996.772   2
 -29  32  -1 1241.36 790.533   1
  29   3  -1-1443.48 1389.08   3
 -32  29   2 16532.4 1950.69   1
  29   3   2 20937.9 2731.13   3
  32  -3   2 23498.8 2753.06   3
 -29  32   2 19200.8 2090.96   1
  32  -2  -2 1241.63 835.722   4
  30   2  -2 1264.62 843.846   4
  30   2  -2 2526.70 1240.19   2
  32  -2  -2 750.559 1007.67   2
 -30  32  -2 1031.48 824.277   1
  30   2  -2 196.148 1290.39   3
 -32  30  -2 34.3399 769.376   1
  30   2   1 2015.77 828.713   4
  32  -2   1 1074.65 714.257   4
  30   2   1 1880.31 951.156   2
  32  -2   1 957.027 887.720   2
 -30  32   1 2257.53 1064.82   1
 -32  30   1 4405.11 1261.18   1
  30   2   1 2442.92 1554.34   3
  32  -2   1 2348.31 1526.32   3
 -31  32   0 485.967 916.333   1
  32  -1   0 707.903 691.551   4
  31   1   0 105.371 649.817   4
  31   1   0 1180.26 865.709   2
  32  -1   0 615.446 895.239   2
 -32  31   0 676.017 950.142   1
  31   1   0 876.867 1468.36   3
  32  -1   0-211.834 1426.14   3
   4  29  -1 1509.39 665.332   1
  33 -29  -1 1931.93 1082.91   4
  -4  33  -1 2062.09 759.704   1
  29 -33  -1 1846.86 1118.80   4
  -4  33  -1 2087.00 1380.11   3
   4  29  -1 2176.13 1548.08   3
  33 -29   2 1040.97 855.169   4
  29 -33   2 849.428 898.270   4
  -4  33   2 2521.23 1447.09   3
   4  29   2 2970.52 1442.86   3
  -4  33   2 1549.71 662.080   1
   5  28  -2 3385.72 911.164   1
  -5  33  -2 5204.76 1113.19   1
  33 -28  -2 3449.39 1468.62   4
  28 -33  -2 3526.97 1332.05   4
   5  28  -2 5627.91 1622.35   3
  28 -33   1 9236.92 1458.95   4
  33 -28   1 7276.74 1381.13   4
  -5  33   1 9778.85 1174.25   1
   5  28   1 9244.72 1731.46   3
  -6  33  -3 4786.03 1152.13   1
  33 -27  -3 2741.59 1226.74   4
  27 -33  -3 3389.49 1334.78   4
  33 -27  -3 4753.72 1467.78   2
   6  27  -3 7766.36 1843.07   3
   6  27  -3 4635.66 954.837   1
   6  27   0 2465.19 771.380   2
  33 -27   0 1472.71 1004.70   4
  27 -33   0 2633.81 987.816   4
  -6  33   0 3707.35 945.547   1
  -6  33   0 2270.25 1379.34   3
   6  27   0 1296.63 1181.71   3
  -6  33   3 1891.05 757.766   1
  33 -27   3 1837.99 972.557   4
  27 -33   3 1689.24 865.873   4
  -6  33   3 3910.21 1602.84   3
   6  27   3 3684.01 1489.19   3
   7  26  -1 2789.58 708.554   1
  33 -26  -1-11.1588 1028.40   4
   7  26  -1 2748.28 840.763   2
  26 -33  -1 740.872 894.221   4
  -7  33  -1 2022.41 845.722   1
  33 -26  -1 857.429 1064.21   2
   7  26  -1 2311.36 1395.58   3
  33 -26   2 2240.83 933.354   4
  26 -33   2 3033.66 937.668   4
  -7  33   2 4397.57 1463.23   3
   7  26   2 2310.24 1376.38   3
  -7  33   2 3199.80 916.027   1
  -8  33  -2 2043.06 867.028   1
  33 -25  -2 1814.81 1086.67   4
   8  25  -2 1415.89 887.586   2
  25 -33  -2-306.189 961.158   4
  33 -25  -2 1666.39 1110.32   2
   8  25  -2 1610.81 1244.96   3
   8  25  -2 1388.14 665.006   1
  33 -25   1 11568.3 1639.22   4
  25 -33   1 10331.3 1384.60   4
  -8  33   1 12456.0 1382.95   1
  -8  33   1 15904.0 2207.39   3
   8  25   1 13743.0 2027.42   3
  33 -25   4 3062.50 1603.41   3
  -8  33   4 4339.34 1047.43   1
  -8  33   4 6560.76 1667.70   3
   8  25   4 5776.20 1620.38   3
  33 -24  -3 11257.5 1825.79   4
   9  24  -3 8016.21 1418.53   2
  24 -33  -3 5533.83 1394.91   4
  33 -24  -3 4026.80 1465.53   2
   9  24  -3 7533.75 1127.92   1
   9  24  -3 10060.6 1821.05   3
  -9  33  -3 9716.58 1321.72   1
  33 -24   0 1411.33 925.224   4
  24 -33   0 1204.70 869.067   4
  33 -24   0 1996.61 1142.58   2
  -9  33   0 3382.45 868.732   1
   9  24   0 1803.70 1310.56   3
  33 -24   3 6559.57 1711.67   3
  33 -24   3 10272.4 1510.80   4
  -9  33   3 11458.0 1837.01   3
  -9  33   3 7808.80 1228.22   1
 -10  33  -4 988.098 901.351   1
  33 -23  -4 2195.29 1295.91   4
  23 -33  -4-469.073 1005.62   4
  10  23  -4 1490.86 1075.32   2
  33 -23  -4 2421.07 1330.86   2
  10  23  -4 1688.03 878.584   1
  10  23  -4 20.9731 1175.40   3
  33 -23  -1 1251.75 958.036   4
  10  23  -1 112.155 664.732   2
  23 -33  -1 1363.91 905.386   4
 -10  33  -1 949.923 744.149   1
  33 -23  -1 1084.64 1033.84   2
  10  23  -1 2285.42 1255.76   3
  33 -23   2 678.113 1215.61   3
  33 -23   2 458.954 790.652   4
  33 -23   2 978.521 883.304   2
  10  23   2-1047.67 1151.13   3
 -10  33   2 1372.66 728.792   1
 -11  33  -5 5026.51 1190.92   1
  33 -22  -5 6783.31 1793.49   4
  22 -33  -5 1759.72 1154.45   4
  11  22  -5 7583.22 1337.46   1
  11  22  -5 7762.81 1513.47   2
  33 -22  -5 4928.99 1713.90   2
  11  22  -5 7432.44 1672.37   3
 -11  33  -2 6347.64 1100.72   1
  11  22  -2 6610.35 1165.23   2
  33 -22  -2 5524.44 1351.67   4
  22 -33  -2 4778.99 1124.39   4
  33 -22  -2 4607.85 1440.29   2
  11  22  -2 7516.86 991.642   1
  11  22  -2 7274.92 1631.19   3
  33 -22   1 19673.5 2399.34   3
  33 -22   1 20590.9 1997.39   4
  33 -22   1 20538.7 1931.53   2
 -11  33   1 17317.8 1577.74   1
  11  22   1 19751.1 2311.41   3
  33 -22   4 3941.76 1655.51   3
  33 -22   4 6619.00 1184.37   2
 -11  33   4 2980.53 978.583   1
 -11  33   4 2315.73 1192.05   3
  11  22   4 7107.10 1760.07   3
  33 -21  -3 23205.8 2508.00   4
  12  21  -3 23085.2 2055.15   2
  21 -33  -3 20599.7 2060.81   4
  33 -21  -3 23952.4 2643.63   2
  12  21  -3 23800.9 1807.82   1
  12  21  -3 29905.6 2636.04   3
 -12  33  -3 21913.0 1892.17   1
  33 -21   0 5470.24 1484.29   3
  33 -21   0 8713.49 1489.42   4
 -12  33   0 10554.1 1388.74   1
  33 -21   0 7353.72 1377.74   2
  12  21   0 11827.7 1921.83   3
 -33  12   0 9294.03 1364.43   1
  33 -21   3 11433.8 2066.30   3
  33 -21   3 16342.1 1688.37   2
 -12  33   3 15562.7 1634.49   1
  12  21   3 19146.7 2428.89   3
 -13  33  -4 2523.63 889.534   1
  33 -20  -4 2860.34 1316.79   4
  13  20  -4 2463.34 1088.19   2
  20 -33  -4 2894.73 1144.63   4
  33 -20  -4 4187.34 1650.83   2
  13  20  -4 2853.98 952.574   1
  13  20  -4 2507.56 1251.61   3
  33 -20  -1 2623.31 1412.48   3
  13  20  -1 2417.66 774.926   2
  33 -20  -1 4335.05 1285.43   4
  33 -20  -1 3093.30 1222.37   2
 -13  33  -1 3427.85 904.886   1
  13  20  -1 2505.49 1106.22   3
 -33  13  -1 4352.73 1026.66   1
  33 -20   2 5188.06 1542.97   3
  33 -20   2 6363.66 1254.04   4
  33 -20   2 8976.14 1361.13   2
 -13  33   2 7560.28 1276.46   1
  13  20   2 11274.1 1889.09   3
 -33  13   2 4683.91 1201.77   1
  33 -20   5-1738.22 1495.80   3
 -13  33   5 660.056 1021.50   3
 -13  33   5 1004.52 895.646   1
 -14  33  -5 3672.89 1168.03   1
  33 -19  -5 6159.18 1813.20   4
  14  19  -5 5054.43 1433.18   2
  19 -33  -5 4619.09 1405.89   4
  14  19  -5 4431.23 1130.56   1
  33 -19  -5 7559.19 2010.12   2
 -14  33  -2 6121.86 1181.52   1
  33 -19  -2 2941.54 1202.86   4
  14  19  -2 5351.59 1079.69   2
  33 -19  -2 7036.67 1620.09   2
  14  19  -2 5830.85 899.408   1
  14  19  -2 10686.2 1699.99   3
 -33  14  -2 8029.40 1224.90   1
  33 -19   1 3993.42 1451.23   3
  33 -19   1 6031.75 1175.36   4
  33 -19   1 5304.14 1203.04   2
 -33  14   1 9046.18 1466.59   1
 -14  33   1 7002.15 1101.07   1
  14  19   1 6953.17 1532.31   3
  33 -19   4 6247.67 1724.44   3
 -14  33   4 5585.86 1253.16   1
 -14  33   4 5090.61 1356.18   3
  14  19   4 7598.63 1884.92   3
  33 -18  -3 17509.7 2090.70   4
  15  18  -3 17932.4 1886.26   2
  33 -18  -3 14551.5 2198.68   2
 -33  15  -3 14273.8 1489.08   1
  15  18  -3 16582.8 1532.51   1
  15  18  -3 19302.0 2100.40   3
 -15  33  -3 19064.8 1744.24   1
  33 -18   0 3235.08 1360.02   3
  33 -18   0 4276.86 1070.55   4
  33 -18   0 3056.65 1137.97   2
 -15  33   0 3345.53 871.837   1
 -33  15   0 3893.38 1082.05   1
  15  18   0 6237.14 1487.30   3
  33 -18   3 19159.6 1754.36   2
 -33  15   3 23112.6 2337.37   1
 -15  33   3 18671.2 1843.30   1
  15  18   3 21264.7 2509.66   3
 -33  16  -4 7186.40 1144.70   1
  16  17  -4 10335.2 1690.70   2
  33 -17  -4 7331.17 1829.55   4
  16  17  -4 10121.2 1371.07   1
  33 -17  -4 6947.93 1839.66   2
  16  17  -4 9503.95 1614.59   3
 -16  33  -4 10050.4 1417.14   1
  33 -17  -1 749.355 1202.59   3
  33 -17  -1 571.104 925.936   4
  16  17  -1 2499.16 847.126   2
  33 -17  -1 2173.78 1119.89   2
 -16  33  -1 2161.98 1017.68   1
 -33  16  -1 1036.46 753.650   1
  16  17  -1 2200.30 1216.62   3
  33 -17   2 3163.22 1637.45   3
  33 -17   2 5541.23 1145.28   4
  33 -17   2 4186.38 1095.46   2
 -33  16   2 5118.30 1308.08   1
  16  17   2 5671.57 1638.28   3
 -16  33   2 4355.00 1067.48   1
  33 -17   5 799.714 1684.31   3
 -16  33   5 1250.02 1021.42   3
  16  17   5-741.279 1394.52   3
 -16  33   5 1205.14 898.249   1
 -17  33  -5 2449.98 866.693   1
  33 -16  -5-243.355 1191.08   4
  17  16  -5 3576.25 1524.83   2
  17  16  -5 2265.70 1057.29   1
  33 -16  -5 4570.78 1696.22   2
  33 -16  -2 3909.77 1381.75   3
  33 -16  -2 3757.55 1089.53   4
  17  16  -2 4321.31 1013.70   2
 -33  17  -2 6120.61 1121.52   1
 -17  33  -2 5243.38 1053.58   1
  33 -16  -2 3416.39 1278.71   2
  17  16  -2 5997.28 1492.20   3
  33 -16   1-383.013 1167.47   3
  33 -16   1 1209.46 819.548   4
  33 -16   1 1590.04 906.508   2
 -33  17   1 1790.58 988.795   1
 -17  33   1 2025.15 895.463   1
  33 -16   4 8061.21 1848.53   3
 -33  17   4 8362.36 1646.84   1
  17  16   4 9650.24 2026.76   3
 -17  33   4 7192.05 1395.04   1
 -33  18  -3 14412.8 1462.74   1
 -18  33  -3 18382.0 1761.01   1
  33 -15  -3 11300.2 1633.29   3
  33 -15  -3 16080.3 2052.47   4
  18  15  -3 15727.3 1845.47   2
  33 -15  -3 13558.1 2193.22   2
  18  15  -3 16167.6 1484.74   1
  33 -15   0 3989.05 1567.52   3
  33 -15   0 1522.15 786.830   4
  33 -15   0 4033.87 1164.09   2
 -33  18   0 2179.86 991.801   1
 -18  33   0 3183.87 999.106   1
  18  15   0 5723.50 1461.52   3
  33 -15   3 13616.7 2132.16   3
 -33  18   3 16173.7 2019.27   1
  18  15   3 18537.5 2360.97   3
 -18  33   3 14873.2 1728.69   1
 -19  33  -4 3915.50 1012.32   1
 -33  19  -4 4754.94 962.083   1
  33 -14  -4 4266.00 1373.84   4
  19  14  -4 5847.91 1534.00   2
  19  14  -4 7095.18 1254.56   1
  33 -14  -4 6520.39 1734.29   2
  19  14  -4 6079.48 1447.25   3
 -33  19  -1 5397.03 1141.28   1
  33 -14  -1 4083.39 1406.07   3
  19  14  -1 6317.30 1160.47   2
  33 -14  -1 6100.54 1298.91   4
 -19  33  -1 6661.22 1164.80   1
  33 -14  -1 8087.11 1640.61   2
  19  14  -1 10212.2 1841.18   3
 -33  19   2 8206.78 1531.88   1
  33 -14   2 4615.20 1534.60   3
  33 -14   2 8211.14 1291.11   2
 -19  33   2 7188.12 1283.53   1
  33 -14   5 1543.91 1433.41   3
 -33  19   5 4673.14 1525.67   1
  19  14   5 7424.77 1934.18   3
 -19  33   5 5745.02 1395.83   1
 -33  20  -5 432.557 643.275   1
 -20  33  -5 1267.91 944.273   1
  33 -13  -5 1679.04 1327.25   4
  20  13  -5 2677.11 1075.50   1
  20  13  -5 1675.30 1410.08   2
  33 -13  -5 1888.73 1680.52   2
  33 -13  -2 4465.35 1351.83   3
 -20  33  -2 7131.50 1175.28   1
  33 -13  -2 5824.73 1304.58   4
  33 -13  -2 9602.45 1761.75   2
  20  13  -2 5791.95 1234.99   2
 -33  20  -2 6867.46 1134.46   1
  20  13  -2 7459.62 1590.59   3
  33 -13   1 2703.04 1496.93   3
  20  13   1 2855.37 647.407   4
  33 -13   1 2713.89 904.879   4
  33 -13   1 2862.48 998.478   2
 -33  20   1 2862.05 1022.33   1
 -20  33   1 4123.48 991.858   1
  33 -13   4-2472.26 1468.40   3
 -33  20   4 1213.92 969.064   1
 -20  33   4 1415.59 977.153   1
  20  13   4-1322.78 1417.95   3
 -21  33  -3 12423.1 1554.79   1
  33 -12  -3 7738.39 1628.86   3
  33 -12  -3 11250.4 1707.98   4
  21  12  -3 11933.3 1749.91   2
  33 -12  -3 14980.4 2138.20   2
 -33  21  -3 13093.1 1488.70   1
  33 -12   0 7012.01 1744.40   3
  33 -12   0 7892.45 1218.40   4
  21  12   0 6464.32 835.238   4
  33 -12   0 9444.56 1565.80   2
 -33  21   0 9520.35 1450.21   1
 -21  33   0 7945.10 1283.85   1
  21  12   0 7266.15 1649.68   3
 -33  21   3 26786.2 2542.67   1
  21  12   3 26267.8 2815.51   3
 -21  33   3 27431.3 2335.41   1
  33 -12   3 19801.2 2507.65   3
 -33  22  -4 3034.15 928.290   1
  33 -11  -4 2565.78 1199.21   4
  22  11  -4 3363.60 1205.70   1
 -22  33  -4 2125.21 940.504   1
  22  11  -4 5390.02 1504.23   2
  33 -11  -4 3035.08 1446.10   2
  33 -11  -1 19000.8 2353.67   3
 -33  22  -1 17297.9 1832.53   1
  22  11  -1 16896.2 1722.75   2
  33 -11  -1 18890.7 1805.30   4
  22  11  -1 14417.9 1288.22   4
  33 -11  -1 14727.5 1900.71   2
 -22  33  -1 18528.0 1791.65   1
  22  11  -1 19471.6 2288.39   3
  33 -11   2 3311.85 1397.61   3
 -22  33   2 4896.32 1175.80   1
  33 -11   2 2712.16 967.648   2
 -33  22   2 4214.46 1310.30   1
  22  11   2 6088.55 1761.70   3
 -22  33   5 5928.33 1490.15   1
  33 -11   5 4902.23 1830.79   3
 -33  22   5 3989.74 1410.11   1
  22  11   5 2838.57 1501.38   3
  33 -10  -2 1341.11 1182.13   3
  33 -10  -2-509.244 825.188   4
  23  10  -2 1793.52 757.568   4
  23  10  -2 1151.87 1004.55   2
 -33  23  -2 679.894 716.341   1
  33 -10  -2-544.594 994.747   2
 -23  33  -2 1233.94 693.800   1
  23  10  -2 598.120 1054.91   3
 -33  23   1 2593.95 1051.63   1
  23  10   1 1706.07 625.383   4
  33 -10   1 910.424 743.247   4
  33 -10   1 1036.12 848.212   2
  23  10   1-61.9866 1265.52   3
 -23  33   1 617.692 737.646   1
  33 -10   4-33.8067 1383.51   3
 -23  33   4 1724.04 1137.75   1
 -33  23   4 1923.96 1118.71   1
  23  10   4 4127.33 1569.59   3
 -24  33  -3 12342.4 1537.12   1
  33  -9  -3 9362.35 1593.95   4
  24   9  -3 9137.01 1680.96   2
  24   9  -3 9386.65 1303.79   4
  33  -9  -3 9227.41 1818.26   2
 -33  24  -3 10414.3 1403.67   1
  24   9  -3 10430.2 1735.62   3
  33  -9   0 1850.35 1471.84   3
  33  -9   0 2201.64 843.163   4
  24   9   0 2234.78 661.731   4
  24   9   0 2195.36 982.655   2
  33  -9   0 3411.91 1093.21   2
 -33  24   0 2417.57 978.981   1
 -24  33   0 3329.57 948.005   1
  24   9   0 3035.44 1357.10   3
  33  -9   3 9897.18 2038.79   3
 -33  24   3 9578.04 1668.25   1
  24   9   3 13354.9 2276.25   3
 -24  33   3 8226.06 1561.48   1
  33  -8  -4 3430.40 1407.21   4
  25   8  -4 3429.25 1215.87   4
  25   8  -4 4229.25 1393.78   2
  33  -8  -4 4604.33 1668.95   2
 -25  33  -4 3552.12 1044.59   1
 -33  25  -4 4640.68 1107.22   1
  33  -8  -1 10276.2 1975.11   3
  25   8  -1 12943.0 1590.83   2
  33  -8  -1 12258.8 1529.78   4
  25   8  -1 11471.1 1249.74   4
  33  -8  -1 12997.2 1837.93   2
 -25  33  -1 15559.9 1713.12   1
  25   8  -1 11009.1 1842.23   3
 -33  25  -1 12064.9 1544.17   1
  33  -8   2 1548.60 1378.96   3
 -25  33   2 884.578 861.504   1
 -33  25   2 2313.72 1155.20   1
  25   8   2 2970.28 1661.77   3
  33  -7  -2 3938.81 1513.27   3
 -33  26  -2 2497.68 944.925   1
  33  -7  -2 2746.89 991.178   4
  26   7  -2 2399.40 846.027   4
  26   7  -2 3760.15 1224.17   2
  33  -7  -2 2113.01 1073.16   2
 -26  33  -2 2555.58 864.914   1
  26   7  -2 2449.36 1379.39   3
  33  -7   1 4122.52 1536.97   3
 -26  33   1 1213.98 837.364   1
  26   7   1 457.015 527.497   4
  33  -7   1 27.4404 717.195   4
  33  -7   1-180.232 826.382   2
 -33  26   1 997.137 988.943   1
  26   7   1 5264.66 1589.67   3
  33  -6  -3 3340.80 1243.12   4
  27   6  -3 1181.65 803.291   4
  27   6  -3 3267.53 1299.17   2
  33  -6  -3 1447.76 1239.96   2
 -27  33  -3 2367.74 905.430   1
 -33  27  -3 1948.30 949.625   1
  33  -6   0 3751.77 1524.06   3
  33  -6   0 1890.72 867.342   4
  27   6   0 2724.33 772.748   4
  27   6   0 2948.75 1020.34   2
  33  -6   0 2303.23 1035.18   2
 -33  27   0 1685.95 937.083   1
  27   6   0 2639.69 1444.63   3
 -27  33   0 1372.35 978.646   1
  33  -6   3 4546.26 1688.91   3
 -33  27   3 3649.87 1305.03   1
 -27  33   3 5063.12 1346.92   1
  27   6   3 3723.95 1838.22   3
  33  -5  -1 6499.52 1789.31   3
  28   5  -1 9241.38 1562.06   2
  33  -5  -1 7679.86 1322.70   4
  28   5  -1 6535.16 1074.70   4
  33  -5  -1 8844.69 1635.16   2
 -28  33  -1 6792.14 1272.63   1
 -33  28  -1 10398.0 1578.22   1
  28   5  -1 7317.08 1744.85   3
  33  -5   2 4885.54 1891.95   3
 -33  28   2 5553.72 1337.26   1
 -28  33   2 3221.57 1206.74   1
  28   5   2 2731.22 1629.65   3
 -33  29  -2 1656.75 930.713   1
  33  -4  -2 2513.32 996.498   4
  29   4  -2 2535.36 929.565   4
  29   4  -2 1343.04 1016.77   2
  33  -4  -2 2694.90 1243.25   2
 -29  33  -2 1573.33 900.398   1
  29   4  -2 3575.36 1518.22   3
  33  -4   1-1402.33 1440.11   3
  29   4   1 387.371 605.162   4
  33  -4   1 3211.41 953.271   4
  33  -4   1 526.664 849.861   2
 -29  33   1 3649.28 1191.00   1
 -33  29   1 852.433 912.253   1
  29   4   1-163.624 1301.72   3
  34 -28  -1-1214.26 1203.53   4
  28 -34  -1 2116.57 1098.76   4
  -6  34  -1 248.707 725.283   1
  -6  34  -1 1702.55 1506.13   3
   6  28  -1 1190.34 1448.70   3
  34 -27  -2 8944.81 1727.06   4
  27 -34  -2 6856.25 1521.93   4
   7  27  -2 12630.7 2140.53   3
   7  27  -2 10766.7 1202.33   1
  -7  34  -2 11869.0 1440.57   1
  34 -27   1 5240.01 1403.87   4
  27 -34   1 3861.43 1068.50   4
  -7  34   1 6814.13 1060.77   1
  -7  34   1 6497.18 1782.25   3
   7  27   1 8175.31 1901.23   3
  -8  34   0 6403.03 1124.64   1
   8  26   0 3943.04 863.617   2
  34 -26   0 5667.11 1345.21   4
  26 -34   0 4566.31 1115.57   4
   8  26   0 5753.19 1548.39   3
  34 -25  -1 1158.52 1129.49   4
   9  25  -1 1369.74 722.715   2
  25 -34  -1 2123.00 1128.95   4
  -9  34  -1 2146.24 888.647   1
  34 -25  -1 2288.51 1222.36   2
   9  25  -1 3605.36 1433.27   3
  34 -25   2 2535.85 1485.88   3
  34 -25   2 1518.93 961.931   4
  -9  34   2 1613.01 1452.82   3
   9  25   2 3942.96 1445.17   3
  -9  34   2 2715.74 856.230   1
 -10  34  -2 16994.8 1686.78   1
  10  24  -2 16626.1 1673.28   2
  34 -24  -2 16344.3 2116.32   4
  24 -34  -2 9803.77 1553.46   4
  34 -24  -2 11552.1 1932.16   2
  10  24  -2 18066.1 2284.24   3
  34 -24   1 3588.20 1412.07   3
  34 -24   1 2578.14 1046.85   4
  34 -24   1 2307.54 1063.74   2
 -10  34   1 3543.91 923.460   1
  10  24   1 4197.11 1479.18   3
  34 -23  -3 10915.8 1922.08   4
  11  23  -3 9520.55 1487.61   2
  23 -34  -3 4805.11 1318.51   4
  34 -23  -3 9662.71 1978.73   2
  11  23  -3 6480.65 1066.82   1
  11  23  -3 8253.24 1847.22   3
 -11  34  -3 8043.39 1248.34   1
  11  23   0 6734.34 1083.45   2
 -11  34   0 5962.42 1110.90   1
  34 -23   0 4886.00 1231.67   4
  34 -23   0 7340.86 1453.18   2
  11  23   0 8090.14 1760.12   3
  34 -23   3 5729.72 1841.22   3
  34 -23   3 6176.55 1402.12   4
  34 -23   3 8090.38 1291.57   2
 -11  34   3 9476.26 1884.49   3
 -11  34   3 8810.47 1322.75   1
  11  23   3 9415.34 1938.11   3
 -12  34  -4 1593.65 813.199   1
  34 -22  -4 2138.93 1354.32   4
  12  22  -4 3426.31 1134.66   2
  22 -34  -4 555.718 1061.53   4
  34 -22  -4 1589.73 1386.96   2
  12  22  -4 1067.77 724.575   1
  12  22  -4 2727.03 1429.33   3
  34 -22  -1-196.006 823.638   4
  12  22  -1 567.258 657.626   2
 -12  34  -1 510.850 794.445   1
  34 -22  -1 1689.92 1217.16   2
  12  22  -1 2524.18 1260.22   3
 -34  12  -1 1827.34 902.445   1
  34 -22   2 2298.91 1560.22   3
  34 -22   2 2484.56 957.955   4
  34 -22   2 2266.84 1003.99   2
 -12  34   2 4121.81 944.364   1
 -13  34  -2 16330.1 1686.88   1
  13  21  -2 14323.8 1587.84   2
  34 -21  -2 10807.7 1754.09   4
  34 -21  -2 12136.4 2003.77   2
  13  21  -2 16191.1 2122.87   3
  34 -21   1 1687.37 1323.65   3
  34 -21   1 1151.08 892.583   4
  34 -21   1 1257.85 972.955   2
 -34  13   1-140.190 825.752   1
 -13  34   1-301.331 679.619   1
  13  21   1 22.6497 1129.64   3
  34 -21   4 4059.68 1892.65   3
  34 -21   4 4423.88 1086.79   2
 -13  34   4 5775.59 1207.63   1
 -13  34   4 5603.53 1511.88   3
  13  21   4 7482.20 1919.87   3
  34 -20  -3 14882.7 2045.51   4
  14  20  -3 12784.9 1682.84   2
  34 -20  -3 13392.3 2129.62   2
  14  20  -3 10488.1 1258.72   1
  14  20  -3 14080.4 1932.81   3
 -14  34  -3 10999.5 1465.32   1
  34 -20   0 6270.96 1665.18   3
  34 -20   0 7684.32 1312.84   4
 -14  34   0 8857.49 1284.67   1
 -34  14   0 7450.67 1294.57   1
  34 -20   0 7611.83 1420.13   2
  14  20   0 10910.2 1847.32   3
  34 -20   3 14019.1 1603.28   2
 -14  34   3 15758.0 1740.52   1
  14  20   3 13107.3 2079.07   3
  15  19  -4 11119.3 1837.39   2
  34 -19  -4 10149.8 2016.83   4
  15  19  -4 10213.2 1379.96   1
  34 -19  -4 9644.11 2080.77   2
  15  19  -4 11450.2 1779.99   3
 -15  34  -4 10026.2 1479.61   1
  34 -19  -1 2097.65 1317.54   3
  34 -19  -1 713.968 852.884   4
  15  19  -1 2793.19 855.614   2
  34 -19  -1 2169.69 1154.46   2
 -15  34  -1 1435.47 871.355   1
 -34  15  -1 1819.05 928.291   1
  15  19  -1 3165.57 1288.75   3
 -34  15   2 6843.90 1431.48   1
  34 -19   2 4752.85 1762.06   3
  34 -19   2 4089.50 1056.78   4
  34 -19   2 3889.46 1095.30   2
 -15  34   2 7369.84 1251.08   1
  15  19   2 4490.63 1493.17   3
 -16  34  -2 9392.20 1348.62   1
  34 -18  -2 4278.69 1492.49   3
  34 -18  -2 6928.20 1550.69   4
  16  18  -2 7274.16 1198.36   2
  34 -18  -2 9571.93 1853.65   2
 -34  16  -2 6853.04 1164.19   1
  16  18  -2 5527.93 1348.22   3
 -34  16   1 1556.08 1045.58   1
  34 -18   1 2777.17 1416.81   3
  34 -18   1 2212.74 873.760   4
  34 -18   1 1246.64 929.648   2
 -16  34   1 2260.85 911.656   1
  16  18   1 1040.14 1154.77   3
  34 -18   4 9423.55 2058.76   3
  16  18   4 15506.7 2341.71   3
 -16  34   4 12902.5 1701.00   1
 -17  34  -3 11897.5 1477.11   1
 -34  17  -3 10076.8 1334.83   1
  17  17  -3 13337.6 1776.54   2
  34 -17  -3 8086.71 1556.17   4
  34 -17  -3 12327.3 2086.33   2
  17  17  -3 14792.9 1993.51   3
  34 -17   0 5436.17 1680.39   3
  34 -17   0 9915.57 1477.55   4
  34 -17   0 9008.40 1641.31   2
 -17  34   0 11269.3 1405.18   1
  17  17   0 12605.1 1957.10   3
 -34  17   0 11864.8 1638.69   1
  34 -17   3 8931.22 2020.10   3
  34 -17   3 8969.52 1433.29   2
 -17  34   3 10378.1 1506.79   1
  17  17   3 9798.79 1952.37   3
 -34  17   3 9349.59 1730.15   1
 -34  18  -4 11795.8 1406.29   1
  34 -16  -4 12872.4 2019.67   4
  18  16  -4 13044.3 1894.61   2
  18  16  -4 11936.4 1519.69   1
  34 -16  -4 14679.7 2286.39   2
 -18  34  -4 14515.0 1687.33   1
  34 -16  -1-272.900 1070.00   3
  34 -16  -1 346.684 804.431   4
  18  16  -1 1865.11 903.734   2
  34 -16  -1 4573.14 1329.97   2
 -34  18  -1 2583.85 1001.40   1
 -18  34  -1 2379.88 868.068   1
  18  16  -1 3354.22 1332.28   3
 -34  18   2 6017.56 1432.61   1
  34 -16   2 8086.09 1818.00   3
  34 -16   2 7154.98 1294.33   4
  34 -16   2 6271.29 1278.16   2
 -18  34   2 9170.59 1412.75   1
  18  16   2 10168.3 1920.41   3
  34 -15  -2 2504.73 1376.68   3
  34 -15  -2 4031.84 1129.21   4
  19  15  -2 2101.09 947.483   2
  34 -15  -2 5521.00 1564.87   2
 -19  34  -2 4753.08 1084.87   1
  19  15  -2 4730.58 1497.38   3
 -34  19  -2 6145.65 1179.69   1
  34 -15   1 2251.90 1352.50   3
  34 -15   1 1047.10 755.515   4
 -34  19   1 1851.31 1023.48   1
  34 -15   1 4263.27 1160.78   2
  19  15   1 767.652 1311.23   3
 -19  34   1 2110.67 838.562   1
 -19  34   4 11358.9 1704.00   1
  19  15   4 9424.88 1971.79   3
 -34  19   4 8095.82 1558.52   1
 -20  34  -3 15003.5 1674.36   1
  34 -14  -3 12365.9 1896.08   4
  20  14  -3 12927.7 1755.65   2
  34 -14  -3 17521.2 2398.32   2
  20  14  -3 18114.4 2102.51   3
 -34  20  -3 12661.1 1465.84   1
  34 -14   0 3582.25 1655.87   3
  34 -14   0 8380.61 1457.16   2
  34 -14   0 4921.22 1153.21   4
 -20  34   0 8602.56 1322.45   1
 -34  20   0 7805.11 1428.22   1
  20  14   0 6779.15 1584.92   3
  34 -14   3 5846.58 1798.46   3
 -34  20   3 9904.89 1736.43   1
  20  14   3 11993.2 2138.06   3
 -20  34   3 9460.64 1556.31   1
 -34  21  -4 5695.13 1085.01   1
  34 -13  -4 5306.65 1714.71   4
 -21  34  -4 4331.64 1152.76   1
  21  13  -4 4918.62 1354.89   2
  34 -13  -4 3105.65 1448.08   2
  34 -13  -1-83.7339 1163.11   3
  34 -13  -1-225.237 792.654   4
  21  13  -1-523.768 829.424   2
  34 -13  -1-50.2554 976.311   2
 -21  34  -1 242.025 713.264   1
  21  13  -1-103.366 1239.57   3
 -34  21  -1-655.868 841.405   1
  34 -13   2 13396.3 2278.11   3
  34 -13   2 14046.2 1626.32   4
  34 -13   2 14834.9 1708.32   2
 -21  34   2 10385.1 1554.50   1
  21  13   2 12956.8 2198.42   3
 -34  21   2 13547.9 1880.88   1
 -34  22  -2 6213.44 1206.15   1
  34 -12  -2 3228.11 1183.15   4
  22  12  -2 3475.73 1141.89   2
  34 -12  -2 3471.56 1384.93   2
 -22  34  -2 3554.00 1049.75   1
  22  12  -2 2708.29 1268.85   3
  34 -12   1 2110.21 1562.01   3
  22  12   1 921.951 493.851   4
  34 -12   1 2171.68 898.369   4
  34 -12   1 763.874 851.523   2
 -34  22   1 743.191 1018.25   1
  22  12   1 3341.65 1495.99   3
 -22  34   1 1108.31 902.692   1
  34 -12   4 1868.10 1552.90   3
 -34  22   4 29.0799 1152.31   1
 -22  34   4-1160.49 1046.14   1
  22  12   4 1651.82 1367.80   3
 -23  34  -3 7990.32 1327.47   1
  34 -11  -3 7496.74 1731.19   4
  23  11  -3 6785.56 1436.75   2
  34 -11  -3 4917.79 1581.04   2
 -34  23  -3 8248.34 1350.17   1
  23  11  -3 6341.26 1550.14   3
 -34  23   0 6594.20 1288.84   1
  34 -11   0 5448.50 1642.40   3
  34 -11   0 3380.46 979.785   4
  23  11   0 5403.62 1137.97   2
  23  11   0 3484.88 742.977   4
  34 -11   0 3899.92 1281.14   2
 -23  34   0 5818.58 1178.31   1
  23  11   0 7264.29 1688.32   3
  34 -11   3 5952.79 1804.18   3
 -34  23   3 8410.39 1725.88   1
  23  11   3 6915.72 1826.68   3
 -23  34   3 8110.83 1563.54   1
  34 -10  -1 1500.90 1424.81   3
  34 -10  -1 2032.23 1040.24   4
  24  10  -1 3693.38 850.123   4
  24  10  -1 435.269 773.278   2
  34 -10  -1 2407.72 1083.39   2
 -34  24  -1 4857.81 1204.75   1
 -24  34  -1 4821.31 1165.77   1
  24  10  -1 4847.66 1640.33   3
  34 -10   2 15973.2 1697.08   4
  34 -10   2 12479.9 1750.66   2
 -34  24   2 14538.6 1982.94   1
 -24  34   2 19553.6 2048.69   1
  24  10   2 16648.6 2342.07   3
  34 -10   2 15654.2 2391.35   3
  34  -9  -2 824.876 1230.64   3
  34  -9  -2 2401.18 1017.10   4
  25   9  -2 2167.58 854.221   4
  25   9  -2 3865.68 1153.72   2
 -34  25  -2 2248.13 887.989   1
  34  -9  -2 2455.81 1287.12   2
 -25  34  -2 2349.70 962.262   1
  25   9  -2 5214.09 1517.41   3
 -25  34   1 4159.04 1107.59   1
  34  -9   1 1331.29 1266.64   3
 -34  25   1 2202.96 1068.17   1
  25   9   1 116.698 529.306   4
  34  -9   1 3317.61 979.804   4
  34  -9   1 3112.47 1064.63   2
  25   9   1 2796.07 1589.16   3
  34  -8   0 4030.19 1635.71   3
  34  -8   0 3098.70 957.266   4
  26   8   0 4330.64 874.770   4
  26   8   0 3986.19 1123.88   2
  34  -8   0 3836.30 1158.09   2
 -34  26   0 4357.85 1215.78   1
  26   8   0 1978.26 1436.01   3
 -26  34   0 4280.38 1279.30   1
  34  -7  -1 5191.78 1677.89   3
  34  -7  -1 6858.88 1259.65   4
  27   7  -1 7131.83 1130.54   4
  27   7  -1 6577.23 1373.95   2
  34  -7  -1 8173.48 1554.50   2
 -34  27  -1 4311.94 1158.69   1
 -27  34  -1 5881.77 1171.50   1
  27   7  -1 6471.80 1745.24   3
  34  -7   2 7108.86 2012.38   3
  34  -7   2 9217.67 1377.78   4
  34  -7   2 10858.4 1637.55   2
 -34  27   2 8775.03 1627.75   1
 -27  34   2 11394.5 1769.26   1
  27   7   2 5861.25 1771.31   3
  34  -6   1 1834.06 1438.40   3
 -28  34   1 1595.56 1162.00   1
  28   6   1 1577.60 761.809   4
  34  -6   1 1377.85 829.327   4
  34  -6   1 553.071 954.007   2
 -34  28   1 674.324 968.435   1
  28   6   1 1184.51 1373.90   3
  35 -26   1 4265.44 1198.26   4
  -9  35   1 3967.29 1736.15   3
   9  26   1 4319.52 1499.49   3
  10  25   0 3144.30 859.188   2
  35 -25   0 1898.69 1123.14   4
  35 -25   0 4072.53 1327.46   2
 -10  35   0 2499.43 868.621   1
  35 -24  -1 2147.91 1115.35   4
  11  24  -1 1600.66 800.558   2
 -11  35  -1 2047.95 890.219   1
  35 -24  -1 1581.47 1356.40   2
  11  24  -1 2403.77 1522.89   3
  35 -24   2 1456.52 1381.97   3
  35 -24   2 64.5022 774.337   4
 -11  35   2-28.6676 1196.95   3
  11  24   2 1806.97 1519.01   3
 -11  35   2 605.915 748.445   1
  35 -23  -2 1940.38 1237.68   4
  12  23  -2 2731.81 954.537   2
 -12  35  -2 3074.80 976.702   1
  35 -23  -2 2632.97 1425.23   2
  12  23  -2 5175.50 1656.88   3
  35 -23   1 16108.4 1885.30   4
  35 -23   1 18124.7 1974.51   2
 -12  35   1 18614.3 1745.59   1
 -13  35  -3 1682.21 911.111   1
  35 -22  -3-403.184 1114.44   4
  13  22  -3 959.360 1047.64   2
  35 -22  -3 2160.86 1483.08   2
  13  22  -3 1769.43 1295.65   3
  35 -22   0 8201.61 1855.91   3
  13  22   0 12763.0 1372.47   2
  35 -22   0 13247.9 1779.86   4
 -13  35   0 14189.7 1552.16   1
  35 -22   0 14329.2 1886.19   2
 -35  13   0 14261.8 1701.90   1
  13  22   0 19191.4 2342.75   3
  35 -22   3 1588.61 1551.51   3
 -13  35   3 1975.89 912.810   1
  35 -22   3 1683.05 1043.07   4
  35 -22   3-102.441 945.597   2
 -13  35   3 2071.66 1287.70   3
  13  22   3 2910.82 1643.17   3
  35 -21  -1 2089.54 1248.76   3
 -35  14  -1 5392.31 1228.28   1
  35 -21  -1 4459.52 1314.40   4
  14  21  -1 6351.40 1109.83   2
  35 -21  -1 7394.29 1689.50   2
 -14  35  -1 5866.64 1176.12   1
  14  21  -1 6835.99 1584.77   3
  35 -21   2-464.762 1291.40   3
  35 -21   2-628.232 780.408   4
  35 -21   2-186.670 921.831   2
  14  21   2 1200.30 1483.72   3
 -14  35   2 388.580 762.043   1
  35 -20  -2-902.961 1176.43   4
  15  20  -2-558.525 793.058   2
 -15  35  -2 75.5522 654.527   1
  35 -20  -2 1646.76 1366.23   2
  15  20  -2-123.675 1192.86   3
  35 -20   1 9663.51 2096.62   3
  35 -20   1 6550.59 1310.73   4
  35 -20   1 8006.63 1486.61   2
 -15  35   1 10320.8 1427.93   1
  15  20   1 7547.35 1662.66   3
 -35  15   1 11099.7 1687.84   1
  35 -19  -3 1327.43 1130.87   4
 -16  35  -3 753.586 743.449   1
  16  19  -3 537.509 905.297   2
  35 -19  -3-360.792 1418.15   2
  16  19  -3 1417.57 1218.72   3
  35 -19   0 14372.5 2185.68   3
  16  19   0 16381.7 1591.72   2
  35 -19   0 13440.8 1708.14   4
 -35  16   0 19947.6 2005.79   1
  35 -19   0 18715.0 2234.10   2
 -16  35   0 16243.1 1682.14   1
  16  19   0 20356.8 2388.86   3
  35 -19   3 322.641 1327.19   3
 -16  35   3-868.959 871.598   1
  35 -19   3 1130.33 867.925   2
  16  19   3 2757.52 1476.11   3
 -35  16   3 2004.61 1090.82   1
  17  18  -1 7834.54 1201.74   2
  35 -18  -1 9944.78 1569.47   4
  35 -18  -1 8702.61 1679.42   2
 -17  35  -1 5841.54 1173.79   1
  17  18  -1 6669.23 1562.78   3
 -35  17  -1 8667.45 1728.29   1
  35 -18   2 2357.53 1481.47   3
  35 -18   2 1701.25 977.962   4
  35 -18   2 854.745 910.901   2
 -35  17   2 866.905 1089.24   1
  17  18   2 1965.90 1295.79   3
 -17  35   2 541.180 732.830   1
  35 -17  -2 1513.88 1306.97   3
  35 -17  -2-122.376 900.794   4
 -35  18  -2 889.179 867.915   1
  18  17  -2-840.029 898.719   2
  35 -17  -2 1948.96 1239.37   2
 -18  35  -2 804.014 849.561   1
  18  17  -2 350.574 1107.92   3
  35 -17   1 2642.65 1478.13   3
  35 -17   1 3608.11 1088.47   4
  35 -17   1 5703.62 1303.94   2
  18  17   1 7217.22 1703.44   3
 -18  35   1 2998.41 943.865   1
 -35  18   1 4832.81 1250.93   1
  35 -16  -3-671.150 1091.85   4
  19  16  -3 1123.74 1209.91   2
 -19  35  -3 805.903 963.625   1
  35 -16  -3 520.031 1314.16   2
  19  16  -3 455.802 1150.47   3
 -35  19  -3 452.119 743.647   1
  35 -16   0 9748.06 2004.08   3
  19  16   0 15336.6 1525.74   2
  35 -16   0 11695.2 1640.11   4
  35 -16   0 17535.1 2069.16   2
 -19  35   0 17243.9 1746.95   1
 -35  19   0 15540.9 1878.43   1
  19  16   0 15994.3 2280.57   3
  35 -16   3 836.291 1516.79   3
  35 -16   3 726.527 906.381   2
 -19  35   3 905.062 892.275   1
 -35  19   3 824.404 1053.59   1
  19  16   3 1101.06 1480.03   3
  35 -15  -1 6869.46 1746.87   3
  20  15  -1 10138.4 1512.46   2
  35 -15  -1 10320.7 1584.81   4
  35 -15  -1 11784.1 1773.32   2
 -20  35  -1 12014.8 1525.38   1
 -35  20  -1 10962.0 1606.89   1
  20  15  -1 12408.6 2058.75   3
 -20  35   2 382.165 789.643   1
  35 -15   2 1366.13 1368.07   3
  35 -15   2 211.184 712.301   4
  35 -15   2-1069.21 1009.15   2
 -35  20   2-105.473 920.621   1
  20  15   2 438.085 1192.01   3
  35 -14  -2 304.658 1230.66   3
  35 -14  -2 480.093 921.197   4
  21  14  -2 1400.51 928.493   2
  35 -14  -2-427.837 1132.91   2
 -21  35  -2 1254.56 814.767   1
 -35  21  -2 323.704 802.222   1
  21  14  -2-235.158 1234.60   3
  35 -14   1 4533.86 1617.09   3
  35 -14   1 7387.43 1397.67   2
  35 -14   1 5487.52 1149.57   4
 -21  35   1 6579.87 1227.54   1
  21  14   1 5600.39 1674.95   3
 -35  21   1 7257.69 1470.55   1
  35 -13  -3 3393.00 1272.98   4
  22  13  -3 659.600 993.324   2
  35 -13  -3 3102.19 1489.60   2
 -22  35  -3 1819.77 1040.21   1
 -35  22  -3 1828.43 861.523   1
  22  13  -3 377.120 1153.69   3
  35 -13   0 10890.5 2014.83   3
  22  13   0 15485.4 1610.59   2
  35 -13   0 8838.65 1408.23   4
  35 -13   0 11987.1 1792.99   2
 -35  22   0 13688.3 1819.04   1
 -22  35   0 14771.7 1731.69   1
  22  13   0 12755.4 2120.06   3
  35 -13   3 3133.76 1700.48   3
  35 -13   3 388.550 890.711   2
 -22  35   3 804.610 868.142   1
  22  13   3 4017.88 1664.82   3
 -35  22   3 813.272 1178.87   1
  35 -12  -1 13410.6 2214.21   3
 -35  23  -1 15474.0 1797.62   1
  23  12  -1 13125.4 1650.59   2
  35 -12  -1 17388.3 1947.84   4
  35 -12  -1 16056.0 2082.34   2
 -23  35  -1 17420.8 1826.30   1
  23  12  -1 20722.5 2415.32   3
 -35  23   2 3896.03 1338.80   1
  35 -12   2-86.1048 1363.61   3
 -23  35   2 4554.69 1151.95   1
  35 -12   2 3459.25 1047.18   4
  35 -12   2 3290.51 1089.84   2
  23  12   2 2015.36 1583.68   3
  35 -11  -2 110.885 1275.89   3
  35 -11  -2 641.666 962.735   4
  24  11  -2 199.208 922.055   2
  35 -11  -2-1195.51 1215.43   2
 -35  24  -2 1277.60 862.489   1
 -24  35  -2-656.698 792.401   1
  24  11  -2 1246.55 1225.00   3
  35 -11   1 2168.59 1415.96   3
  24  11   1 2317.81 666.092   4
  35 -11   1 1075.98 808.415   4
  35 -11   1 3903.73 1237.37   2
 -35  24   1 2618.89 1093.43   1
  24  11   1 722.219 1456.06   3
 -24  35   1 3064.46 1143.59   1
  35 -10   0 2943.53 1739.26   3
  35 -10   0 1975.79 984.135   4
  25  10   0 3270.55 783.010   4
  25  10   0 4887.90 1120.11   2
  35 -10   0 4098.28 1233.21   2
  25  10   0 5033.64 1525.78   3
 -25  35   0 3576.54 1129.72   1
 -35  25   0 2893.19 1190.34   1
  35  -9  -1 457.849 1435.58   3
  35  -9  -1 1087.10 858.819   4
  26   9  -1 2357.45 836.618   4
  26   9  -1 3042.28 1122.35   2
  35  -9  -1 839.221 1083.33   2
 -35  26  -1 2728.61 1040.18   1
  26   9  -1 4495.15 1556.30   3
  36 -22   1 4921.27 1685.35   3
  36 -22   1 8093.53 1480.17   4
  36 -22   1 9507.86 1629.13   2
 -14  36   1 8611.82 1405.26   1
 -36  14   1 5450.37 1342.89   1
  14  22   1 10833.4 2029.44   3
  15  21   0 831.997 720.158   2
  36 -21   0 596.244 902.979   4
  36 -21   0-86.4250 1071.16   2
 -15  36   0 655.093 651.350   1
 -36  15   0 761.732 969.580   1
  15  21   0-1024.54 1289.99   3
  36 -20  -1 1173.15 1275.01   3
  36 -20  -1 355.947 1042.46   4
  16  20  -1-664.242 777.578   2
  36 -20  -1 3250.43 1441.75   2
 -16  36  -1-488.060 838.271   1
  16  20  -1-2142.16 1483.04   3
 -36  16  -1 1107.19 947.831   1
  36 -19  -2 5786.07 1597.74   4
  17  19  -2 7365.57 1284.85   2
  36 -19  -2 10962.3 2008.19   2
  17  19  -2 9035.99 1810.88   3
  36 -19   1 545.236 1347.51   3
  36 -19   1 2986.44 1108.41   4
  36 -19   1 3905.23 1195.49   2
 -36  17   1 1929.94 1084.93   1
  17  19   1 2766.59 1367.71   3
 -17  36   1 2161.61 908.495   1
  36 -18   0 3067.93 1581.21   3
  18  18   0 3033.24 893.596   2
  36 -18   0 3052.74 1043.34   4
  36 -18   0 2700.91 1294.31   2
 -18  36   0 3830.03 1077.28   1
 -36  18   0 4031.16 1240.10   1
  18  18   0 3258.47 1347.99   3
  36 -17  -1 1350.21 1208.52   3
  36 -17  -1 3935.92 1230.93   4
  19  17  -1 4363.68 1022.74   2
  36 -17  -1 1970.00 1314.05   2
 -19  36  -1 4942.69 1228.08   1
 -36  19  -1 4385.22 1153.71   1
  19  17  -1 3080.72 1543.40   3
  36 -17   2 6102.73 1843.66   3
  36 -17   2 8440.72 1570.65   2
  36 -17   2 7589.34 1342.57   4
 -36  19   2 8812.59 1791.90   1
 -19  36   2 8424.73 1511.39   1
  19  17   2 7961.55 1891.53   3
  36 -16   1-240.067 1320.77   3
  36 -16   1 18.7984 808.306   4
  36 -16   1 1153.13 1102.43   2
 -36  20   1 175.781 993.583   1
  20  16   1-1355.70 1368.91   3
 -20  36   1-965.031 1022.31   1
  36 -15   0 1482.28 1389.81   3
  21  15   0 820.700 818.578   2
  36 -15   0 312.556 736.215   4
  36 -15   0 277.815 977.124   2
 -36  21   0 768.717 973.269   1
 -21  36   0 2463.01 982.591   1
  21  15   0 821.274 1353.43   3
  36 -14  -1 7206.28 1860.29   3
  36 -14  -1 3974.89 1269.35   4
  22  14  -1 7533.22 1319.55   2
 -36  22  -1 10035.3 1570.76   1
  36 -14  -1 7176.67 1661.88   2
 -22  36  -1 8424.60 1372.49   1
  22  14  -1 7603.07 1762.90   3
   0   0   0    0.00    0.00   0

TITL YY_ZnGlyPyr_15PD_100K in R3c
REM R3c (#161 in standard setting)
CELL 0.71073  28.084446  28.084446  10.120863  90.0000  90.0000 120.0000
ZERR   18.00   0.000602   0.000602   0.000216   0.0000   0.0000   0.0000
LATT -3
SYMM -y, x-y, z
SYMM -x+y,-x, z
SYMM -y,-x, z+1/2
SYMM -x+y, y, z+1/2
SYMM  x, x-y, z+1/2
SFAC C H N O Zn
UNIT 108.00 90.00 54.00 90.00 18.00
TREF
HKLF 4
END
;
_shelx_hkl_checksum              47785
_olex2_submission_special_instructions 'No special instructions were received'
_oxdiff_exptl_absorpt_empirical_details
;
Empirical correction (ABSPACK) includes:
- Absorption correction using spherical harmonics
- Frame scaling
- Detector area scaling
;
_oxdiff_exptl_absorpt_empirical_full_max 1.373
_oxdiff_exptl_absorpt_empirical_full_min 0.572
loop_
_space_group_symop_operation_xyz
'x, y, z'
'-y, x-y, z'
'-x+y, -x, z'
'-x+y, y, z+1/2'
'x, x-y, z+1/2'
'-y, -x, z+1/2'
'x+2/3, y+1/3, z+1/3'
'-y+2/3, x-y+1/3, z+1/3'
'-x+y+2/3, -x+1/3, z+1/3'
'-x+y+2/3, y+1/3, z+5/6'
'x+2/3, x-y+1/3, z+5/6'
'-y+2/3, -x+1/3, z+5/6'
'x+1/3, y+2/3, z+2/3'
'-y+1/3, x-y+2/3, z+2/3'
'-x+y+1/3, -x+2/3, z+2/3'
'-x+y+1/3, y+2/3, z+7/6'
'x+1/3, x-y+2/3, z+7/6'
'-y+1/3, -x+2/3, z+7/6'
loop_
_atom_site_label
_atom_site_type_symbol
_atom_site_fract_x
_atom_site_fract_y
_atom_site_fract_z
_atom_site_U_iso_or_equiv
_atom_site_adp_type
_atom_site_occupancy
_atom_site_site_symmetry_order
_atom_site_calc_flag
_atom_site_refinement_flags_posn
_atom_site_refinement_flags_adp
_atom_site_refinement_flags_occupancy
_atom_site_disorder_assembly
_atom_site_disorder_group
Zn1 Zn -0.35305(2) -0.32819(3) -0.29835(16) 0.0170(2) Uani 1 1 d . . . . .
N3 N -0.5305(2) -0.4274(2) -0.5773(5) 0.0210(10) Uani 1 1 d . . . . .
H3 H -0.5394 -0.4367 -0.6606 0.025 Uiso 1 1 calc R . . . .
O2 O -0.40272(16) -0.33057(16) -0.4376(4) 0.0216(8) Uani 1 1 d . . . . .
C5 C -0.4904(2) -0.3708(2) -0.5435(6) 0.0198(11) Uani 1 1 d . . . . .
H5A H -0.5012 -0.3610 -0.4591 0.024 Uiso 1 1 calc R . . . .
H5B H -0.4906 -0.3460 -0.6128 0.024 Uiso 1 1 calc R . . . .
O3 O -0.5453(2) -0.4535(2) -0.3642(4) 0.0380(12) Uani 1 1 d . . . . .
O1 O -0.30048(17) -0.24923(16) -0.2805(4) 0.0223(8) Uani 1 1 d . . . . .
C6 C -0.4327(2) -0.3619(2) -0.5302(5) 0.0190(11) Uani 1 1 d . . . . .
N2 N -0.4023(2) -0.3585(2) -0.1471(5) 0.0192(9) Uani 1 1 d . . . . .
C1 C -0.4572(2) -0.3909(2) -0.1529(6) 0.0218(11) Uani 1 1 d . . . . .
H1 H -0.4787 -0.4004 -0.2312 0.026 Uiso 1 1 calc R . . . .
C4 C -0.5537(2) -0.4650(2) -0.4839(5) 0.0231(12) Uani 1 1 d . . . . .
C3 C -0.2818(2) -0.3804(3) -0.2784(5) 0.0238(12) Uani 1 1 d . . . . .
H3A H -0.2775 -0.3767 -0.1852 0.029 Uiso 1 1 calc R . . . .
N1 N -0.3113(2) -0.3643(2) -0.3504(5) 0.0213(10) Uani 1 1 d . . . . .
C2 C -0.4777(2) -0.4081(2) -0.0255(5) 0.0207(11) Uani 1 1 d . . . . .
O4 O -0.507(2) -0.5832(18) -0.639(3) 0.175(16) Uiso 0.388(19) 1 d D U P A -1
H4 H -0.4942 -0.5707 -0.5639 0.262 Uiso 0.388(19) 1 calc R . P A -1
O5 O -0.453(3) -0.514(3) -1.328(5) 0.27(3) Uiso 0.388(19) 1 d D U P A -1
H5 H -0.4628 -0.5473 -1.3411 0.407 Uiso 0.388(19) 1 calc R . P A -1
C7 C -0.483(3) -0.5396(19) -0.734(3) 0.178(18) Uiso 0.388(19) 1 d D U P A -1
H7A H -0.4423 -0.5237 -0.7363 0.214 Uiso 0.388(19) 1 calc R . P A -1
H7B H -0.4907 -0.5101 -0.7105 0.214 Uiso 0.388(19) 1 calc R . P A -1
C8 C -0.5073(19) -0.564(3) -0.869(3) 0.175(17) Uiso 0.388(19) 1 d D U P A -1
H8A H -0.5199 -0.6034 -0.8696 0.210 Uiso 0.388(19) 1 calc R . P A -1
H8B H -0.5398 -0.5593 -0.8847 0.210 Uiso 0.388(19) 1 calc R . P A -1
C9 C -0.4668(17) -0.536(2) -0.978(3) 0.173(17) Uiso 0.388(19) 1 d D U P A -1
H9A H -0.4525 -0.4960 -0.9715 0.207 Uiso 0.388(19) 1 calc R . P A -1
H9B H -0.4355 -0.5423 -0.9630 0.207 Uiso 0.388(19) 1 calc R . P A -1
C10 C -0.488(3) -0.5540(17) -1.113(3) 0.183(18) Uiso 0.388(19) 1 d D U P A -1
H10A H -0.5279 -0.5790 -1.1091 0.220 Uiso 0.388(19) 1 calc R . P A -1
H10B H -0.4711 -0.5754 -1.1487 0.220 Uiso 0.388(19) 1 calc R . P A -1
C11 C -0.476(3) -0.509(3) -1.208(4) 0.22(2) Uiso 0.388(19) 1 d D U P A -1
H11A H -0.5106 -0.5089 -1.2275 0.259 Uiso 0.388(19) 1 calc R . P A -1
H11B H -0.4502 -0.4730 -1.1662 0.259 Uiso 0.388(19) 1 calc R . P A -1
loop_
_atom_site_aniso_label
_atom_site_aniso_U_11
_atom_site_aniso_U_22
_atom_site_aniso_U_33
_atom_site_aniso_U_23
_atom_site_aniso_U_13
_atom_site_aniso_U_12
Zn1 0.0201(3) 0.0213(3) 0.0088(3) -0.0005(2) 0.0004(2) 0.0098(3)
N3 0.026(2) 0.024(2) 0.011(2) -0.0019(18) -0.0016(19) 0.011(2)
O2 0.026(2) 0.023(2) 0.0148(19) -0.0021(15) -0.0049(16) 0.0112(17)
C5 0.019(2) 0.018(2) 0.019(3) 0.002(2) 0.001(2) 0.006(2)
O3 0.049(3) 0.027(2) 0.011(2) -0.0025(18) -0.006(2) 0.000(2)
O1 0.027(2) 0.0208(19) 0.0159(19) 0.0000(15) -0.0060(16) 0.0093(17)
C6 0.024(3) 0.020(2) 0.012(2) 0.0032(19) 0.001(2) 0.010(2)
N2 0.021(2) 0.026(2) 0.007(2) 0.0020(17) 0.0025(17) 0.0098(19)
C1 0.021(3) 0.026(3) 0.011(3) -0.001(2) -0.002(2) 0.006(2)
C4 0.023(3) 0.025(3) 0.013(3) -0.004(2) -0.005(2) 0.006(2)
C3 0.028(3) 0.033(3) 0.011(3) 0.000(2) -0.001(2) 0.016(3)
N1 0.027(2) 0.027(2) 0.015(2) 0.0002(18) 0.0014(18) 0.017(2)
C2 0.020(3) 0.024(3) 0.015(3) 0.004(2) 0.003(2) 0.008(2)
loop_
_atom_type_symbol
_atom_type_description
_atom_type_scat_dispersion_real
_atom_type_scat_dispersion_imag
_atom_type_scat_source
C C 0.0033 0.0016 'International Tables Vol C Tables 4.2.6.8 and 6.1.1.4'
H H 0.0000 0.0000 'International Tables Vol C Tables 4.2.6.8 and 6.1.1.4'
N N 0.0061 0.0033 'International Tables Vol C Tables 4.2.6.8 and 6.1.1.4'
O O 0.0106 0.0060 'International Tables Vol C Tables 4.2.6.8 and 6.1.1.4'
Zn Zn 0.2839 1.4301 'International Tables Vol C Tables 4.2.6.8 and 6.1.1.4'
loop_
_geom_angle_atom_site_label_1
_geom_angle_atom_site_label_2
_geom_angle_atom_site_label_3
_geom_angle
_geom_angle_site_symmetry_1
_geom_angle_site_symmetry_3
_geom_angle_publ_flag
O2 Zn1 O1 103.01(16) . . ?
O2 Zn1 N1 112.78(19) . . ?
O1 Zn1 N1 107.6(2) . . ?
N2 Zn1 O2 102.27(18) . . ?
N2 Zn1 O1 112.9(2) . . ?
N2 Zn1 N1 117.4(2) . . ?
C4 N3 C5 120.4(5) . . ?
C6 O2 Zn1 140.0(4) . . ?
N3 C5 C6 112.3(5) . . ?
C6 O1 Zn1 118.5(4) 9_445 . ?
O2 C6 C5 117.5(5) . . ?
O1 C6 O2 124.8(5) 14_444 . ?
O1 C6 C5 117.6(5) 14_444 . ?
C1 N2 Zn1 125.8(4) . . ?
C1 N2 N1 108.1(4) . 9_445 ?
N1 N2 Zn1 125.8(4) 9_445 . ?
N2 C1 C2 109.2(5) . . ?
N3 C4 C2 117.7(5) . 6_444 ?
O3 C4 N3 122.4(5) . . ?
O3 C4 C2 119.9(5) . 6_444 ?
N1 C3 C2 110.4(5) . 14_444 ?
N2 N1 Zn1 121.5(4) 14_444 . ?
C3 N1 Zn1 131.0(4) . . ?
C3 N1 N2 107.4(5) . 14_444 ?
C1 C2 C4 128.5(5) . 6_445 ?
C3 C2 C1 104.9(5) 9_445 . ?
C3 C2 C4 126.4(5) 9_445 6_445 ?
O4 C7 C8 107.8(14) . . ?
C9 C8 C7 111.7(15) . . ?
C10 C9 C8 116.0(16) . . ?
C9 C10 C11 115.0(16) . . ?
O5 C11 C10 111.9(16) . . ?
loop_
_geom_bond_atom_site_label_1
_geom_bond_atom_site_label_2
_geom_bond_distance
_geom_bond_site_symmetry_2
_geom_bond_publ_flag
Zn1 O2 1.961(4) . ?
Zn1 O1 1.964(4) . ?
Zn1 N2 1.950(5) . ?
Zn1 N1 1.966(5) . ?
N3 C5 1.458(7) . ?
N3 C4 1.320(8) . ?
O2 C6 1.272(7) . ?
C5 C6 1.518(8) . ?
O3 C4 1.246(7) . ?
O1 C6 1.257(7) 9_445 ?
C6 O1 1.257(7) 14_444 ?
N2 C1 1.345(8) . ?
N2 N1 1.379(7) 9_445 ?
C1 C2 1.396(7) . ?
C4 C2 1.481(8) 6_444 ?
C3 N1 1.341(8) . ?
C3 C2 1.379(8) 14_444 ?
N1 N2 1.379(7) 14_444 ?
C2 C4 1.481(8) 6_445 ?
C2 C3 1.379(8) 9_445 ?
O4 C7 1.432(14) . ?
O5 C11 1.425(15) . ?
C7 C8 1.527(15) . ?
C8 C9 1.490(14) . ?
C9 C10 1.478(14) . ?
C10 C11 1.491(15) . ?
