#------------------------------------------------------------------------------
#$Date: 2021-07-04 04:44:05 +0300 (Sun, 04 Jul 2021) $
#$Revision: 266969 $
#$URL: file:///home/coder/svn-repositories/cod/cif/4/13/56/4135632.cif $
#------------------------------------------------------------------------------
#
# This file is available in the Crystallography Open Database (COD),
# http://www.crystallography.net/
#
# All data on this site have been placed in the public domain by the
# contributors.
#
data_4135632
loop_
_publ_author_name
'Geng, Shubo'
'Lin, En'
'Li, Xia'
'Liu, Wansheng'
'Wang, Ting'
'Wang, Zhifang'
'Sensharma, Debobroto'
'Darwish, Shaza'
'Andaloussi, Yassin H.'
'Pham, Tony'
'Cheng, Peng'
'Zaworotko, Michael J.'
'Chen, Yao'
'Zhang, Zhenjie'
_publ_section_title
;
 Scalable Room-Temperature Synthesis of Highly Robust Ethane-Selective
 Metal-Organic Frameworks for Efficient Ethylene Purification.
;
_journal_issue                   23
_journal_name_full               'Journal of the American Chemical Society'
_journal_page_first              8654
_journal_page_last               8660
_journal_paper_doi               10.1021/jacs.1c02108
_journal_volume                  143
_journal_year                    2021
_chemical_formula_moiety         'C6 H3 Cu N4'
_chemical_formula_sum            'C6 H3 Cu N4'
_chemical_formula_weight         194.66
_chemical_name_systematic        11
_space_group_crystal_system      orthorhombic
_space_group_IT_number           52
_space_group_name_Hall           '-P 2a 2bc'
_space_group_name_H-M_alt        'P n n a'
_atom_sites_solution_hydrogens   geom
_atom_sites_solution_primary     dual
_audit_creation_date             2021-02-08
_audit_creation_method
;
Olex2 1.3
(compiled 2020.11.12 svn.r5f609507 for OlexSys, GUI svn.r6226)
;
_cell_angle_alpha                90
_cell_angle_beta                 90
_cell_angle_gamma                90
_cell_formula_units_Z            4
_cell_length_a                   10.9436(11)
_cell_length_b                   8.6154(10)
_cell_length_c                   10.0156(9)
_cell_measurement_reflns_used    546
_cell_measurement_temperature    120(3)
_cell_measurement_theta_max      26.7450
_cell_measurement_theta_min      3.6180
_cell_volume                     944.31(17)
_computing_cell_refinement       'CrysAlisPro 1.171.40.53 (Rigaku OD, 2019)'
_computing_data_collection       'CrysAlisPro 1.171.40.53 (Rigaku OD, 2019)'
_computing_data_reduction        'CrysAlisPro 1.171.40.53 (Rigaku OD, 2019)'
_computing_molecular_graphics    'Olex2 1.3 (Dolomanov et al., 2009)'
_computing_publication_material  'Olex2 1.3 (Dolomanov et al., 2009)'
_computing_structure_refinement  'SHELXL 2018/3 (Sheldrick, 2015)'
_computing_structure_solution    'SHELXT 2014/5 (Sheldrick, 2014)'
_diffrn_ambient_environment      N~2~
_diffrn_ambient_temperature      120(3)
_diffrn_detector                 'CCD plate'
_diffrn_detector_area_resol_mean 16.2116
_diffrn_detector_type            Eos
_diffrn_measured_fraction_theta_full 0.913
_diffrn_measured_fraction_theta_max 0.918
_diffrn_measurement_details
;
List of Runs (angles in degrees, time in seconds):

  # Type    Start    End  Width  t~exp~   \w     \q     \k     \f   Frames
--------------------------------------------------------------------------
  1  \w    -54.00  -5.00   1.00   27.50    --   18.78 -37.00-120.00   49
  2  \w    -34.00  92.00   1.00   27.50    --   18.78   0.00  60.00  126
  3  \w    -96.00 -64.00   1.00   27.50    --  -19.88-178.00  60.00   32
;
_diffrn_measurement_device       'four-circle diffractometer'
_diffrn_measurement_device_type  'SuperNova, Single source at offset/far, Eos'
_diffrn_measurement_method       '\w scans'
_diffrn_orient_matrix_type
'CrysAlisPro convention (1999,Acta A55,543-557)'
_diffrn_orient_matrix_UB_11      -0.0044843000
_diffrn_orient_matrix_UB_12      0.0540756000
_diffrn_orient_matrix_UB_13      0.0533937000
_diffrn_orient_matrix_UB_21      0.0554147000
_diffrn_orient_matrix_UB_22      -0.0205482000
_diffrn_orient_matrix_UB_23      0.0342303000
_diffrn_orient_matrix_UB_31      0.0324199000
_diffrn_orient_matrix_UB_32      0.0427148000
_diffrn_orient_matrix_UB_33      -0.0513307000
_diffrn_radiation_monochromator  mirror
_diffrn_radiation_probe          x-ray
_diffrn_radiation_type           'Mo K\a'
_diffrn_radiation_wavelength     0.71073
_diffrn_reflns_av_R_equivalents  0.1064
_diffrn_reflns_av_unetI/netI     0.1277
_diffrn_reflns_Laue_measured_fraction_full 0.913
_diffrn_reflns_Laue_measured_fraction_max 0.918
_diffrn_reflns_limit_h_max       13
_diffrn_reflns_limit_h_min       -14
_diffrn_reflns_limit_k_max       7
_diffrn_reflns_limit_k_min       -10
_diffrn_reflns_limit_l_max       6
_diffrn_reflns_limit_l_min       -12
_diffrn_reflns_number            2944
_diffrn_reflns_point_group_measured_fraction_full 0.913
_diffrn_reflns_point_group_measured_fraction_max 0.918
_diffrn_reflns_theta_full        25.242
_diffrn_reflns_theta_max         27.080
_diffrn_reflns_theta_min         3.633
_diffrn_source                   'micro-focus sealed X-ray tube'
_diffrn_source_type              'SuperNova (Mo) X-ray Source'
_exptl_absorpt_coefficient_mu    2.257
_exptl_absorpt_correction_T_max  1.00000
_exptl_absorpt_correction_T_min  0.54391
_exptl_absorpt_correction_type   multi-scan
_exptl_absorpt_process_details
;
CrysAlisPro 1.171.40.53 (Rigaku Oxford Diffraction, 2019)
Empirical absorption correction using spherical harmonics,
 implemented in SCALE3 ABSPACK scaling algorithm.
;
_exptl_crystal_colour            'clear light colourless'
_exptl_crystal_colour_lustre     clear
_exptl_crystal_colour_modifier   light
_exptl_crystal_colour_primary    colourless
_exptl_crystal_density_diffrn    1.369
_exptl_crystal_description       block
_exptl_crystal_F_000             384
_exptl_crystal_size_max          0.2
_exptl_crystal_size_mid          0.2
_exptl_crystal_size_min          0.2
_refine_diff_density_max         1.596
_refine_diff_density_min         -0.852
_refine_diff_density_rms         0.194
_refine_ls_extinction_method     none
_refine_ls_goodness_of_fit_ref   1.025
_refine_ls_hydrogen_treatment    constr
_refine_ls_matrix_type           full
_refine_ls_number_parameters     53
_refine_ls_number_reflns         955
_refine_ls_number_restraints     12
_refine_ls_restrained_S_all      1.022
_refine_ls_R_factor_all          0.1232
_refine_ls_R_factor_gt           0.0836
_refine_ls_shift/su_max          0.001
_refine_ls_shift/su_mean         0.000
_refine_ls_structure_factor_coef Fsqd
_refine_ls_weighting_details
'w=1/[\s^2^(Fo^2^)+(0.1291P)^2^] where P=(Fo^2^+2Fc^2^)/3'
_refine_ls_weighting_scheme      calc
_refine_ls_wR_factor_gt          0.2217
_refine_ls_wR_factor_ref         0.2574
_reflns_Friedel_coverage         0.000
_reflns_number_gt                544
_reflns_number_total             955
_reflns_threshold_expression     'I > 2\s(I)'
_cod_data_source_file            ja1c02108_si_005.cif
_cod_data_source_block           p191218f5
_cod_depositor_comments
'Adding full bibliography for 4135632--4135635.cif.'
_cod_original_cell_volume        944.30(16)
_cod_database_code               4135632
_shelx_shelxl_version_number     2018/3
_shelx_space_group_comment
;
The symmetry employed for this shelxl refinement is uniquely defined
by the following loop, which should always be used as a source of
symmetry information in preference to the above space-group names.
They are only intended as comments.
;
_shelx_estimated_absorpt_t_max   0.661
_shelx_estimated_absorpt_t_min   0.661
_reflns_odcompleteness_completeness 99.57
_reflns_odcompleteness_iscentric 1
_reflns_odcompleteness_theta     26.32
_olex2_refinement_description
;
1. Fixed Uiso
 At 1.5 times of:
  All C(H,H,H) groups
2. Uiso/Uaniso restraints and constraints
Uanis(C007) \\sim Ueq: with sigma of 0.01 and sigma for terminal atoms of 0.02
Uanis(C004) \\sim Ueq: with sigma of 0.01 and sigma for terminal atoms of 0.02
3. Others
 Fixed Sof: H00A(0.5) H00B(0.5) H00C(0.5)
4.a Idealised Me refined as rotating group:
 C007(H00A,H00B,H00C)
;
_smtbx_masks_void_probe_radius   1.2
_smtbx_masks_void_truncation_radius 1.2
_shelx_res_file
;
TITL p191218f5_a.res in Pnna
    p191218f5.res
    created by SHELXL-2018/3 at 19:26:39 on 08-Feb-2021
REM Old TITL P191218F5 in P212121 #19
REM SHELXT solution in Pnna
REM R1 0.296, Rweak 0.021, Alpha 0.087, Orientation a'=b, b'=a, c'=-c
REM Formula found by SHELXT: C5 N5 Cu
CELL 0.71073 10.943592 8.615384 10.015582 90 90 90
ZERR 4 0.001068 0.000974 0.000855 0 0 0
LATT 1
SYMM 0.5-X,-Y,+Z
SYMM 0.5-X,0.5+Y,0.5-Z
SYMM +X,0.5-Y,0.5-Z
SFAC C H Cu N
UNIT 24 12 4 16
ISOR 0.01 0.02 C007
ISOR 0.01 0.02 C004

L.S. 10 0 0
PLAN  1
SIZE 0.2 0.2 0.2
CONF
BOND $H
list 4
MORE -1
fmap 2 53
acta
ABIN
SHEL 999 0.78
OMIT 1 0 3
OMIT 0 2 0
OMIT 0 0 2
OMIT 2 1 7
OMIT 2 0 8
OMIT 2 0 0
OMIT 4 0 8
OMIT 1 3 2
OMIT 2 1 0
OMIT 0 3 1
OMIT 0 3 5
OMIT 6 1 7
OMIT 1 3 5
OMIT 4 1 9
OMIT 6 0 0
OMIT 0 0 8
OMIT 5 6 1
OMIT 4 1 7
OMIT 3 5 2
OMIT 2 5 2
OMIT 3 4 2
OMIT 2 2 6
OMIT 0 1 7
OMIT 2 1 9
OMIT 14 4 0
OMIT 8 1 2
OMIT 4 1 2
OMIT 8 1 7
OMIT 1 7 1
OMIT 5 1 7
OMIT 1 1 5
OMIT 5 8 2
OMIT 5 8 3
OMIT 0 2 10
OMIT 8 1 1
OMIT 7 7 8
OMIT 5 1 1
OMIT 3 1 11
OMIT 2 2 10
OMIT 0 1 9
OMIT 1 2 2
OMIT 9 3 5
OMIT 6 6 8
OMIT 2 2 2
OMIT 11 3 2
OMIT 6 2 2
OMIT 0 3 3
OMIT 3 8 3
OMIT 2 3 1
OMIT 1 6 2
OMIT 4 5 2
OMIT 5 8 7
OMIT 4 7 5
OMIT 1 2 4
OMIT 2 5 1
OMIT 3 7 8
OMIT 8 5 7
OMIT 11 0 7
OMIT 0 4 0
OMIT 2 8 7
OMIT 8 1 9
OMIT 9 5 3
OMIT 0 5 11
OMIT 1 6 5
OMIT 4 4 1
OMIT 2 1 4
OMIT 5 0 1
OMIT 3 5 4
OMIT 2 1 1
OMIT 5 4 4
OMIT 4 0 0
OMIT 9 5 8
OMIT 4 2 6
OMIT 10 1 1
OMIT 11 1 7
OMIT 11 2 1
OMIT 4 1 0
OMIT 6 1 9
OMIT 2 1 2
OMIT 3 9 3
REM <olex2.extras>
REM <HklSrc "%.\\P191218F5.hkl">
REM </olex2.extras>

WGHT    0.129100
FVAR       0.42160
CU01  3    0.750000    0.500000    0.532710    10.50000    0.01406    0.02896 =
         0.02500    0.00000    0.00000    0.00076
N002  4    0.312467    0.665662    0.335579    11.00000    0.01663    0.03080 =
         0.02101    0.00334   -0.00380    0.00269
N003  4    0.615392    0.581835    0.423381    11.00000    0.03123    0.03249 =
         0.03958    0.00032    0.00942    0.00673
C004  1    0.245992    0.750000    0.250000    10.50000    0.00385    0.01687 =
         0.03089    0.00275    0.00000    0.00000
C005  1    0.431780    0.697490    0.300962    11.00000    0.01411    0.03944 =
         0.03092   -0.00051   -0.00352   -0.00386
C006  1    0.533335    0.632391    0.370501    11.00000    0.01500    0.03225 =
         0.04000    0.00475    0.01111   -0.00471
C007  1    0.112643    0.750000    0.250000    10.50000    0.00569    0.05281 =
         0.03630    0.01706    0.00000    0.00000
PART -1
AFIX 137
H00A  2    0.083402    0.651347    0.281066    10.50000   -1.50000
H00B  2    0.083402    0.768050    0.160975    10.50000   -1.50000
H00C  2    0.083402    0.830603    0.307959    10.50000   -1.50000
AFIX   0
HKLF 4




REM  p191218f5_a.res in Pnna
REM wR2 = 0.2574, GooF = S = 1.025, Restrained GooF = 1.022 for all data
REM R1 = 0.0836 for 544 Fo > 4sig(Fo) and 0.1232 for all 955 data
REM 53 parameters refined using 12 restraints

END

WGHT      0.1287      0.0000

REM Highest difference peak  1.596,  deepest hole -0.852,  1-sigma level  0.194
Q1    1   0.7490  0.5818  0.4506  11.00000  0.05    1.60
;
_shelx_res_checksum              19816
_shelx_hkl_file
;
   0 -10   0   81.47   26.75
   0  -9   0   -3.16    8.05
   0  -9   0   -4.45    8.94
   0  -8   0  239.83   42.70
   0  -8   0  219.71   43.30
   0  -8   0  244.94   46.44
   0  -7   0   11.03   10.49
   0  -7   0    6.69   11.49
   0  -7   0    1.38    4.92
   0  -6   0  540.68   59.50
   0  -6   0  596.52   59.37
   0  -6   0  599.72   58.66
   0  -5   0    7.30    6.37
   0  -5   0   -6.10    3.41
   0  -4   0  819.49   56.25
   0  -4   0  841.51   60.15
   0  -3   0   -3.13    1.75
   0  -3   0    5.05    4.96
   0  -2   0 1024.03   43.45
   0  -2   0  974.42   43.52
   0   2   0  948.77   41.52
   0   3   0   -1.79    3.09
   0 -10  -1    7.08    3.75
   0 -10  -1   -0.50    8.67
   0 -10  -1   -9.53   14.15
   0  -9  -1   56.06   22.64
   0  -9  -1   85.13   27.89
   0  -9  -1   93.03   29.73
   0  -9   1  104.19   29.23
   0  -8  -1   -5.11    7.30
   0  -8  -1    0.44    3.76
   0  -8  -1   10.67   12.86
   0  -8   1   -7.88    7.91
   0  -7   1  225.18   39.55
   0  -7  -1  209.74   40.44
   0  -7  -1  187.48   35.80
   0  -7   1  217.83   41.78
   0  -6   1   15.34   16.04
   0  -6  -1   -9.12    6.68
   0  -6   1   -0.33   11.73
   0  -6  -1   -1.13    3.74
   0  -5   1  282.67   38.87
   0  -5  -1  288.62   40.27
   0  -5  -1  297.43   36.62
   0  -5   1  248.27   34.87
   0  -4  -1    2.75    6.06
   0  -4   1   30.15   13.85
   0  -4   1   46.63   19.66
   0  -4   1   54.19   18.11
   0  -3   1   66.86   15.35
   0  -3  -1   64.09   14.25
   0  -3   1   63.55   14.08
   0  -2  -1    4.97    6.05
   0  -2   1   -3.17    3.60
   0   2   1    4.02    3.29
   0   2  -1   -0.83    2.27
   0   2  -1   -0.48    1.52
   0   2  -1    4.27    4.08
   0   3  -1   60.58   13.09
   0   3   1   74.60   16.35
   0   3  -1   58.93   14.23
   0   4  -1   38.79   16.01
   0 -11  -2    2.21   11.43
   0 -10  -2  158.10   41.11
   0 -10  -2  145.41   40.05
   0 -10  -2  124.20   40.57
   0  -9   2   -1.46    5.93
   0  -9  -2   13.01   12.31
   0  -9  -2   10.05   12.94
   0  -8   2  179.62   38.30
   0  -8  -2  220.11   44.83
   0  -8  -2  158.63   35.18
   0  -7   2   -6.69    9.08
   0  -7  -2   16.25   10.59
   0  -7  -2   -8.34   11.99
   0  -6  -2  425.43   54.77
   0  -6   2  341.26   45.51
   0  -5   2  193.68   37.68
   0  -5  -2   40.89   22.00
   0  -4  -2  610.60   53.30
   0  -4   2  599.49   50.32
   0  -3   2    3.09    4.01
   0  -3  -2    5.20    5.48
   0  -2  -2 9747.49  168.28
   0  -1  -2   11.51    6.13
   0   0   2  744.04   33.10
   0   0  -2  734.44   32.86
   0   1   2    5.57    5.40
   0   1  -2   12.41    5.30
   0   2  -2 9999.00  168.20
   0   2   2 9968.32  173.66
   0   3  -2   -4.13    3.07
   0   3  -2   -2.11    4.90
   0   4  -2  560.90   44.69
   0 -11  -3   49.58   27.57
   0 -10  -3   16.61   16.40
   0 -10  -3   33.73   25.03
   0  -9   3  128.75   33.79
   0  -9  -3  121.35   37.18
   0  -9  -3  116.55   33.12
   0  -8  -3   -8.39    6.33
   0  -8   3   12.66   14.08
   0  -8  -3    4.59   10.47
   0  -7   3   74.83   23.78
   0  -7  -3   96.61   30.67
   0  -6   3   19.82   13.54
   0  -6  -3   16.81   16.02
   0  -5   3  114.32   25.62
   0  -5  -3  103.68   25.12
   0  -4  -3   -6.97    5.34
   0  -4   3    6.86    7.65
   0  -3  -3 2913.07  112.26
   0  -2  -3    0.12    3.48
   0  -1   3   69.68   13.18
   0  -1  -3   86.49   18.53
   0   0   3   -2.09    1.27
   0   0  -3    2.65    4.49
   0   1   3   75.77   16.63
   0   1  -3   74.40   13.06
   0   2  -3   -1.62    2.33
   0   2  -3    1.79    2.53
   0   4  -3   -1.85    5.14
   0 -11  -4   -1.53    6.28
   0 -10  -4   58.75   27.13
   0 -10  -4   40.50   23.81
   0  -9   4    7.18    8.44
   0  -9  -4   11.26   14.55
   0  -9  -4    8.90    9.47
   0  -8   4  116.85   32.59
   0  -8  -4  145.17   39.38
   0  -7  -4   33.00   19.74
   0  -7   4   12.25   12.22
   0  -6  -4  136.64   33.53
   0  -5  -4   19.03   15.37
   0  -4  -4 1989.78  106.60
   0  -3  -4    4.78   10.81
   0  -2  -4  362.43   40.39
   0  -1  -4   -0.09    5.10
   0  -1   4    7.89    5.85
   0   0  -4  289.72   30.46
   0   0   4  283.45   30.49
   0   1  -4    6.05    4.94
   0   2  -4  361.98   32.03
   0   3  -4   18.92    8.96
   0 -10  -5    7.20    9.41
   0  -9  -5   17.43   17.17
   0  -8  -5   34.77   22.10
   0  -7  -5   46.86   22.96
   0  -6  -5   -7.69    5.93
   0  -5  -5  528.03   63.31
   0  -4  -5   33.78   19.90
   0  -3  -5  491.56   54.81
   0  -2  -5   -3.00    4.31
   0  -1  -5  119.04   23.27
   0   0  -5   24.45   11.29
   0   1  -5  167.67   24.34
   0   2  -5    4.84    5.34
   0   3  -5  644.08   48.53
   0   4  -5   11.38    9.11
   0   5  -5  460.49   45.19
   0  -9  -6   12.81   19.94
   0  -8  -6   17.17   12.34
   0  -7  -6   20.19   16.84
   0  -6  -6  449.06   65.25
   0  -5  -6   16.56   16.84
   0  -4  -6   23.81   14.61
   0  -3  -6   -0.69    8.44
   0  -2  -6   29.77   12.69
   0  -1  -6   16.95    9.83
   0   0  -6   14.27    5.84
   0   1  -6  -14.45    9.00
   0   2  -6   42.59   14.59
   0   3  -6   -8.90    7.15
   0   4  -6  -37.07   12.81
   0   5  -6   19.01   13.81
   0  -9  -7  -29.43   22.34
   0  -8  -7    5.52    8.38
   0  -7  -7  123.16   38.11
   0  -6  -7    0.07   13.46
   0  -5  -7   18.23   19.31
   0  -4  -7   11.97   12.34
   0  -3  -7    0.01    4.87
   0  -2  -7  -21.53   13.79
   0  -1  -7   57.53   22.36
   0   0  -7   15.16   12.46
   0   1  -7   81.66   23.48
   0   2  -7   -1.40    6.94
   0   3  -7    7.03    7.99
   0   4  -7   -6.26    7.59
   0  -8  -8   31.03   20.52
   0  -7  -8   29.82   22.40
   0  -6  -8   16.30   17.90
   0  -5  -8   20.40   21.85
   0  -4  -8   -2.93   11.27
   0  -3  -8   -9.03   10.03
   0  -2  -8   22.03   13.76
   0  -1  -8   -8.63   10.53
   0   0  -8  198.70   39.68
   0   1  -8   -7.11   10.98
   0   2  -8   19.90   11.48
   0   3  -8  -10.46    6.42
   0   4  -8    5.23    6.49
   0  -7  -9    0.42    7.41
   0  -6  -9    5.13   12.96
   0  -5  -9   42.24   25.05
   0  -4  -9    1.12   10.76
   0  -3  -9    9.33   10.22
   0  -2  -9   -3.79    9.67
   0  -1  -9  100.80   31.60
   0   0  -9   -9.12    9.43
   0   1  -9  150.64   36.07
   0   2  -9  -10.08   13.22
   0   3  -9   13.05    9.73
   0  -6 -10   33.89   23.82
   0  -5 -10   20.36   18.50
   0  -4 -10   30.53   20.41
   0  -3 -10   13.49   14.63
   0  -2 -10   64.16   26.96
   0  -1 -10    6.36   13.39
   0   0 -10   94.42   30.24
   0   1 -10    7.89    9.20
   0   2 -10   90.86   30.60
   0  -5 -11  -10.47   12.11
   0  -4 -11    9.22   15.90
   0  -3 -11   54.40   28.27
   0  -2 -11   -6.58   11.81
   0  -1 -11   50.30   24.34
   0   0 -11  -23.49   11.31
   0   1 -11   42.39   21.88
   0  -4 -12   69.44   33.37
   0  -3 -12   17.23   19.05
   0  -2 -12   67.35   35.30
   0  -1 -12    5.20    5.72
   0   0 -12    8.09    9.59
   0  -2 -13    8.51   14.10
  -1 -10   0   -3.43    6.56
   1 -10   0  -20.07   14.17
  -1  -9   0    2.49    4.45
  -1  -9   0    1.44    3.91
   1  -9   0    2.58    7.21
  -1  -9   0    1.83    6.05
  -1  -8   0    4.13   13.04
   1  -8   0    5.25    5.45
  -1  -8   0    6.46    5.63
  -1  -8   0   13.46   11.79
   1  -8   0   -0.89    3.63
   1  -7   0   52.55   24.66
  -1  -7   0   46.42   24.02
   1  -7   0   39.43   23.01
   1  -7   0   45.07   26.15
  -1  -7   0   55.52   24.32
  -1  -7   0   61.40   25.82
   1  -6   0    7.11    9.31
  -1  -6   0   17.79   17.86
  -1  -6   0   31.48   16.16
   1  -6   0   -1.44    2.79
  -1  -6   0   13.62   11.26
   1  -6   0    8.74   11.27
  -1  -5   0   -7.31    8.41
  -1  -5   0   -8.55    9.40
   1  -5   0    8.64    8.47
   1  -5   0    5.83    6.42
   1  -4   0    5.35    6.94
  -1  -4   0    9.22   10.16
   1  -4   0    3.61    8.66
  -1  -4   0   14.29    8.60
   1  -3   0    3.74    3.55
  -1  -3   0    0.91    2.23
   1  -3   0    1.94    4.57
  -1  -3   0    1.61    5.26
   1  -2   0   11.43    5.17
   1  -2   0   12.56    7.20
   1   1   0    1.01    1.87
  -1   2   0   21.61    9.53
   1   2   0   32.27    8.84
   1   3   0    0.37    2.13
  -1   3   0   -1.06    4.84
   1   4   0    9.43    7.20
  -1 -11  -1    6.95   13.69
  -1 -10  -1   21.57   18.67
   1 -10  -1    4.32   12.64
   1 -10  -1  -12.60   13.30
  -1 -10  -1    7.77    9.50
   1 -10   1  -18.84   15.58
  -1  -9   1   -0.56    8.54
  -1  -9  -1    7.24    7.05
   1  -9  -1   14.67   15.01
   1  -9  -1    4.79    8.62
  -1  -9   1   11.68   10.99
   1  -9  -1   16.42   14.66
   1  -9   1    8.11   11.40
  -1  -9  -1   -4.99    7.87
  -1  -9  -1   -0.97    6.87
  -1  -8  -1   22.87   16.67
   1  -8  -1   18.03   13.58
   1  -8  -1   11.71   14.45
   1  -8  -1   29.31   18.14
  -1  -8  -1   26.01   15.41
  -1  -8   1   20.58   13.71
  -1  -8  -1   18.43   14.38
   1  -8   1   21.20   16.15
  -1  -8   1   25.67   19.90
  -1  -7   1   -8.97   12.61
   1  -7  -1    2.87    3.68
  -1  -7  -1  -15.04   12.90
  -1  -7   1    3.33    9.22
  -1  -7   1   -3.85   10.80
  -1  -7  -1   -1.95    6.92
   1  -7   1  -10.64   12.62
   1  -7  -1   -1.65    7.65
   1  -6  -1  110.71   28.71
   1  -6   1   97.83   29.12
  -1  -6   1   83.34   24.05
  -1  -6  -1  124.02   31.87
   1  -6  -1  140.68   33.14
  -1  -6  -1  122.93   28.94
  -1  -6   1   82.37   27.05
  -1  -6   1   63.32   21.06
   1  -5   1   80.71   21.79
  -1  -5   1   54.25   14.75
  -1  -5   1   67.00   17.00
  -1  -5  -1   62.92   17.66
  -1  -5   1   68.54   21.47
   1  -5  -1   71.87   20.50
   1  -5  -1   72.06   17.99
   1  -4  -1  150.00   27.69
   1  -4   1  114.97   22.80
  -1  -4  -1  149.89   24.97
  -1  -4   1  121.70   23.92
  -1  -4   1   98.04   17.83
  -1  -4   1   93.51   16.97
  -1  -3  -1   73.65   14.84
   1  -3   1   72.89   16.01
   1  -3  -1   46.42   12.81
  -1  -3   1   78.53   13.44
  -1  -3   1   79.74   17.97
  -1  -3   1   57.86   10.67
  -1  -2   1  596.23   41.11
   1  -2   1  567.81   40.05
  -1  -2  -1  505.03   33.12
  -1  -2   1  533.40   23.11
   1  -2  -1  571.29   40.42
  -1  -2   1  542.44   27.04
  -1  -1  -1  880.15   35.98
   1  -1  -1  809.05   37.99
  -1  -1   1  844.80   38.90
   1  -1   1  821.86   39.42
   1   1   1  857.86   36.52
  -1   1  -1  876.77   41.99
   1   1  -1  881.98   40.57
  -1   1   1  828.97   38.89
   1   2  -1  559.42   39.32
   1   2  -1  468.96   20.51
   1   2  -1  546.46   28.85
  -1   2  -1  605.95   42.44
   1   2   1  562.69   35.96
  -1   2   1  580.78   40.32
  -1   3  -1   68.48   14.94
   1   3   1   68.10   13.88
  -1   3  -1   69.87   15.90
  -1   3   1   57.39   15.39
   1   3  -1   65.37   10.94
   1   4  -1  102.76   16.97
  -1 -11  -2   24.82   16.93
   1 -10   2    9.82   13.65
   1 -10  -2    1.51    8.88
   1 -10  -2    2.41    7.79
  -1 -10  -2   30.90   23.12
  -1 -10  -2   16.88   15.58
  -1  -9  -2   14.71   12.14
   1  -9  -2   14.57   19.44
   1  -9   2   10.46    9.84
   1  -9  -2   16.97   13.75
  -1  -9  -2    1.78   10.74
  -1  -8  -2  -13.18   12.10
  -1  -8   2  -10.20   11.82
   1  -8  -2    0.80    9.45
  -1  -8  -2  -11.77    8.97
   1  -8   2    1.32    7.26
   1  -8  -2   -3.43    8.48
   1  -7  -2  128.27   33.31
   1  -7  -2  121.70   28.42
   1  -7   2  131.45   32.56
  -1  -7  -2  137.07   33.52
  -1  -7   2  128.31   28.82
  -1  -7  -2  110.95   31.11
  -1  -6   2   12.13    8.94
   1  -6   2    6.76    6.55
  -1  -6  -2   29.08   18.61
   1  -6  -2   32.85   17.60
   1  -5   2  465.86   53.04
   1  -5  -2  477.98   56.62
  -1  -5   2  516.61   48.90
  -1  -5  -2  541.88   55.88
  -1  -4  -2   11.49    5.61
  -1  -4   2   22.64   10.28
   1  -4   2   19.06   11.65
   1  -4  -2   -3.84    9.35
  -1  -3  -2   54.98   13.32
   1  -3   2   49.37   14.96
   1  -3  -2   57.04   16.11
  -1  -3   2   64.58   13.33
   1  -2   2 1839.19   77.42
  -1  -2  -2 1766.80   71.41
  -1  -1   2  575.55   20.51
   1  -1  -2  687.90   38.35
  -1  -1  -2  653.40   38.48
  -1   0   2    7.41    4.13
   1   0   2    1.01    1.87
  -1   0  -2    4.70    4.05
   1   0  -2    7.12    4.16
  -1   1  -2  710.86   37.11
  -1   1  -2  796.85   45.82
  -1   1   2  753.73   41.94
   1   1   2  641.07   38.71
  -1   2   2 1631.05   73.53
   1   2   2 1747.78   72.32
  -1   2  -2 1649.62   75.91
   1   2  -2 1799.91   79.80
   1   2  -2 1572.00   60.16
   1   3  -2   41.78    8.47
  -1   3  -2   50.13   16.01
   1   3  -2   76.42   15.53
   1   4  -2    8.89    6.74
   1   4  -2   27.58   12.52
   1   5  -2  470.86   40.02
   1 -11  -3   -1.26    3.62
   1 -11  -3   11.74   13.44
  -1 -11  -3    8.30   15.88
  -1 -11  -3  -19.65   17.14
  -1 -10  -3   43.53   24.87
   1 -10  -3   21.31   22.02
   1 -10   3   37.33   21.43
  -1 -10  -3   45.00   23.31
   1  -9  -3   10.08   12.28
   1  -9  -3    9.41    8.77
   1  -9   3  -11.79   12.78
  -1  -9  -3   16.49   16.16
  -1  -9  -3    5.70    5.35
   1  -8   3   40.11   17.08
  -1  -8  -3   54.25   23.94
   1  -8  -3   34.48   15.91
   1  -8  -3   28.36   18.55
  -1  -8   3   51.27   20.23
  -1  -8  -3   32.75   18.02
  -1  -7  -3   26.10   17.93
  -1  -7   3   26.53   14.36
   1  -7   3   19.25   12.89
   1  -7  -3   10.66   11.59
   1  -6   3  353.55   49.85
   1  -6  -3  360.76   53.15
  -1  -6  -3  374.57   52.45
  -1  -6   3  358.52   45.96
  -1  -5   3    3.22    7.43
  -1  -5  -3   10.42    7.50
   1  -5  -3   -0.32    7.71
   1  -5   3    2.41    7.54
  -1  -4  -3  219.67   35.50
   1  -4   3  186.92   32.37
   1  -4  -3  211.23   35.14
  -1  -3  -3  168.48   28.53
   1  -3  -3  136.00   24.64
   1  -3   3  168.87   28.29
   1  -2  -3  402.66   38.25
  -1  -2  -3  430.88   40.19
   1  -1  -3  129.53   19.87
   1  -1   3  126.87   18.94
  -1  -1  -3  121.96   19.44
  -1  -1   3  116.41   13.48
   1   0   3  261.02   28.15
  -1   0  -3  245.05   25.08
   1   0  -3  259.02   23.20
  -1   0   3  265.96   24.53
   1   1   3  110.16   19.41
   1   1  -3  119.42   13.46
  -1   1  -3  133.91   18.78
  -1   1   3  144.66   21.16
  -1   2  -3  381.49   32.73
   1   2  -3  300.20   18.55
   1   3  -3  156.75   24.73
   1   4  -3  120.46   16.90
   1   5  -3    5.42    3.51
  -1 -11  -4   17.04   11.48
  -1 -10  -4  -11.02   14.78
  -1 -10  -4  -17.33   16.98
   1 -10  -4    5.04    6.08
  -1  -9  -4  106.02   35.66
   1  -9   4  124.45   35.53
  -1  -9  -4  116.04   35.02
   1  -9  -4  129.87   35.08
   1  -9  -4  130.88   40.60
   1  -8  -4   16.93   18.20
   1  -8   4    5.43    9.77
  -1  -8  -4    2.20   14.62
   1  -7  -4  194.07   43.25
   1  -7   4  146.95   35.38
  -1  -7  -4  210.50   44.16
   1  -6  -4   -3.35    7.92
  -1  -6  -4   24.65   15.78
   1  -6   4   15.67   11.14
   1  -5  -4  380.62   52.19
  -1  -5  -4  450.78   55.22
   1  -5   4  507.59   59.80
  -1  -4  -4  364.49   46.50
   1  -4  -4  340.02   47.96
   1  -3  -4 1534.37   87.24
  -1  -3  -4 1566.17   87.50
  -1  -2  -4   15.16    6.81
   1  -2  -4   14.94    8.92
  -1  -1  -4  365.73   38.22
   1  -1   4  413.24   39.25
  -1  -1   4  393.59   31.61
   1  -1  -4  379.12   36.63
   1   0  -4   16.04    6.41
  -1   0  -4   19.19    8.51
  -1   0   4   18.61    7.83
  -1   1  -4  398.70   36.40
   1   1  -4  392.60   30.73
  -1   2  -4   36.59   12.67
   1   2  -4   14.91    5.27
   1   3  -4 1354.78   51.74
  -1   3  -4 1527.86   74.91
   1   4  -4  230.53   23.17
   1   4  -4  200.45   22.55
   1   5  -4  381.21   33.46
  -1 -10  -5   64.63   30.51
   1 -10  -5   46.52   25.40
  -1 -10  -5   31.04   26.41
   1  -9  -5   38.96   22.93
  -1  -9  -5   -1.59   12.53
   1  -8  -5  243.11   54.37
  -1  -8  -5  223.81   50.29
   1  -7  -5   13.81   12.72
  -1  -7  -5   23.95   18.62
   1  -6  -5   43.10   16.66
  -1  -6  -5   62.60   21.38
  -1  -5  -5   25.12   18.51
   1  -5  -5   45.80   19.27
   1  -4  -5  819.78   73.11
  -1  -4  -5  823.55   73.11
   1  -3  -5  131.27   29.06
  -1  -3  -5   96.92   25.99
  -1  -2  -5  310.83   40.61
   1  -2  -5  314.56   40.35
  -1  -2   5  321.87   32.86
  -1  -1  -5  116.97   24.05
  -1  -1   5  129.14   21.81
   1  -1  -5   94.19   21.23
  -1   0  -5  264.93   33.91
   1   0  -5  319.10   34.39
   1   1  -5  127.46   20.69
  -1   1  -5  152.02   25.83
  -1   2  -5  344.53   37.62
   1   2  -5  340.72   31.64
  -1   3  -5  193.05   30.47
   1   3  -5   84.58   15.30
  -1   4  -5  833.00   63.49
   1   4  -5  685.13   43.88
   1   5  -5   17.93    7.89
   1   5  -5   28.00    9.64
  -1  -9  -6  115.77   40.34
   1  -9  -6   84.92   33.36
   1  -8  -6    0.29    6.02
  -1  -8  -6   12.21   12.02
  -1  -7  -6  184.81   43.75
   1  -7  -6  215.60   48.46
  -1  -6  -6   83.76   30.49
   1  -6  -6   54.90   24.93
   1  -5  -6  434.34   60.53
  -1  -5  -6  422.34   59.02
   1  -4  -6   30.10   16.83
  -1  -4  -6   12.12   11.56
  -1  -3  -6  670.69   66.09
   1  -3  -6  667.26   66.64
  -1  -2  -6   13.42   10.65
   1  -2  -6   11.54    8.59
  -1  -2   6   14.30    7.44
   1  -1  -6  941.91   70.56
  -1  -1  -6  928.62   74.45
  -1   0  -6   40.32   17.06
   1   0  -6   53.71   18.80
   1   1  -6  982.05   64.67
  -1   1  -6 1121.82   73.70
  -1   2  -6    1.11    2.98
   1   2  -6   -1.66    4.22
   1   3  -6  607.41   47.09
  -1   3  -6  638.31   57.60
  -1   4  -6    7.24    6.26
   1   4  -6   -1.85    4.60
  -1   5  -6  384.56   47.51
   1   5  -6  377.89   35.51
  -1   6  -6   55.52   19.33
   1  -9  -7   -0.70    9.54
  -1  -9  -7   -9.37   14.51
   1  -8  -7   36.04   18.89
  -1  -8  -7   25.87   17.03
  -1  -7  -7   10.60   14.87
   1  -7  -7    7.39   13.38
  -1  -6  -7  380.30   61.88
   1  -6  -7  328.72   57.82
   1  -5  -7   35.88   19.31
  -1  -5  -7   35.74   20.06
  -1  -4  -7  166.70   38.01
   1  -4  -7  115.96   30.59
  -1  -3  -7   22.83   10.82
   1  -3  -7   20.65   10.83
  -1  -2  -7  476.24   58.02
   1  -2  -7  494.03   57.88
  -1  -1  -7   14.85   11.00
   1  -1  -7   13.83   10.10
  -1   0  -7  885.93   74.15
   1   0  -7  840.65   69.20
  -1   1  -7   27.25   10.90
   1   1  -7   34.46   13.57
   1   2  -7  604.02   55.39
  -1   2  -7  627.67   60.64
  -1   3  -7   66.25   19.51
   1   3  -7   40.47   14.97
  -1   4  -7  148.17   30.35
   1   4  -7  183.48   29.00
  -1   5  -7  -19.64   12.52
   1  -8  -8   12.07   12.41
  -1  -8  -8    8.34   11.31
   1  -7  -8  129.81   40.43
  -1  -7  -8  128.60   39.14
   1  -6  -8   18.67   13.67
  -1  -6  -8   25.41   17.48
   1  -5  -8  234.79   48.65
  -1  -5  -8  216.67   46.90
  -1  -4  -8    5.06    9.98
   1  -4  -8   -9.20   11.00
   1  -3  -8  178.23   38.23
  -1  -3  -8  209.92   41.34
   1  -2  -8   11.55   11.55
  -1  -2  -8   -1.47    4.47
  -1  -1  -8  571.67   67.94
   1  -1  -8  582.33   67.33
   1   0  -8   -3.23   10.28
  -1   0  -8   -3.52    6.40
  -1   1  -8  793.66   77.03
   1   1  -8  737.12   69.69
   1   2  -8    8.00    6.67
  -1   2  -8    7.71    6.93
   1   3  -8  287.17   41.32
  -1   3  -8  279.30   44.79
  -1   4  -8   16.81   13.90
  -1  -7  -9   15.73   14.21
   1  -7  -9   19.73   17.38
  -1  -6  -9   70.87   31.02
   1  -6  -9   53.44   26.02
   1  -5  -9   18.23   16.38
  -1  -5  -9   13.92   14.04
  -1  -4  -9  221.55   50.75
   1  -4  -9  196.50   44.28
  -1  -3  -9   -4.76   11.04
   1  -3  -9    9.84   14.93
   1  -2  -9  209.60   45.08
  -1  -2  -9  180.91   42.27
   1  -1  -9   28.73   15.39
  -1  -1  -9   -2.66    5.17
  -1   0  -9  514.05   68.03
   1   0  -9  508.95   64.95
   1   1  -9    7.71    8.69
  -1   1  -9   12.56   11.12
  -1   2  -9  282.81   49.28
   1   2  -9  273.67   45.65
  -1   3  -9   22.32   15.80
  -1  -6 -10   39.08   24.30
   1  -6 -10    4.38   11.85
   1  -5 -10   65.50   27.42
  -1  -5 -10   32.57   20.26
  -1  -4 -10    7.83    9.66
   1  -4 -10   -0.25    7.59
  -1  -3 -10  214.23   48.66
   1  -3 -10  233.15   50.55
  -1  -2 -10   -8.21    5.79
   1  -2 -10   12.93   13.59
  -1  -1 -10  153.83   38.80
   1  -1 -10  199.83   45.88
   1   0 -10   37.07   22.56
  -1   0 -10   -9.17   11.06
   1   1 -10  184.52   41.95
  -1   1 -10  215.15   48.14
  -1   2 -10   17.62   17.95
   1  -5 -11    9.10   10.22
  -1  -5 -11   18.31   18.12
   1  -4 -11   77.47   32.93
  -1  -4 -11   44.68   25.65
  -1  -3 -11    1.98    4.42
   1  -3 -11    7.82    6.83
  -1  -2 -11  147.41   42.22
   1  -2 -11  125.68   40.89
  -1  -1 -11   -3.98   11.61
   1  -1 -11   17.33   13.22
  -1   0 -11   85.26   34.55
   1   0 -11   75.74   33.27
  -1   1 -11    5.11   14.02
   1  -4 -12   29.34   25.49
   1  -3 -12   74.86   33.31
  -1  -3 -12   12.83   15.00
  -1  -2 -12    8.62   14.37
   1  -2 -12   -4.33   13.22
  -1  -1 -12   28.57   20.66
   1  -1 -12   22.97   17.98
  -1   0 -12  -11.01   16.56
   1  -2 -13    3.24   12.87
  -1  -1 -13    2.10    6.63
  -2 -11   0    4.91    6.00
   2 -11   0  -18.37   15.28
  -2 -10   0   38.92   21.62
   2 -10   0   72.17   32.19
   2  -9   0    5.43    9.97
  -2  -9   0    6.49    9.40
  -2  -9   0    6.53    4.47
  -2  -8   0  197.97   39.87
  -2  -8   0  218.95   45.09
   2  -8   0  220.96   44.93
  -2  -8   0  228.93   37.62
  -2  -7   0  148.72   28.99
   2  -7   0  102.25   28.74
  -2  -7   0  152.44   34.04
  -2  -7   0  161.31   36.60
  -2  -6   0  402.73   41.79
  -2  -6   0  377.59   49.34
   2  -6   0  424.48   45.25
  -2  -6   0  418.04   49.11
   2  -6   0  416.27   54.73
   2  -5   0   53.77   12.97
   2  -5   0   91.37   23.52
  -2  -5   0  105.70   21.63
  -2  -5   0   78.63   21.21
   2  -4   0 1239.82   59.92
  -2  -4   0 1387.36   80.07
  -2  -4   0 1318.49   65.00
  -2  -3   0  275.39   27.77
  -2  -2   0 1581.16   51.25
  -2  -1   0   34.30    6.10
   2   0   0 5337.79   86.26
   2   1   0   41.13    7.67
  -2   2   0 1682.86   75.47
   2   2   0 1619.94   51.48
  -2   2   0 1526.85   38.98
   2   3   0  199.11   22.94
   2   4   0 1458.86   69.36
  -2 -11  -1   83.36   34.17
   2 -11  -1  113.48   38.96
   2 -11   1   56.26   29.72
  -2 -10  -1   -3.96    8.33
   2 -10   1    8.35    8.88
   2 -10  -1  -19.70   19.44
  -2  -9   1  100.39   34.52
  -2  -9  -1   73.05   27.28
   2  -9  -1   87.63   28.18
  -2  -9  -1  102.94   33.03
   2  -9  -1  102.53   32.44
   2  -9   1   88.03   29.65
  -2  -8  -1   11.19    8.05
  -2  -8  -1   36.04   15.71
  -2  -8   1    2.83    5.05
   2  -8  -1    3.08    9.84
  -2  -8   1    6.50    7.52
   2  -8  -1    2.18   14.80
   2  -8   1   17.36   12.10
  -2  -8   1   -4.27    5.05
   2  -8  -1    3.80    9.43
  -2  -8  -1   18.90   13.24
  -2  -7  -1  284.75   45.80
  -2  -7   1  258.43   46.90
   2  -7   1  323.33   51.80
   2  -7  -1  266.55   46.87
   2  -7  -1  305.75   42.35
  -2  -7   1  268.69   38.35
  -2  -7  -1  278.50   44.89
  -2  -7   1  243.83   38.53
  -2  -6   1    5.02    3.88
   2  -6  -1   12.51    9.16
   2  -6   1   -3.88    7.03
  -2  -6   1    3.49    8.18
  -2  -6  -1   40.28   18.20
   2  -6  -1   31.64   16.88
  -2  -6   1    7.36   10.48
  -2  -6  -1   24.89   14.59
   2  -5   1  745.61   68.23
  -2  -5  -1  730.13   59.09
  -2  -5   1  690.31   51.07
  -2  -5   1  703.48   50.23
   2  -5  -1  770.45   69.03
   2  -5  -1  716.25   51.07
  -2  -5   1  745.79   68.35
  -2  -4  -1  302.84   35.38
  -2  -4   1  257.62   27.33
  -2  -4   1  197.83   22.04
   2  -4  -1  303.90   40.99
   2  -4  -1  302.25   28.69
  -2  -4   1  290.26   38.81
  -2  -3   1 1207.92   43.09
  -2  -3   1 1306.54   73.61
  -2  -3   1 1073.75   42.01
  -2  -3  -1 1153.05   59.45
   2  -3   1 1210.01   73.00
   2  -3  -1 1237.17   72.22
  -2  -2   1  178.48   23.70
   2  -2  -1  178.79   25.59
  -2  -2   1  126.04   10.00
  -2  -2  -1  176.79   20.27
   2  -2   1  187.92   25.69
   2  -1  -1 1601.04   61.06
  -2  -1   1 1612.55   60.34
   2  -1   1 1482.68   61.85
  -2   0  -1   40.20    8.48
  -2   0   1   45.21    8.79
  -2   0  -1   39.19    9.26
   2   0   1   55.29   10.22
   2   0  -1   46.34    7.88
   2   1   1 1818.29   62.79
  -2   1  -1 1645.00   66.77
  -2   1   1 1600.33   64.74
   2   1  -1 1722.00   61.31
   2   2  -1  212.32   25.27
   2   2  -1  140.46   11.40
  -2   2  -1  193.72   27.15
  -2   2   1  231.74   29.56
   2   2   1  180.49   20.44
  -2   3  -1 1196.74   59.01
   2   3  -1 1120.10   42.17
   2   3   1 1197.32   60.60
   2   4  -1  250.04   26.00
  -2   4  -1  346.48   36.72
   2   5  -1  723.93   50.65
   2 -11  -2  -20.19   16.63
  -2 -11  -2   -8.55   12.66
   2 -10  -2  126.69   39.79
  -2 -10  -2  168.11   43.96
  -2 -10  -2  155.98   45.43
   2 -10   2  121.43   36.69
   2  -9   2    5.49    7.57
  -2  -9  -2   19.28   14.01
   2  -9  -2   10.10    8.44
   2  -9  -2   -6.13   16.68
  -2  -9  -2   40.07   26.27
   2  -8  -2  139.36   31.11
   2  -8  -2  139.03   38.35
  -2  -8  -2  137.55   35.12
   2  -8   2  103.76   32.81
  -2  -8  -2  190.85   43.53
  -2  -8   2  114.38   28.20
  -2  -7  -2   18.43   12.57
  -2  -7   2   13.84    5.19
  -2  -7   2   10.19    7.90
   2  -7  -2   -1.91    5.73
   2  -7   2   14.66   11.99
   2  -7  -2   -7.10   12.75
  -2  -6   2  422.78   44.62
  -2  -6   2  370.68   53.46
  -2  -6  -2  439.59   52.95
   2  -6  -2  433.62   57.53
   2  -6  -2  404.40   42.42
   2  -6   2  422.47   56.38
   2  -5   2   22.33   12.30
  -2  -5  -2   61.27   21.19
  -2  -5   2  104.09   21.49
   2  -5  -2   81.35   25.61
  -2  -4  -2  667.16   54.87
  -2  -4   2  631.81   60.73
   2  -4   2  612.83   58.94
   2  -4  -2  696.33   63.03
  -2  -3  -2   95.11   19.51
   2  -3   2   80.11   20.84
   2  -3  -2   98.49   23.13
  -2  -3   2   82.94   19.38
   2  -2  -2 1975.67   84.62
   2  -2   2 2149.34   91.79
  -2  -2  -2 2205.85   82.46
  -2  -1   2  172.42   11.95
   2  -1  -2  192.29   24.22
  -2  -1  -2  134.05   18.81
   2  -1   2  153.45   23.13
   2   0  -2 1461.50   50.46
  -2   0   2 1587.02   53.38
  -2   0  -2 1344.83   59.39
   2   0   2 1352.28   60.52
  -2   1  -2  122.78   20.84
   2   1   2  107.56   18.98
  -2   1   2  181.09   23.40
   2   1  -2  205.18   26.26
   2   2   2 2223.38   84.64
  -2   2   2 1927.88   86.70
  -2   2  -2 2041.28   92.24
   2   2  -2 2055.30   88.29
   2   3  -2   87.85   14.33
   2   3  -2   73.69    7.26
   2   4  -2  536.87   30.66
   2   5  -2  112.50   19.41
   2 -11  -3   34.93   23.74
  -2 -11  -3   19.89   19.66
  -2 -11  -3   38.51   22.70
  -2 -10  -3   13.00   15.43
  -2 -10  -3   17.09   23.21
   2 -10   3   12.32   12.82
   2 -10  -3   26.12   19.23
   2  -9   3  126.33   36.58
   2  -9  -3  146.13   41.05
  -2  -9  -3  133.69   40.60
  -2  -9  -3  126.85   36.64
   2  -8  -3    4.58    3.98
   2  -8  -3   -6.34   10.08
   2  -8   3   10.19   10.50
  -2  -8  -3   -2.59   11.70
   2  -7   3  119.47   32.25
   2  -7  -3  158.14   30.35
  -2  -7  -3  130.00   32.11
   2  -7  -3  166.68   41.36
   2  -6   3   18.66   12.51
   2  -6  -3   26.41   13.95
  -2  -6  -3   23.29   13.70
  -2  -5  -3  419.36   50.60
   2  -5  -3  351.22   49.83
   2  -5   3  322.10   47.41
  -2  -4  -3  102.71   22.87
   2  -4  -3  129.06   28.32
   2  -4   3   92.60   24.92
   2  -3  -3  873.81   66.90
   2  -3   3  938.56   69.44
  -2  -3  -3  952.47   65.65
   2  -2  -3  150.65   24.19
  -2  -2  -3  171.13   26.06
   2  -1  -3 1289.93   62.26
  -2  -1  -3 1116.25   60.92
  -2  -1   3 1140.88   39.69
   2   0   3   61.09   15.61
  -2   0   3   91.46   14.68
   2   0  -3   93.52   14.63
  -2   0  -3   80.01   17.22
  -2   1  -3 1282.93   64.70
   2   1  -3 1270.49   40.81
  -2   1   3 1327.85   66.62
   2   3  -3  857.27   54.18
   2   4  -3   82.68   18.63
   2   4  -3   50.28    6.46
   2   5  -3  249.01   22.16
   2   6  -3   18.64    7.69
  -2 -11  -4   -2.67    5.01
  -2 -11  -4   60.15   27.83
  -2 -10  -4   50.67   26.39
   2 -10  -4   14.27   15.42
   2 -10   4   29.66   20.63
  -2 -10  -4   30.80   20.54
   2  -9   4    2.46   10.95
   2  -9  -4   18.17   12.69
  -2  -9  -4   13.77   14.16
   2  -8  -4  201.26   49.61
   2  -8  -4  221.13   40.05
   2  -8   4  189.92   43.81
  -2  -8  -4  183.90   44.63
   2  -7   4    6.40    6.64
   2  -7  -4    7.44   12.00
  -2  -7  -4   -1.50    6.48
   2  -6   4   68.16   23.11
   2  -6  -4   89.95   28.72
  -2  -6  -4  103.38   29.07
   2  -5  -4   -4.87    6.66
   2  -5   4    5.03    8.00
   2  -4  -4  323.72   45.87
   2  -4   4  388.25   52.17
  -2  -4  -4  365.33   46.89
  -2  -3  -4   66.42   19.56
   2  -3  -4   63.13   18.24
  -2  -2   4  278.98   20.54
  -2  -2  -4  354.43   41.12
   2  -2  -4  421.29   44.50
  -2  -1  -4   23.35   11.35
  -2  -1   4   22.53    6.96
   2  -1  -4   34.56   12.39
  -2   0   4  835.64   51.62
  -2   0  -4  773.55   54.46
   2   0  -4  839.94   48.33
  -2   1  -4   22.24   10.77
   2   1  -4   23.99    7.91
   2   2  -4  341.15   20.38
  -2   2  -4  411.57   43.13
   2   5  -4    5.87    4.05
   2   5  -4   -0.18    2.33
  -2 -11  -5   17.06   13.38
   2 -10  -5    3.04   10.14
  -2 -10  -5   23.96   18.75
  -2 -10  -5   33.17   19.34
   2  -9  -5   45.04   27.83
  -2  -9  -5   -6.01   14.47
   2  -8  -5   23.16   18.67
  -2  -8  -5   10.66   10.51
   2  -7  -5  109.15   35.26
  -2  -7  -5  148.36   37.45
   2  -6  -5   -5.81    7.78
  -2  -6  -5    3.87   10.10
   2  -5  -5   35.48   14.92
  -2  -5  -5   68.93   22.98
  -2  -4  -5   -6.46    6.83
   2  -4  -5   15.33   12.00
   2  -3  -5  249.13   39.43
  -2  -3  -5  227.69   37.41
   2  -2  -5  242.76   34.81
  -2  -2   5  170.84   21.26
  -2  -2  -5  215.15   35.43
   2  -1  -5  520.20   47.20
  -2  -1  -5  477.95   48.68
  -2  -1   5  559.64   41.92
   2   0  -5   52.87   14.75
  -2   0  -5   30.40   14.36
  -2   1  -5  554.26   50.42
   2   1  -5  672.78   44.52
   2   2  -5  230.25   22.34
  -2   2  -5  275.55   36.55
  -2   3  -5  318.64   41.63
   2   3  -5  211.74   17.69
   2   4  -5    6.79    2.88
  -2   4  -5   13.80   10.98
   2   4  -5    6.86    2.99
  -2  -9  -6  -20.77   20.59
   2  -9  -6   20.82   18.64
   2  -8  -6   -8.21   17.27
  -2  -8  -6   20.83   18.26
   2  -7  -6   28.62   23.03
  -2  -7  -6    4.19   10.64
   2  -6  -6   53.48   22.96
  -2  -6  -6   75.24   27.21
  -2  -5  -6    8.54    9.17
   2  -5  -6  -12.58   13.24
  -2  -4  -6   -3.06    6.45
   2  -4  -6   19.42   12.77
  -2  -3  -6    8.49    8.41
   2  -3  -6   17.53   10.74
   2  -2  -6  123.04   27.18
  -2  -2  -6  137.28   30.68
  -2  -2   6  118.11   22.15
   2  -1  -6  182.23   31.05
  -2  -1  -6  178.89   33.95
   2   0  -6   66.61   18.20
  -2   0  -6   45.75   16.40
   2   1  -6  239.33   30.62
  -2   1  -6  199.07   32.75
   2   2  -6  141.13   21.98
  -2   2  -6  183.12   32.90
   2   3  -6   -4.10    4.83
  -2   3  -6   -1.69    5.47
  -2   4  -6    4.25    6.97
   2   4  -6    2.24    3.33
  -2   5  -6   16.64   12.06
  -2   6  -6   52.27   18.90
  -2  -9  -7  -17.80   18.72
   2  -8  -7   58.56   29.77
  -2  -8  -7   26.20   21.09
   2  -7  -7   -8.82   12.49
  -2  -7  -7   15.22   15.49
  -2  -6  -7    2.22    4.31
   2  -6  -7   -2.60    6.34
  -2  -5  -7   35.90   16.83
   2  -5  -7   46.61   21.05
  -2  -4  -7   23.02   13.73
   2  -4  -7   19.93   15.61
  -2  -3  -7    1.98    4.44
   2  -3  -7    1.61    4.51
  -2  -2  -7   19.47   13.36
   2  -2  -7    0.50    3.07
  -2  -1  -7  127.33   30.92
   2  -1  -7  129.76   30.63
  -2   0  -7   30.52   18.03
   2   0  -7   26.03   14.85
  -2   1  -7  154.21   33.35
   2   1  -7  158.71   29.89
   2   2  -7    1.97    2.54
  -2   2  -7    9.02    6.75
   2   3  -7    6.36    6.66
  -2   3  -7   14.88   11.65
  -2   4  -7   12.26    6.88
  -2   5  -7   33.22   14.81
  -2   6  -7   25.55   15.33
   2  -8  -8   14.87   13.71
  -2  -8  -8   -7.32    8.81
   2  -7  -8   29.08   23.05
  -2  -7  -8   11.41   16.49
   2  -6  -8    1.03    9.38
  -2  -6  -8   28.48   17.39
  -2  -5  -8    6.82   14.78
   2  -5  -8   17.45   14.06
  -2  -4  -8    7.28   13.02
   2  -4  -8    3.53    5.05
  -2  -3  -8   21.93   11.80
   2  -3  -8   16.07   13.25
  -2  -2  -8   32.49   15.21
   2  -2  -8   14.49   11.57
  -2  -1  -8   29.85   16.05
   2  -1  -8   24.42   15.51
   2   0  -8  234.46   42.55
  -2   0  -8  200.83   40.40
  -2   1  -8   84.97   27.22
   2   1  -8   52.22   19.01
  -2   2  -8   51.94   20.40
   2   2  -8   13.96    6.36
  -2   3  -8   33.04   14.36
  -2   4  -8   24.59   16.11
  -2   5  -8   -8.24   13.18
   2  -7  -9   21.51   17.81
  -2  -7  -9   13.31   14.98
   2  -6  -9  -23.12   17.85
  -2  -6  -9   16.07   12.24
  -2  -5  -9    6.10   10.44
   2  -5  -9   26.40   20.05
   2  -4  -9  -10.07   13.55
  -2  -4  -9    3.97    7.69
  -2  -3  -9   22.25   24.40
   2  -3  -9   -9.45    9.86
  -2  -2  -9    4.90   11.24
   2  -2  -9   11.92   12.39
  -2  -1  -9   89.82   30.15
   2  -1  -9  123.84   34.57
  -2   0  -9   12.74   10.89
   2   0  -9   -4.62    8.01
  -2   1  -9  147.46   37.17
   2   1  -9  125.57   32.84
  -2   2  -9   -9.94   11.77
  -2   3  -9   -6.32    3.42
  -2   4  -9   41.78   19.93
  -2  -6 -10   41.41   23.79
   2  -6 -10   38.19   23.42
   2  -5 -10   25.17   20.80
  -2  -5 -10   29.47   21.55
  -2  -4 -10   65.65   24.64
   2  -4 -10   60.72   27.35
   2  -3 -10  -15.01   15.29
  -2  -3 -10  -29.50   16.60
   2  -2 -10   44.75   25.66
  -2  -2 -10   35.73   19.93
  -2  -1 -10   20.08   14.65
   2  -1 -10   11.28    7.81
  -2   0 -10   98.14   31.32
   2   0 -10  162.40   39.85
  -2   1 -10    0.98    9.09
   2   1 -10   20.27   17.37
  -2   2 -10   59.78   23.49
  -2   3 -10   15.24   11.79
   2  -5 -11   43.50   26.75
  -2  -4 -11   27.81   19.15
   2  -4 -11   18.12   17.81
  -2  -3 -11  105.57   36.42
   2  -3 -11   76.28   32.69
   2  -2 -11   27.22   20.26
  -2  -2 -11   -0.10    7.34
  -2  -1 -11   44.94   22.36
   2  -1 -11   53.11   26.00
  -2   0 -11    4.36   14.57
  -2   1 -11   19.55   18.30
  -2   2 -11  -15.64   18.09
   2  -4 -12   85.24   35.95
  -2  -3 -12    1.31    4.86
   2  -3 -12    7.16   15.52
  -2  -2 -12  140.49   44.25
   2  -2 -12  162.16   48.91
  -2  -1 -12  -17.89   16.26
  -2   0 -12  -11.88   14.52
  -2   1 -12   16.97   16.20
  -2  -1 -13   23.71   20.05
  -2   0 -13    0.76    8.44
  -3 -11   0   -6.30    9.70
   3 -11   0   -3.13    6.60
   3 -10   0    6.46    4.15
  -3 -10   0   -7.48   10.14
   3  -9   0   20.58   15.40
  -3  -9   0   -4.14    7.49
  -3  -8   0  -17.90   13.59
   3  -8   0  -11.53   12.98
  -3  -8   0   -0.13    7.59
  -3  -7   0   23.58   14.65
   3  -7   0   17.76   18.36
  -3  -7   0   38.15   22.52
  -3  -7   0   51.28   23.59
  -3  -6   0   17.33   14.13
   3  -6   0  -13.32   11.14
  -3  -6   0   17.50   16.16
  -3  -6   0   13.15    9.28
   3  -5   0    4.28    3.97
  -3  -5   0    4.23    7.35
  -3  -5   0   -1.42    4.14
  -3  -5   0    0.57    3.14
  -3  -4   0   -3.22    5.82
  -3  -4   0   -3.63    5.82
   3  -4   0   14.92   11.99
  -3  -3   0    3.42    3.65
   3  -3   0    0.90    3.01
   3  -2   0   -1.68    5.21
  -3  -2   0   26.99   11.39
  -3  -1   0    2.08    3.85
   3  -1   0   15.90   10.96
   3   0   0    0.51    1.50
   3   1   0    2.37    1.67
   3   2   0   34.59   12.44
   3   3   0   -1.43    3.00
   3   4   0   -1.81    2.69
   3 -11   1  -11.36   12.58
   3 -11  -1   23.42   18.66
  -3 -11  -1   13.69   16.71
  -3 -10   1   18.83   16.95
   3 -10   1   -7.05   11.22
   3 -10  -1    3.30    7.98
  -3 -10  -1    3.05    9.69
   3  -9   1   17.09   15.68
   3  -9  -1    5.45   10.76
  -3  -9   1   -2.84   11.73
  -3  -9  -1    3.22    6.51
  -3  -9  -1   -1.44    8.63
   3  -8   1   58.15   24.49
  -3  -8  -1   51.45   18.30
  -3  -8   1   54.76   17.87
   3  -8  -1   66.45   28.30
  -3  -8  -1   56.12   24.65
  -3  -8   1   57.71   26.80
  -3  -8  -1   60.67   25.96
  -3  -7  -1   15.26   14.06
   3  -7   1   14.27    3.29
  -3  -7   1    2.01    5.54
   3  -7  -1   14.24    8.74
  -3  -7   1    1.04    4.98
  -3  -7   1   -2.08    6.39
  -3  -7  -1   13.86   13.64
   3  -6   1   40.78   22.99
   3  -6  -1   44.28   16.47
  -3  -6   1   11.05   12.53
  -3  -6   1    0.41    2.65
  -3  -6  -1   27.71   16.92
  -3  -6   1   16.73   10.60
  -3  -6  -1   24.89   15.48
   3  -5  -1    2.95    5.38
  -3  -5   1   -2.02    5.98
   3  -5   1   11.03    7.56
  -3  -5   1    7.87    3.81
   3  -5  -1   11.56    9.20
  -3  -5  -1   12.10    7.49
  -3  -5   1    8.24    3.37
  -3  -4  -1    1.31    5.81
  -3  -4   1    0.93    1.67
  -3  -4   1   -4.15    8.11
   3  -4   1    0.51    4.81
   3  -4  -1   -8.76    9.31
   3  -4  -1    7.99    5.74
  -3  -4   1    6.37    3.77
   3  -3   1   19.52   10.96
  -3  -3   1   12.57    4.85
  -3  -3   1   16.41    6.82
  -3  -3  -1    5.88    5.18
   3  -3  -1    7.41    2.97
   3  -2   1  340.98   39.60
  -3  -2  -1  265.93   26.57
  -3  -2   1  252.24   18.59
  -3  -2   1  293.89   32.62
  -3  -1   1   10.07    5.90
  -3  -1  -1    7.09    4.82
   3  -1   1    1.37    2.78
  -3  -1  -1    6.01    4.20
  -3   0   1  105.69   13.16
  -3   0  -1  118.79   17.40
   3   0   1  135.62   18.56
  -3   1   1    3.38    4.79
   3   1   1    0.24    2.31
  -3   1  -1   -1.38    4.23
   3   2   1  300.78   30.90
   3   3  -1   12.57    4.60
   3   3   1   15.19    5.81
  -3   4  -1    4.18    4.78
   3   4  -1    4.16    4.07
   3   5  -1   14.35    7.28
   3 -11   2  -18.50   15.69
   3 -11  -2   -1.72    9.99
  -3 -10  -2   27.60   24.53
  -3 -10  -2   13.13   14.63
   3 -10   2   19.72   14.61
   3 -10  -2   27.19   20.42
  -3  -9  -2   25.93   19.35
   3  -9   2    8.69    7.62
   3  -9  -2    1.98    8.52
  -3  -9  -2   16.90   18.43
   3  -8  -2   -8.35    8.79
  -3  -8   2  -19.99   16.09
   3  -8   2   -7.76    9.45
   3  -8  -2   -4.00    6.33
  -3  -8  -2    4.81   10.14
  -3  -8  -2   -5.67    9.12
  -3  -7  -2   73.33   25.93
   3  -7  -2   78.68   20.30
   3  -7   2   87.41   29.64
  -3  -7   2  102.51   22.44
   3  -7  -2   86.38   28.41
  -3  -7   2   62.69   25.69
  -3  -6   2    1.52   11.07
   3  -6   2    1.82    5.12
   3  -6  -2   22.59   10.65
  -3  -6  -2   12.41   10.86
   3  -6  -2   25.75   16.31
   3  -5  -2   27.18   12.00
  -3  -5  -2   70.92   22.90
   3  -5   2   -2.56    8.33
  -3  -5   2   37.87   11.34
  -3  -5   2   50.86   22.57
   3  -5  -2   26.30   16.04
   3  -4   2   -7.32    7.07
  -3  -4  -2   14.98   10.13
  -3  -4   2   19.79    8.90
  -3  -4   2   34.42    7.91
   3  -4  -2   12.41    9.15
   3  -3  -2  121.44   25.79
  -3  -3  -2   86.82   18.18
  -3  -3   2  117.03   27.08
   3  -3   2   89.16   23.05
  -3  -2   2   87.56   18.01
  -3  -2  -2   98.87   18.68
   3  -2  -2   81.04   19.40
   3  -2   2  102.46   22.53
  -3  -1   2 1054.89   40.27
  -3  -1  -2  984.47   56.92
   3  -1   2 1027.22   61.27
   3  -1  -2 1014.62   56.68
  -3   0  -2   10.07    8.04
   3   0  -2    5.56    3.79
  -3   0   2    9.20    4.79
  -3   0  -2   11.49    7.71
   3   1   2 1093.13   63.40
  -3   1  -2 1047.03   64.25
  -3   1   2 1182.92   64.06
   3   1  -2 1078.07   58.03
   3   3  -2   99.73   12.82
   3   4  -2   27.69    7.41
   3   5  -2   37.46   11.43
   3   6  -2    9.95    5.08
   3 -11  -3    8.95   14.06
  -3 -11  -3   -3.74    7.49
   3 -11   3   30.17   19.63
   3 -10   3   37.87   19.11
  -3 -10  -3   56.36   26.46
  -3 -10  -3   75.71   33.67
   3  -9  -3   -1.04    7.88
   3  -9   3   -5.15    7.54
  -3  -9  -3  -11.20   12.78
  -3  -9  -3   -6.48    7.17
   3  -8   3   14.49    4.98
   3  -8  -3   14.28    6.98
  -3  -8  -3    6.95    4.75
   3  -7   3  -11.76   15.06
   3  -7  -3   -3.89   12.66
  -3  -7  -3   -8.38   14.52
   3  -7  -3   -4.92    8.58
   3  -6   3  113.58   31.30
   3  -6  -3  148.73   36.85
  -3  -6  -3  170.51   35.71
  -3  -5  -3   30.80    8.91
   3  -5   3   31.13   15.29
   3  -5  -3   42.53   19.85
   3  -4   3  146.18   32.79
  -3  -4  -3  191.25   34.03
   3  -4  -3  189.76   36.86
   3  -3   3   17.92   13.08
  -3  -3  -3   -0.76    3.90
   3  -3  -3    9.20    8.74
   3  -2   3  417.87   46.85
  -3  -2  -3  435.47   41.64
   3  -2  -3  439.62   44.10
  -3  -1   3   55.03   12.15
  -3  -1  -3   24.57   11.08
   3  -1  -3   27.58   11.18
   3   0  -3 1893.08   69.84
  -3   0  -3 1712.96   81.63
  -3   0   3 1921.87   71.64
  -3   1  -3    9.99    8.92
  -3   1   3   15.20    9.05
   3   3  -3    4.43    4.19
   3   4  -3  141.76   22.53
   3   5  -3   26.18    5.85
  -3 -11  -4   29.73   22.08
   3 -11   4   36.59   22.91
   3 -10  -4   -0.92    8.21
   3 -10   4   -3.63    6.95
  -3 -10  -4   14.27   21.76
  -3 -10  -4    7.00   10.32
   3  -9  -4   31.47   18.45
   3  -9   4   95.30   34.26
  -3  -9  -4   44.46   20.31
   3  -8  -4   19.42   14.70
   3  -8   4   31.90   18.58
  -3  -8  -4   21.52   21.02
   3  -7  -4   19.97    8.64
  -3  -7  -4   16.09    8.02
   3  -6  -4   -1.62    6.73
   3  -6   4    7.22    9.46
  -3  -6  -4  -14.47   14.66
   3  -5   4  489.38   64.45
  -3  -5  -4  298.02   46.12
   3  -5  -4  394.60   57.89
  -3  -4  -4   93.08   24.52
   3  -4  -4   66.00   20.00
   3  -4   4   65.55   22.98
   3  -3  -4  347.98   44.81
  -3  -3  -4  398.24   47.58
  -3  -2  -4   -3.42    5.25
  -3  -2   4    0.75    1.00
   3  -2  -4    3.01    5.27
  -3  -1   4 1008.76   48.16
  -3  -1  -4  847.87   61.06
   3  -1  -4 1004.22   63.10
  -3   0   4    9.07    6.78
   3   0  -4    5.61    5.73
  -3   0  -4   -4.11    5.93
   3   1  -4 1084.73   48.87
  -3   1  -4  964.73   66.45
  -3   2  -4    4.64    6.82
  -3 -10  -5   76.24   34.42
  -3 -10  -5   93.71   34.18
   3 -10   5   76.58   34.61
   3  -9   5   12.17   15.77
   3  -9  -5   10.62   12.48
  -3  -9  -5   18.60   16.20
   3  -8  -5   86.67   32.70
  -3  -8  -5   90.06   32.11
   3  -8   5   54.86   25.61
   3  -7   5    5.50    7.86
   3  -7  -5   13.80   11.44
  -3  -7  -5  -10.50   12.70
  -3  -6  -5   96.46   28.93
   3  -6  -5  108.05   32.07
  -3  -5  -5    1.11    6.18
   3  -5  -5   -3.78    9.78
   3  -4  -5  607.52   68.21
  -3  -4  -5  590.10   64.12
  -3  -3  -5   49.97   16.03
   3  -3  -5   87.51   24.01
  -3  -2  -5  654.53   60.57
   3  -2  -5  735.44   63.48
  -3  -2   5  637.64   37.08
  -3  -1   5   18.76    7.37
   3  -1  -5   14.10   10.13
  -3  -1  -5   10.43    7.13
  -3   0  -5  649.14   56.49
   3   0  -5  729.69   51.81
  -3   1  -5   11.84   10.22
   3   1  -5   18.95    7.60
   3   2  -5  689.01   35.70
  -3   2  -5  776.48   66.30
  -3   3  -5  103.12   25.70
  -3   4  -5  651.29   65.78
   3  -9  -6   93.94   36.80
  -3  -9  -6   70.70   30.02
   3  -8  -6   -3.96   11.74
  -3  -8  -6  -17.53   15.84
   3  -7  -6  145.58   42.47
  -3  -7  -6  127.42   37.96
  -3  -6  -6    6.41    5.33
   3  -6  -6   -2.05    9.93
  -3  -5  -6  132.12   32.37
   3  -5  -6  209.86   44.52
  -3  -4  -6    6.77    7.45
   3  -4  -6    7.70   10.23
   3  -3  -6  848.86   77.80
  -3  -3  -6  746.17   73.35
  -3  -2  -6    1.84   11.03
   3  -2  -6    3.48    3.51
  -3  -2   6    9.66    3.76
  -3  -1  -6  297.79   41.76
  -3  -1   6  352.87   36.71
   3  -1  -6  378.99   45.72
  -3   0  -6   21.16   10.79
   3   0  -6   18.32    9.98
  -3   1  -6  367.65   46.60
   3   1  -6  394.50   37.77
  -3   2  -6   10.27    3.75
   3   2  -6    5.26    5.11
  -3   3  -6  821.86   75.02
   3   3  -6  651.81   29.44
  -3   4  -6  -11.37   11.97
  -3   5  -6  169.47   36.68
  -3   6  -6   26.34   16.92
  -3  -9  -7   -3.50    8.49
  -3  -8  -7  111.60   36.26
   3  -8  -7  147.85   45.80
  -3  -7  -7  -23.96   17.65
   3  -7  -7    2.47    5.79
   3  -6  -7  242.43   53.02
  -3  -6  -7  249.94   52.04
  -3  -5  -7   -7.71   10.03
   3  -5  -7  -11.19   15.65
  -3  -4  -7  322.61   51.82
   3  -4  -7  291.56   50.80
   3  -3  -7  -13.70   13.24
  -3  -3  -7   -4.79   10.86
   3  -2  -7  595.20   65.48
  -3  -2  -7  502.53   60.73
  -3  -1  -7   24.76   13.19
   3  -1  -7   58.92   19.62
   3   0  -7  371.98   45.41
  -3   0  -7  292.15   44.94
  -3   1  -7   46.77   17.87
   3   1  -7   36.50   13.05
  -3   2  -7  606.04   64.87
   3   2  -7  617.94   47.68
  -3   3  -7  -16.14   15.49
  -3   4  -7  266.61   46.07
  -3   5  -7    8.63    8.91
  -3   6  -7  174.22   37.44
   3  -8  -8   10.58   16.12
  -3  -8  -8   16.29   14.04
   3  -7  -8  228.90   56.03
  -3  -7  -8  208.45   50.89
  -3  -6  -8   14.90   12.73
   3  -6  -8  -14.63   14.80
   3  -5  -8  297.74   60.17
  -3  -5  -8  303.28   55.16
   3  -4  -8    4.72    3.85
  -3  -4  -8   14.10   11.71
  -3  -3  -8  123.27   33.82
   3  -3  -8  131.88   34.52
  -3  -2  -8   -5.35    9.96
   3  -2  -8    4.79    9.29
   3  -1  -8  296.23   46.90
  -3  -1  -8  258.72   48.09
  -3   0  -8    7.94   11.66
   3   0  -8   22.10   14.00
   3   1  -8  310.38   42.09
  -3   1  -8  298.89   48.05
  -3   2  -8    0.01    6.25
   3   2  -8   11.06    5.21
  -3   3  -8  156.78   35.66
  -3   4  -8   35.44   16.26
  -3   5  -8  172.44   41.97
   3  -7  -9    7.50   13.05
  -3  -7  -9   14.11   17.54
  -3  -6  -9  252.05   55.60
   3  -6  -9  209.56   53.44
  -3  -5  -9   -6.10    5.25
   3  -5  -9   -2.07    5.24
   3  -4  -9  217.46   48.82
  -3  -4  -9  210.41   49.27
  -3  -3  -9   19.92   15.70
   3  -3  -9   -4.82    4.38
  -3  -2  -9   72.00   25.62
   3  -2  -9  112.86   32.81
  -3  -1  -9   -7.28   12.01
   3  -1  -9    0.15    6.95
   3   0  -9  480.76   61.46
  -3   0  -9  477.76   66.21
  -3   1  -9   34.69   20.70
   3   1  -9    4.72    7.32
  -3   2  -9  121.89   33.12
  -3   3  -9   -5.75    9.57
  -3   4  -9  198.38   43.12
   3  -6 -10   -2.44    8.31
  -3  -6 -10   43.77   28.09
  -3  -5 -10  138.16   41.11
   3  -5 -10   92.11   36.44
  -3  -4 -10    9.09    4.57
   3  -4 -10  -21.23   18.28
  -3  -3 -10   54.02   23.84
   3  -3 -10  108.07   35.27
  -3  -2 -10   40.52   21.21
   3  -2 -10   42.27   20.87
  -3  -1 -10   64.89   25.32
   3  -1 -10   66.26   26.93
  -3   0 -10    0.67    9.02
   3   0 -10    1.60   10.60
  -3   1 -10  114.24   34.80
  -3   2 -10   25.92   13.65
  -3   3 -10   80.53   28.76
   3  -5 -11   -8.83   10.90
  -3  -4 -11   46.44   25.43
   3  -4 -11   32.32   23.49
  -3  -3 -11   35.84   22.79
   3  -3 -11    8.87   11.97
  -3  -2 -11  109.93   38.13
   3  -2 -11  124.32   39.70
  -3  -1 -11    4.63    5.65
   3  -1 -11   -6.91   12.55
  -3   0 -11   34.98   22.65
  -3   1 -11   -4.34    9.26
  -3   2 -11  135.41   39.79
   3  -4 -12  -18.86   18.09
   3  -3 -12   47.60   29.39
  -3  -2 -12   -9.38   16.19
  -3  -1 -12   24.97   21.55
  -3   0 -12   25.19   19.67
  -3   1 -12   17.34   16.25
  -3   0 -13   55.21   32.35
   4 -11   0    9.55   12.13
   4 -10   0   32.55   21.16
  -4 -10   0   41.87   22.93
  -4  -9   0   10.30   11.57
   4  -9   0  -10.92   15.89
  -4  -8   0  355.35   59.00
  -4  -8   0  350.74   50.71
   4  -8   0  304.71   58.13
  -4  -7   0   -4.97   10.61
  -4  -7   0   14.40    8.13
  -4  -6   0  547.40   53.31
  -4  -6   0  551.27   40.06
   4  -6   0  607.67   73.47
  -4  -6   0  537.53   64.55
  -4  -5   0   65.07   20.77
  -4  -5   0   63.70   10.69
   4  -5   0   90.33   28.13
  -4  -5   0   82.88   19.56
  -4  -4   0  515.25   22.25
  -4  -4   0  635.66   47.23
  -4  -4   0  635.88   58.43
   4  -4   0  672.92   67.83
  -4  -3   0  171.28   25.49
   4  -3   0  117.80   27.02
  -4  -2   0  722.34   44.95
   4  -2   0  751.51   59.83
   4  -1   0  302.54   35.14
  -4  -1   0  250.75   26.69
   4   0   0 1365.00   61.37
   4   1   0  249.97   20.65
   4   3   0  152.98   24.91
   4 -11  -1   38.36   26.29
   4 -11   1   16.58   15.61
   4 -10  -1   12.91   14.38
  -4 -10   1   -4.24    7.32
   4 -10   1   -1.70    7.06
  -4 -10  -1   -8.62   13.23
  -4  -9   1  111.98   36.16
   4  -9  -1  145.67   42.05
  -4  -9  -1  125.48   37.35
   4  -9   1  116.81   37.61
  -4  -8  -1    5.79    9.81
  -4  -8  -1   -1.62   10.45
   4  -8  -1   14.80   16.19
  -4  -8   1   38.28   21.20
   4  -8   1    8.40    6.82
  -4  -7   1  434.92   64.55
  -4  -7  -1  536.26   61.14
  -4  -7   1  412.60   46.43
   4  -7   1  492.04   70.14
   4  -7  -1  524.98   74.30
  -4  -7  -1  496.68   65.42
  -4  -6   1   -4.19    8.55
   4  -6   1  -10.91   14.22
  -4  -6   1    5.64    4.68
  -4  -6  -1   16.16   15.61
  -4  -6   1   -0.04    3.12
  -4  -6  -1   24.72   18.04
  -4  -5   1  745.54   73.02
  -4  -5   1  723.82   48.51
  -4  -5  -1  775.15   62.40
   4  -5   1  747.74   75.99
  -4  -4   1   28.83    9.73
  -4  -4   1   43.29   17.30
  -4  -3   1  799.37   63.16
  -4  -3   1  835.42   42.16
   4  -3   1  890.00   71.12
  -4  -3  -1  783.91   52.84
  -4  -2  -1  121.19   14.32
   4  -2   1  116.36   24.49
  -4  -2  -1  113.66   18.99
  -4  -2   1   98.43   14.48
  -4  -2   1  122.33   22.49
  -4  -1  -1 1557.53   62.97
   4  -1   1 1586.22   79.65
  -4  -1  -1 1679.14   76.87
  -4  -1   1 1582.07   69.73
   4   0   1  144.05   23.54
  -4   0  -1  150.13   24.62
  -4   1  -1 1572.75   82.66
  -4   4  -1  156.23   23.12
   4   4  -1   24.07   10.16
  -4   5  -1  627.24   47.16
   4   5  -1  882.91   60.65
   4 -11   2    4.11   12.59
  -4 -10  -2   55.88   26.95
   4 -10   2   48.05   25.16
   4 -10  -2   58.33   28.50
  -4  -9  -2   11.12   15.72
   4  -9   2  -14.63   16.34
  -4  -9   2   12.24   11.84
   4  -9  -2   -0.65   13.18
  -4  -9  -2  -17.69   19.03
  -4  -8   2   95.60   32.52
  -4  -8  -2  178.89   41.85
   4  -8   2  133.82   37.88
  -4  -8  -2  171.80   40.19
  -4  -7   2   -1.59    8.52
   4  -7  -2  -11.35    7.80
   4  -7   2   -6.63    9.20
  -4  -7  -2    7.78   11.26
   4  -6  -2  398.52   35.41
  -4  -6   2  368.27   57.21
  -4  -6   2  337.76   30.98
   4  -6   2  347.51   57.44
  -4  -6  -2  497.33   58.01
   4  -5  -2    9.79    6.18
  -4  -5   2  116.26   37.36
   4  -5  -2   23.71   18.05
  -4  -5  -2   20.05   13.20
   4  -5   2  -16.54   18.47
  -4  -5   2  118.34   18.80
   4  -4  -2  489.22   25.39
   4  -4  -2  569.64   60.13
  -4  -4   2  471.59   25.90
   4  -4   2  544.47   61.24
  -4  -4   2  575.70   62.16
  -4  -4  -2  584.27   53.79
   4  -3  -2    7.96    7.24
  -4  -3   2    5.84    3.42
  -4  -3   2   13.39   12.16
  -4  -3  -2    9.21    7.39
   4  -3   2    9.15    6.46
  -4  -2   2  796.75   61.27
   4  -2   2  762.80   64.53
  -4  -2  -2  856.66   57.53
  -4  -2   2  616.62   31.46
  -4  -1   2   32.41    9.90
  -4  -1  -2    4.95    5.60
  -4  -1  -2   17.93   12.67
   4  -1   2   38.26   15.90
   4  -1  -2   11.18    4.36
   4   0  -2  523.44   35.88
  -4   0  -2  611.32   50.42
  -4   0   2  642.29   45.20
  -4   0  -2  592.03   47.48
   4   1  -2   34.43   13.66
   4   5  -2   75.81   19.15
   4 -10   3   -2.86    7.05
   4 -10  -3   -5.65   16.17
  -4 -10  -3   -1.59    8.51
  -4 -10  -3    8.15   15.03
  -4  -9  -3   60.58   27.84
  -4  -9  -3   67.18   26.59
   4  -9   3   85.77   30.78
   4  -8   3   -7.25   15.69
   4  -8  -3  -16.24   17.87
  -4  -8  -3   17.89   14.93
   4  -7  -3  126.12   35.84
   4  -7   3  119.83   34.75
  -4  -7  -3  119.80   32.91
  -4  -6  -3   46.06   17.37
   4  -6  -3   40.52   12.07
   4  -6   3   28.76   14.93
   4  -6  -3   35.85   17.10
   4  -5  -3  421.20   57.19
  -4  -5  -3  505.24   56.86
   4  -5   3  419.61   58.88
   4  -4   3   15.36   12.15
   4  -4  -3   -0.36    8.85
  -4  -4  -3   20.10    9.85
   4  -3  -3 1002.82   77.55
  -4  -3  -3 1156.27   75.97
   4  -3   3  990.05   80.10
   4  -2  -3   76.94   19.42
  -4  -2  -3   62.79   15.75
   4  -2   3   68.87   20.39
  -4  -2   3   49.07    6.72
   4  -1  -3  684.18   52.59
  -4  -1   3  624.31   37.90
  -4  -1  -3  653.88   54.63
   4   0  -3   17.74   10.48
  -4   0   3   14.93    9.98
  -4   0  -3   12.31   14.58
  -4   1  -3  608.44   54.44
   4   3  -3 1001.55   49.60
   4   4  -3   13.32    5.49
   4 -10   4   34.54   24.68
  -4 -10  -4   30.94   20.92
  -4 -10  -4   37.73   24.90
  -4  -9  -4   22.85   16.15
   4  -9   4    2.21    8.40
   4  -8  -4   30.25   16.22
   4  -8   4   48.83   24.32
  -4  -8  -4   53.04   23.38
   4  -7  -4   -4.64    6.12
   4  -7   4   10.68   11.31
  -4  -7  -4   -1.76    9.11
   4  -6  -4   51.02   20.45
   4  -6   4   50.33   19.98
  -4  -5  -4   17.29    9.76
   4  -5   4    3.11    7.38
   4  -4   4  396.24   57.12
  -4  -4  -4  559.11   61.50
   4  -4  -4  473.34   58.28
  -4  -3  -4   23.35   12.04
   4  -3   4   33.06   15.47
   4  -3  -4   25.11   14.28
  -4  -2  -4  395.14   45.73
  -4  -2   4  329.97   19.95
  -4  -1   4  145.50   19.42
  -4  -1  -4  118.02   24.33
   4  -1  -4  147.01   25.21
  -4   0  -4  284.13   38.97
   4   0  -4  289.21   31.55
  -4   0   4  301.74   33.79
  -4   1  -4  150.70   28.43
  -4   2  -4  399.81   48.58
   4   4  -4  399.17   39.84
  -4 -10  -5   14.25   18.79
   4 -10   5  -19.78   16.80
  -4 -10  -5   31.04   22.97
   4  -9  -5   40.77   23.12
   4  -9   5    6.58    4.59
  -4  -9  -5   11.81   16.91
   4  -8  -5   -4.01    7.45
   4  -8   5    3.19    7.19
   4  -7  -5  -14.42   18.29
   4  -7   5   13.02   14.93
  -4  -7  -5    0.11    5.14
   4  -6   5    4.20   12.97
   4  -6  -5    6.46    8.87
  -4  -5  -5   73.50   23.00
   4  -5  -5   59.38   23.39
  -4  -4  -5    6.30    6.36
   4  -4  -5   12.64   12.14
   4  -3  -5  281.00   44.50
  -4  -3  -5  327.57   46.99
  -4  -2   5    7.24    3.53
  -4  -2  -5   -4.08    6.70
   4  -2  -5    8.82    9.42
   4  -1  -5  349.53   42.32
  -4  -1   5  361.26   34.87
  -4  -1  -5  303.22   41.32
  -4   0  -5   33.53   18.72
   4   0  -5   24.93   11.97
   4   1  -5  377.29   34.17
  -4   1  -5  351.70   47.15
  -4   2  -5   13.49    9.88
  -4   3  -5  327.33   51.12
  -4   4  -5    6.28    8.63
   4  -9  -6   31.60   23.96
  -4  -9  -6    9.98   11.23
   4  -8  -6  -14.12   18.13
  -4  -8  -6  -10.28    9.27
   4  -7  -6    7.64   14.48
  -4  -7  -6   17.22   14.59
  -4  -6  -6   -9.65   11.82
   4  -6  -6   -1.11   17.62
   4  -5  -6   42.05   22.91
  -4  -5  -6   50.33   20.47
  -4  -4  -6    6.60   10.33
   4  -4  -6    7.51    7.27
  -4  -3  -6    0.77    4.03
   4  -3  -6    9.73   14.10
   4  -2  -6  225.23   40.62
  -4  -2  -6  183.67   35.64
  -4  -2   6  201.87   24.47
  -4  -1  -6   13.46   12.45
   4  -1  -6   38.20   14.37
  -4  -1   6   13.48    8.57
  -4   0  -6  187.02   35.04
   4   0  -6  176.63   28.78
   4   1  -6    2.89    5.13
  -4   1  -6   19.76   12.65
   4   2  -6  113.28   16.73
  -4   2  -6  225.87   41.77
  -4   3  -6    8.27   10.29
  -4   4  -6    8.63    8.54
  -4   5  -6   33.06   18.26
  -4   6  -6   -4.55    3.89
   4  -8  -7    8.02   15.53
  -4  -8  -7   25.15   17.76
   4  -7  -7   26.50   19.45
  -4  -7  -7   29.41   20.02
  -4  -6  -7    0.01    7.04
   4  -6  -7    7.68   11.54
  -4  -5  -7   -7.69   10.93
   4  -5  -7   -1.66    5.18
   4  -4  -7   31.92   18.10
  -4  -4  -7   31.00   18.12
  -4  -3  -7    9.11   10.99
   4  -3  -7    8.15   11.36
  -4  -2  -7   42.49   20.74
   4  -2  -7   38.29   15.68
  -4  -1  -7  191.85   38.62
   4  -1  -7  234.89   40.85
  -4   0  -7   22.89   16.91
   4   0  -7   26.29   14.45
   4   1  -7  207.42   32.19
  -4   1  -7  197.35   39.49
   4   2  -7   42.07   11.42
  -4   2  -7   42.49   19.72
  -4   3  -7   11.50   12.38
  -4   4  -7   19.98   12.87
  -4   5  -7   -0.96    6.00
  -4   6  -7    8.22   10.78
  -4   7  -7    2.05    3.97
   4  -7  -8   26.94   20.78
  -4  -7  -8   36.28   24.40
  -4  -6  -8  -18.39   14.69
   4  -6  -8    6.45   15.40
  -4  -5  -8    4.11    8.82
   4  -5  -8   -8.36   12.35
  -4  -4  -8   16.19    9.58
   4  -4  -8   14.43   13.87
  -4  -3  -8   -6.71   13.04
   4  -3  -8  -15.86   16.87
  -4  -2  -8  -14.02   11.77
   4  -2  -8   13.76   13.40
  -4  -1  -8   23.93   14.31
   4  -1  -8   -0.09    5.59
   4   0  -8  280.16   46.25
  -4   0  -8  359.08   55.95
  -4   1  -8   35.07   18.25
   4   1  -8   37.00   15.76
  -4   2  -8   13.82   12.57
  -4   3  -8   -2.26    5.41
  -4   4  -8   20.79   15.66
  -4   5  -8  -10.54   12.35
  -4   6  -8   -2.15    8.68
  -4  -6  -9   11.89   11.65
   4  -6  -9   -4.29    7.69
  -4  -5  -9   14.31   14.29
   4  -5  -9    0.08    9.91
  -4  -4  -9   11.66    9.66
   4  -4  -9  -11.33   16.25
  -4  -3  -9   43.21   26.59
   4  -3  -9   23.40   12.43
  -4  -2  -9   17.02   11.08
   4  -2  -9   14.31   13.15
  -4  -1  -9  108.39   34.82
   4  -1  -9   81.99   28.82
  -4   0  -9   -4.14    8.63
   4   0  -9   -2.20    9.67
  -4   1  -9  117.54   34.87
  -4   2  -9   20.03   14.20
  -4   3  -9    9.28    8.39
  -4   4  -9   19.28   14.04
  -4   5  -9   15.22   13.29
   4  -6 -10   25.33   21.19
  -4  -5 -10   -6.56   11.85
   4  -5 -10   19.94   21.95
   4  -4 -10   14.42   14.80
  -4  -4 -10   41.04   22.32
  -4  -3 -10    6.20    6.31
   4  -3 -10  -12.05   16.73
  -4  -2 -10   50.00   25.90
   4  -2 -10   38.32   23.75
  -4  -1 -10   19.22   15.26
   4  -1 -10   16.29   14.03
  -4   0 -10  102.21   33.99
  -4   1 -10   29.58   19.24
  -4   2 -10   74.17   29.40
  -4   3 -10    2.35    3.70
  -4   4 -10   22.40   16.44
   4  -5 -11   23.98   21.64
  -4  -4 -11   21.46   20.78
   4  -4 -11    3.59   10.83
  -4  -3 -11   38.24   24.04
   4  -3 -11   59.68   32.73
   4  -2 -11   -5.96    8.34
  -4  -2 -11   39.06   23.85
  -4  -1 -11   47.53   24.10
  -4   0 -11   -7.23   11.58
  -4   1 -11  103.42   36.50
  -4   2 -11    3.98   10.17
  -4   3 -11   37.16   24.61
   4  -3 -12   23.72   21.95
  -4  -2 -12   29.42   19.34
  -4  -1 -12   13.62   16.94
  -4   0 -12  107.39   40.09
  -4   1 -12   14.61   17.48
  -4   2 -12   94.48   37.87
   5 -10   0    9.40   12.40
  -5 -10   0   -6.98   16.90
  -5  -9   0   -2.26   15.03
   5  -9   0    4.62    4.67
  -5  -8   0   19.76   16.17
   5  -8   0   10.42   13.88
  -5  -7   0   38.82   20.92
  -5  -7   0   19.35   15.32
   5  -7   0   36.35   23.28
   5  -6   0   -6.99   12.28
  -5  -6   0   11.23    9.58
  -5  -6   0    4.49    3.10
  -5  -5   0   -4.02    8.21
  -5  -5   0   10.75   11.94
   5  -5   0   -7.57    6.98
  -5  -4   0    5.29    7.57
  -5  -4   0   -5.06    2.37
   5  -4   0    6.92    9.33
  -5  -3   0    3.18    4.45
   5  -3   0    9.47    9.25
   5  -2   0   -3.84    8.24
  -5  -2   0   -6.50    3.14
  -5  -1   0    9.93    9.84
   5  -1   0   84.15   20.99
   5   0   0    7.80    6.04
   5   1   0    8.79    6.24
  -5 -10  -1    7.73   15.23
  -5 -10   1    7.95    8.32
   5 -10  -1   21.28   15.47
   5 -10   1    7.47    8.68
  -5  -9  -1   14.18   16.05
  -5  -9   1   15.26   17.95
   5  -9   1    4.59    8.93
   5  -9  -1   41.33   25.57
  -5  -8  -1    0.56   10.28
   5  -8  -1    8.19   12.59
  -5  -8  -1   -3.25    4.10
   5  -8   1   12.92   15.09
  -5  -8   1    5.19   12.26
   5  -7   1  -27.11   20.24
  -5  -7  -1    4.87   11.18
   5  -7  -1   -3.87   10.76
  -5  -7   1    1.52   11.64
  -5  -7  -1    2.73    6.78
  -5  -6  -1   60.03   24.31
  -5  -6   1   40.61   23.00
   5  -6  -1   30.76   22.93
  -5  -6  -1   51.07   25.30
  -5  -6   1   26.27   13.32
   5  -6   1   22.59   18.15
  -5  -5  -1   34.47   14.54
   5  -5   1   23.50   12.38
  -5  -5   1   19.18   13.38
  -5  -5   1   27.20   10.61
  -5  -4  -1  187.77   30.46
  -5  -4   1  181.10   34.17
  -5  -4   1  162.38   22.59
   5  -4   1  170.18   36.03
   5  -3   1   14.02   10.18
  -5  -3   1   17.91    8.31
  -5  -3  -1    8.11    8.08
  -5  -3   1   11.84    5.45
  -5  -3  -1   12.32    4.58
  -5  -2   1    6.46    7.81
  -5  -2  -1   -1.84    3.61
  -5  -2  -1    4.90    5.63
   5  -2   1    5.01    8.19
  -5  -2   1    7.01    5.97
  -5  -1   1  101.40   18.83
   5  -1   1  127.05   25.09
  -5  -1  -1   94.41   17.82
  -5  -1  -1  109.63   22.71
  -5   0   1  171.04   20.92
   5   0   1  194.41   26.40
  -5   0  -1  195.13   28.43
  -5   1   1   84.12   11.21
   5   1  -1  116.60   16.52
   5   2  -1    3.31    2.46
  -5   4  -1  108.12   16.62
  -5   5  -1   22.70    9.34
   5   5  -1   48.96   16.76
  -5 -10  -2   -7.74   12.28
   5 -10   2  -14.63   14.99
   5 -10  -2   -8.15   12.35
  -5  -9  -2   44.03   23.71
   5  -9   2   12.77   11.25
   5  -9  -2   39.79   24.31
  -5  -9   2   27.01   17.67
  -5  -8   2   -0.32    3.98
   5  -8   2    8.37    5.53
   5  -8  -2   14.25   14.65
  -5  -8  -2   24.39   16.30
  -5  -8  -2   28.13   15.93
   5  -7   2    5.22    4.94
  -5  -7  -2   -0.12    4.40
  -5  -6  -2   18.41   15.84
  -5  -6   2   13.94    4.63
   5  -6   2   12.36   11.34
  -5  -6   2    9.57    4.74
  -5  -5   2  171.29   41.71
  -5  -5  -2  232.56   41.13
   5  -5   2   79.38   25.34
  -5  -4   2   69.58   27.01
  -5  -4  -2   61.51   17.97
  -5  -4   2   80.03   13.98
   5  -4   2   47.87   16.68
  -5  -3   2  313.62   46.67
   5  -3   2  243.33   42.74
  -5  -3   2  249.96   22.15
  -5  -3  -2  250.33   35.16
   5  -2   2   29.94   13.67
  -5  -2   2   41.21   14.91
  -5  -2  -2   41.74   14.48
  -5  -2  -2   27.73    9.71
  -5  -2   2   25.85    8.86
  -5  -1  -2   88.03   18.23
  -5  -1   2  105.95   20.77
  -5  -1  -2  111.18   23.18
   5  -1   2  105.98   22.85
  -5   0   2    9.42    6.43
  -5   0  -2    6.10    7.83
   5 -10   3   21.59   17.49
  -5 -10  -3   29.65   21.40
   5 -10  -3   13.42   13.25
  -5  -9  -3   -0.77    6.78
   5  -9   3    1.07    5.33
  -5  -9  -3   -6.19   15.64
   5  -8   3    2.23    4.60
  -5  -8  -3    8.74   10.11
   5  -7   3   11.35    5.00
  -5  -7  -3   19.60   16.54
  -5  -6  -3   90.59   26.22
   5  -6   3   73.13   28.23
   5  -5   3   44.09   20.10
  -5  -5  -3   45.03   15.86
   5  -5  -3   31.83   18.23
   5  -5  -3   17.03    4.60
   5  -4   3  164.54   36.95
   5  -4  -3  256.82   43.43
  -5  -4  -3  228.09   37.48
  -5  -3  -3   43.51   15.57
   5  -3   3   25.09   16.46
   5  -2  -3  505.44   28.95
   5  -2   3  688.05   66.99
  -5  -2   3  447.14   30.17
  -5  -2  -3  701.25   59.89
   5  -1  -3   12.20    4.88
  -5  -1   3   13.61    8.24
  -5  -1  -3   18.73    9.70
   5   0  -3  130.80   20.81
  -5   0  -3  135.26   26.80
  -5   1  -3   27.35   12.76
   5 -10   4    1.66    6.79
  -5 -10  -4   12.21   15.50
   5  -9   4   68.34   33.04
  -5  -9  -4   51.86   25.10
   5  -8   4   -0.48    8.31
  -5  -8  -4    4.94   14.91
  -5  -7  -4  162.83   39.75
   5  -7  -4  124.39   37.87
   5  -7   4  106.58   36.51
  -5  -6  -4   -7.66    8.85
   5  -6  -4    4.58   10.84
   5  -6   4   -2.33    6.31
   5  -5  -4  107.94   31.09
  -5  -5  -4   72.33   23.81
   5  -5   4  129.82   36.19
  -5  -4  -4   24.71   14.24
   5  -4  -4   31.89   12.96
   5  -4   4   21.87   15.53
   5  -3   4  345.38   51.07
   5  -3  -4  352.37   48.90
  -5  -3  -4  432.73   52.31
  -5  -2   4   70.23   11.23
  -5  -2  -4   78.16   21.28
   5  -2  -4  118.76   28.36
  -5  -1   4  504.93   39.30
  -5  -1  -4  484.29   51.74
  -5   0  -4   33.44   23.09
  -5   1  -4  504.96   57.09
  -5   2  -4   68.95   21.06
   5   4  -4   15.66    7.24
  -5 -10  -5   15.72   15.32
   5  -9  -5  -14.40   18.62
   5  -9   5   10.02   11.70
  -5  -9  -5   23.89   21.31
   5  -8  -5  134.25   41.93
   5  -8   5  135.39   42.60
  -5  -8  -5  162.46   44.35
  -5  -7  -5    4.14    9.59
   5  -7  -5    1.78   10.03
   5  -7   5    0.83    9.31
   5  -6  -5  181.63   43.61
   5  -6   5  177.59   44.50
  -5  -6  -5  196.30   41.86
  -5  -5  -5   67.44   24.73
   5  -5   5   42.50   21.30
   5  -5  -5   33.55   18.71
   5  -4  -5  185.04   39.74
  -5  -4  -5  264.45   45.79
  -5  -3  -5   43.84   18.52
   5  -3  -5  118.24   30.87
  -5  -2   5  320.51   25.72
  -5  -2  -5  369.29   48.32
   5  -2  -5  354.04   46.88
  -5  -1   5   32.19   10.53
  -5  -1  -5   33.92   16.05
   5  -1  -5   36.43   13.93
   5   0  -5 1053.98   67.12
  -5   0  -5  983.07   80.18
  -5   1  -5   58.94   22.94
  -5   2  -5  329.42   49.69
  -5   3  -5   55.57   23.05
  -5  -9  -6  103.78   38.93
   5  -8  -6    4.13    4.74
  -5  -8  -6    8.16    6.01
  -5  -7  -6  157.65   42.20
   5  -7  -6  170.98   47.53
  -5  -6  -6   10.15   10.89
   5  -6  -6   -1.30    9.93
   5  -5  -6  263.27   50.98
  -5  -5  -6  296.43   51.83
  -5  -4  -6  -12.91   12.16
   5  -4  -6   31.49   17.10
  -5  -3  -6  154.42   34.77
   5  -3  -6  171.99   37.89
  -5  -2  -6   26.69   12.84
   5  -2  -6   32.66   14.62
   5  -1  -6  688.63   63.87
  -5  -1  -6  633.90   66.25
   5   0  -6   33.53   15.75
  -5   0  -6   41.12   19.11
  -5   1  -6  654.85   70.67
  -5   2  -6   53.93   22.20
  -5   3  -6  124.47   34.36
  -5   4  -6  -14.62   10.48
  -5   5  -6  236.41   47.89
  -5   6  -6    6.45   11.17
   5  -8  -7  122.97   39.99
  -5  -8  -7  122.72   40.76
  -5  -7  -7  -20.54   20.08
   5  -7  -7   -3.10   11.61
  -5  -6  -7  235.71   49.64
   5  -6  -7  207.44   47.77
  -5  -5  -7   -2.19    6.10
   5  -5  -7    0.26    3.74
  -5  -4  -7  238.71   48.16
   5  -4  -7  194.86   43.12
  -5  -3  -7   14.61   12.26
   5  -3  -7   15.17   15.57
   5  -2  -7  326.80   50.69
  -5  -2  -7  288.65   47.90
  -5  -1  -7   10.52    9.75
   5  -1  -7   14.21   10.40
   5   0  -7  356.59   44.98
  -5   0  -7  382.80   54.30
   5   1  -7   23.30   12.21
  -5   1  -7   33.92   17.31
  -5   2  -7  327.89   53.98
  -5   3  -7   22.74   13.08
  -5   4  -7  193.03   43.37
  -5   5  -7  -16.44   13.90
  -5   6  -7  141.88   40.37
  -5   7  -7   -0.05    7.87
  -5  -7  -8  120.54   40.50
   5  -7  -8  115.07   43.01
  -5  -6  -8    7.76   11.37
   5  -6  -8   33.34   21.35
  -5  -5  -8  156.00   42.92
   5  -5  -8  149.66   41.69
  -5  -4  -8    6.29   10.16
   5  -4  -8    6.91    3.69
   5  -3  -8  344.83   58.44
  -5  -3  -8  317.96   56.82
  -5  -2  -8   41.85   20.97
   5  -2  -8   37.36   21.83
  -5  -1  -8  188.49   41.37
   5  -1  -8  184.67   37.72
  -5   0  -8   -4.88    6.43
   5   0  -8    6.05   11.38
  -5   1  -8  184.91   39.65
  -5   2  -8   52.73   21.78
  -5   3  -8  315.77   55.46
  -5   4  -8    0.39    5.70
  -5   5  -8   50.01   22.42
  -5   6  -8  -11.09   11.88
  -5  -6  -9   71.03   29.36
   5  -6  -9   59.28   30.05
   5  -5  -9   -9.37   12.55
  -5  -5  -9    0.97    7.95
  -5  -4  -9  234.04   52.04
   5  -4  -9  220.84   51.02
  -5  -3  -9   29.19   22.91
   5  -3  -9    2.58    8.76
  -5  -2  -9  193.33   45.77
   5  -2  -9  158.23   40.20
  -5  -1  -9   -2.07   10.96
   5  -1  -9   27.88   13.33
  -5   0  -9   25.48   15.19
   5   0  -9   55.72   20.71
  -5   1  -9   35.81   18.20
  -5   2  -9  166.85   40.33
  -5   3  -9    0.37   10.31
  -5   4  -9  207.88   48.91
  -5   5  -9  -43.87   23.12
  -5  -5 -10  124.52   40.26
   5  -5 -10  124.58   43.78
   5  -4 -10   -3.45   11.32
  -5  -4 -10    8.33   12.41
  -5  -3 -10  112.64   37.50
   5  -3 -10  123.09   40.62
  -5  -2 -10   -3.56    6.64
   5  -2 -10  -13.72   13.07
  -5  -1 -10   96.84   34.42
  -5   0 -10    0.70    7.71
  -5   1 -10   63.37   27.58
  -5   2 -10    6.33   11.27
  -5   3 -10  122.71   37.31
  -5   4 -10   27.48   18.33
   5  -4 -11   32.75   27.74
  -5  -3 -11    2.68    8.90
   5  -3 -11   -4.31    6.66
  -5  -2 -11   21.47   19.57
  -5  -1 -11   30.52   20.06
  -5   0 -11   32.39   21.27
  -5   1 -11   23.17   20.79
  -5   2 -11   18.12   19.60
  -5   3 -11   22.16   19.49
  -5   0 -12   11.70   17.92
  -5   1 -12   62.05   30.91
  -5   2 -12   -2.97    8.65
   6 -10   0  122.60   41.64
  -6  -9   0   25.05   18.65
   6  -9   0   23.11   18.21
  -6  -8   0  165.61   41.09
   6  -8   0  154.24   46.34
  -6  -7   0   -5.16    6.18
   6  -7   0    1.28    6.25
  -6  -7   0    4.56   10.21
  -6  -6   0  136.92   27.56
  -6  -6   0  135.75   33.96
   6  -6   0  149.90   41.22
  -6  -5   0   15.49    7.03
  -6  -5   0   24.78   14.86
   6  -5   0   15.74   11.21
  -6  -4   0 1019.31   81.92
  -6  -4   0 1085.72   70.78
   6  -4   0 1005.53   91.89
  -6  -3   0   64.83   27.93
   6  -3   0  -14.46   13.02
   6  -2   0  599.48   61.82
  -6  -2   0  481.99   46.53
   6  -1   0  234.91   34.87
  -6  -1   0  189.05   29.95
   6   0   0 2864.94  109.51
   6   1   0  175.28   22.47
   6 -10  -1   12.60   14.81
   6 -10   1    6.96   13.80
  -6  -9   1   98.46   34.52
   6  -9   1  108.29   38.29
   6  -9  -1  148.52   48.60
  -6  -9  -1   89.63   31.31
   6  -8  -1   -8.88   10.71
  -6  -8   1   -3.62    7.30
  -6  -8  -1   11.82    9.30
   6  -8   1   -1.02    5.18
  -6  -7  -1  111.93   32.16
  -6  -7   1  128.21   35.56
   6  -7  -1   92.90   32.58
  -6  -7  -1  158.35   34.70
   6  -7   1  130.96   42.20
   6  -6   1    8.79   15.52
  -6  -6  -1   19.74   11.02
  -6  -6  -1   18.83   17.33
   6  -6  -1    2.91   11.68
  -6  -6   1    2.62    5.96
  -6  -6   1    1.81    2.58
  -6  -5  -1  416.56   50.82
  -6  -5   1  338.12   37.52
   6  -5   1  344.55   58.04
   6  -5  -1  343.32   58.31
  -6  -5   1  400.18   57.69
  -6  -4  -1    1.57    3.02
  -6  -4   1    0.92    6.55
  -6  -4   1   23.74    9.52
  -6  -4  -1    8.68    5.19
   6  -4  -1   32.19   18.27
  -6  -3  -1  767.75   41.99
   6  -3   1  712.84   72.51
  -6  -3  -1  738.92   59.40
  -6  -3   1  793.76   54.04
  -6  -3   1  737.91   66.19
  -6  -2  -1   15.55    6.73
   6  -2   1   21.85   12.71
  -6  -2  -1   24.76   12.33
  -6  -2   1    9.87    8.27
  -6  -2   1   31.35   12.36
  -6  -1   1 1423.16   77.76
  -6  -1  -1 1282.30   72.93
   6  -1  -1 1201.44   80.08
  -6  -1  -1 1436.77   86.19
   6   0  -1   51.57   17.97
  -6   0   1   69.49   16.47
  -6   1   1 1206.94   49.93
   6   1  -1 1303.80   62.74
   6   2  -1   19.73    6.18
  -6   4  -1  177.77   20.59
   6 -10   2   40.71   21.68
  -6  -9  -2    5.87    8.97
  -6  -9   2   -2.82    6.13
   6  -9  -2  -12.38    9.55
  -6  -8  -2  111.86   35.05
  -6  -8   2  104.56   33.78
   6  -8   2  118.11   39.13
  -6  -8  -2  131.21   35.31
   6  -8  -2  129.51   40.77
  -6  -7  -2    9.41    8.79
   6  -7  -2  -17.08   18.96
  -6  -7   2    8.07    4.03
   6  -7   2   -8.18   15.81
  -6  -6   2  304.24   55.00
   6  -6   2  255.09   51.41
  -6  -6  -2  362.12   52.54
  -6  -5  -2   -6.70    8.45
  -6  -5   2   12.37   22.11
   6  -5   2    3.57    7.23
  -6  -5   2   23.69   11.83
  -6  -4   2  216.63   41.59
  -6  -4  -2  177.93   22.69
  -6  -4  -2  187.00   32.20
  -6  -4   2  188.38   22.04
   6  -4   2  169.47   39.55
  -6  -3   2   67.10   23.55
   6  -3   2   54.86   18.76
  -6  -3  -2   66.61   17.89
  -6  -3   2   60.59   15.18
  -6  -3  -2   56.29   13.27
  -6  -2   2 1796.21  101.81
   6  -2   2 1630.21  103.13
  -6  -2  -2 1726.19   84.82
  -6  -2  -2 1889.79  102.32
  -6  -2   2 1717.32   80.15
  -6  -1   2   68.63   20.74
  -6  -1  -2   32.75   15.67
   6  -1   2   58.51   20.41
   6   0   2  583.37   54.51
  -6   0  -2  637.71   61.65
  -6  -9  -3   24.08   20.98
   6  -9   3   51.86   26.19
   6  -9  -3   31.09   19.84
   6  -8   3  -10.68   11.04
  -6  -8  -3    6.51   10.73
   6  -7   3  205.00   49.43
  -6  -7  -3  295.28   52.36
  -6  -6  -3   -7.85   15.17
   6  -6   3   -2.23    6.08
  -6  -6   3   27.42   20.74
   6  -5   3  155.77   39.10
  -6  -5  -3  207.45   39.38
  -6  -5   3  181.51   41.70
   6  -4   3    8.13   11.17
  -6  -4   3   20.05   15.35
  -6  -4  -3   50.28   18.52
  -6  -3   3  209.18   20.45
   6  -3   3  305.42   50.36
  -6  -3   3  189.98   18.75
  -6  -3  -3  373.20   48.54
  -6  -2  -3   29.53   17.66
  -6  -2   3    5.44    5.56
   6  -2   3    9.95   12.84
   6  -1  -3  533.41   36.71
   6  -1   3  608.09   61.02
  -6  -1   3  539.23   45.44
  -6  -1  -3  650.25   65.25
  -6   0  -3   43.24   23.91
  -6   1  -3  577.63   61.64
   6  -9   4   12.96   19.20
  -6  -9  -4   16.50   22.85
   6  -8   4   99.06   35.65
  -6  -8  -4   98.27   31.00
  -6  -7  -4  -23.23   19.69
   6  -7   4    7.65    6.80
  -6  -6  -4  148.02   38.64
   6  -6   4  112.23   36.55
  -6  -5  -4   -7.22   10.59
   6  -5   4   14.19   14.66
  -6  -4  -4  408.82   55.88
   6  -4   4  282.70   52.12
   6  -3  -4    1.36    1.45
  -6  -3  -4   13.01   11.73
   6  -3   4    8.40    6.33
   6  -2  -4   89.11   15.09
  -6  -2  -4   89.49   22.92
  -6  -2   4   74.63   14.05
   6  -1  -4    7.38    5.10
  -6  -1  -4   28.43   15.90
  -6  -1   4   30.85   12.11
  -6   0  -4  790.15   74.08
  -6   1  -4   28.49   19.21
  -6   2  -4  100.69   28.69
   6  -9   5    5.12   10.18
  -6  -9  -5   28.07   21.18
   6  -8   5    4.40    9.96
  -6  -8  -5   19.88   15.54
  -6  -7  -5   40.90   21.38
   6  -7   5   19.15   17.75
   6  -6  -5  -15.74   16.35
   6  -6   5    0.88    7.39
  -6  -5  -5  159.88   37.92
   6  -5  -5  154.73   38.23
   6  -5   5  143.66   41.44
  -6  -4  -5   41.56   18.35
   6  -4  -5   17.30   11.23
  -6  -3  -5  116.77   29.95
   6  -3  -5   74.76   23.36
  -6  -2   5    8.30    4.84
  -6  -2  -5   20.68   11.08
  -6  -1  -5   73.76   22.36
  -6   0  -5    8.11    3.41
  -6   1  -5   84.69   27.06
  -6   2  -5   18.46   13.93
  -6   3  -5  102.21   30.73
  -6   4  -5   48.07   21.42
  -6  -9  -6  -35.39   23.12
   6  -8  -6   -5.18    9.48
  -6  -8  -6  -12.88   13.84
  -6  -7  -6   39.34   18.83
   6  -7  -6   10.75    7.38
  -6  -6  -6   22.34   17.68
   6  -6  -6   28.29   18.39
  -6  -5  -6   25.95   14.25
   6  -5  -6   13.76   14.64
  -6  -4  -6   24.00   16.54
   6  -4  -6   36.70   20.22
  -6  -3  -6   15.74   13.66
   6  -3  -6    0.06    8.78
  -6  -2  -6  140.78   33.49
   6  -2  -6  110.36   28.70
  -6  -1  -6    1.69    4.08
   6  -1  -6   -0.91    6.48
  -6   0  -6   15.68   14.39
  -6   1  -6  -13.99   10.70
  -6   2  -6  139.55   37.01
  -6   3  -6   27.75   18.29
  -6   4  -6   78.78   31.85
  -6   5  -6   44.87   21.68
  -6   6  -6   78.69   32.05
  -6  -8  -7   12.69   11.56
  -6  -7  -7  -14.34   17.62
   6  -7  -7    1.43    5.19
  -6  -6  -7   16.74   17.52
   6  -6  -7   -8.98   12.31
   6  -5  -7    3.60    9.89
  -6  -5  -7   -5.96   12.99
   6  -4  -7   22.39   17.40
  -6  -4  -7   -5.29    4.29
  -6  -3  -7   46.95   23.70
   6  -3  -7   29.96   16.31
  -6  -2  -7   14.67    8.44
   6  -2  -7   28.52   14.75
  -6  -1  -7  102.52   31.01
   6  -1  -7   73.48   22.94
   6   0  -7   29.59   15.99
  -6   0  -7   30.06   19.36
  -6   1  -7  106.65   30.81
  -6   2  -7   17.15    9.24
  -6   3  -7   40.03   20.87
  -6   4  -7    8.36    4.74
  -6   5  -7    0.32    6.55
  -6   6  -7    1.15    4.13
  -6   7  -7   15.48   15.73
  -6  -7  -8  -11.96   12.24
   6  -7  -8   -1.42    7.63
  -6  -6  -8  -18.53   19.03
   6  -6  -8   -1.53    5.44
  -6  -5  -8   13.41   14.75
   6  -5  -8    4.25    8.36
  -6  -4  -8   -6.55    4.71
   6  -4  -8   22.82   19.40
  -6  -3  -8   23.93   15.48
   6  -3  -8    5.35    8.55
  -6  -2  -8   18.16   11.23
   6  -2  -8   -0.95    9.77
  -6  -1  -8   -2.39    9.38
   6  -1  -8   12.32   11.45
  -6   0  -8   23.76   18.26
   6   0  -8   18.78   13.05
  -6   1  -8   10.39    7.94
  -6   2  -8    9.38    8.90
  -6   3  -8   21.65   13.67
  -6   4  -8  -11.82   15.60
  -6   5  -8    5.56    5.71
  -6   6  -8  -14.13   16.10
  -6   7  -8   -5.92    9.75
   6  -6  -9   18.69   18.72
   6  -5  -9    5.53    5.12
  -6  -5  -9    7.41   13.92
  -6  -4  -9   10.00   12.82
   6  -4  -9  -35.92   21.29
  -6  -3  -9   57.60   28.15
   6  -3  -9   44.59   24.23
  -6  -2  -9   27.97   19.96
   6  -2  -9   23.32   19.53
  -6  -1  -9   58.17   27.35
   6  -1  -9   36.98   20.41
  -6   0  -9    9.52   10.94
  -6   1  -9   37.99   24.63
  -6   2  -9   14.25   16.48
  -6   3  -9   40.58   22.34
  -6   4  -9   -7.65   15.27
  -6   5  -9  -13.82   16.16
  -6   6  -9    0.54   11.53
   6  -5 -10   -3.71    5.84
  -6  -4 -10   72.90   28.91
   6  -4 -10   63.37   32.92
  -6  -3 -10  -11.63    9.63
   6  -3 -10    5.57   13.51
  -6  -2 -10   42.22   23.81
   6  -2 -10   52.54   28.91
  -6  -1 -10   16.48   16.70
  -6   0 -10    4.81   12.01
  -6   1 -10   -3.98    8.90
  -6   2 -10   52.59   26.19
  -6   3 -10   -2.26    6.10
  -6   4 -10    6.03   10.78
  -6   5 -10  -23.10   23.79
   6  -4 -11    2.24    7.89
  -6  -2 -11   30.47   23.33
  -6  -1 -11   57.31   30.03
  -6   0 -11   -5.91   12.12
  -6   1 -11   51.53   26.53
  -6   2 -11   17.81   17.28
  -6   3 -11   72.66   32.99
  -6   4 -11   -8.12   17.90
   7  -9   0    8.94    7.01
  -7  -9   0   15.38   19.52
   7  -8   0   -9.76   11.92
  -7  -8   0  -13.74   16.36
  -7  -7   0   46.78   25.47
   7  -7   0   33.32   25.13
  -7  -6   0    2.67    8.09
  -7  -6   0  -24.23   15.98
   7  -6   0  -11.00   13.51
  -7  -5   0   11.32   11.25
   7  -5   0    0.42    5.75
  -7  -4   0    6.41   12.35
  -7  -4   0   -3.55    7.12
   7  -4   0    0.69    6.31
  -7  -3   0   19.09   15.36
   7  -3   0   -1.74    4.41
  -7  -3   0    8.89   11.86
   7  -2   0   -2.70    4.62
  -7  -2   0    6.74    9.86
  -7  -1   0    7.06    8.83
   7  -1   0   29.60   13.67
   7   0   0    7.49    8.23
   7   1   0    9.11    7.39
  -7  -9  -1    2.96   13.10
  -7  -9   1  -13.14   12.78
   7  -9  -1   24.78   21.78
   7  -9   1   -0.43   11.02
  -7  -8  -1   92.13   34.52
  -7  -8   1   89.63   35.18
   7  -8   1   86.63   36.90
   7  -8  -1  113.07   42.28
   7  -7  -1  -23.24   21.04
  -7  -7  -1   39.87   21.58
  -7  -7   1  -31.80   22.69
   7  -7   1  -15.88   19.33
  -7  -7  -1   28.93   18.26
  -7  -6  -1    9.17    9.10
  -7  -6  -1   28.11   18.77
  -7  -6   1    4.31    8.79
   7  -6  -1   15.59   18.00
   7  -6   1   28.05   22.13
  -7  -5   1    0.20    5.28
  -7  -5   1   -3.99    8.85
  -7  -5  -1    1.62    4.83
   7  -5  -1    1.38    7.79
   7  -5   1   -3.46    8.20
   7  -4  -1  129.32   36.48
  -7  -4   1  103.58   29.89
  -7  -4   1   97.22   20.10
  -7  -4  -1  102.81   24.95
   7  -4   1   84.43   29.57
  -7  -3   1   21.27    8.13
   7  -3  -1   21.06   13.36
  -7  -3  -1   30.01   13.69
  -7  -3   1   27.75   13.07
   7  -3   1   11.84    9.19
   7  -2  -1    8.41    8.03
   7  -2   1    7.72    8.47
  -7  -2   1   -9.37    8.62
  -7  -2  -1   -4.22    6.54
  -7  -2   1   -3.10    5.43
  -7  -1  -1   55.85   18.56
   7  -1   1   60.65   19.34
   7  -1  -1   63.16   19.69
  -7  -1   1   67.82   18.58
  -7   0   1   61.11   14.48
   7   0  -1   67.35   17.79
   7   0   1   66.07   18.70
  -7   1   1   45.49   10.27
   7   1  -1   54.38   14.66
   7   2  -1    4.22    3.21
  -7  -9  -2   34.53   21.65
   7  -9  -2   66.38   33.96
  -7  -9   2   22.32   17.41
   7  -9   2   46.35   25.58
  -7  -8  -2    7.20    8.70
  -7  -8   2   -2.70    6.76
   7  -8   2  -28.60   21.31
   7  -8  -2  -12.81   13.30
  -7  -7  -2   91.35   28.26
   7  -7  -2  123.33   43.33
  -7  -7  -2  108.13   33.22
  -7  -7   2   80.67   30.55
   7  -7   2   73.57   28.52
  -7  -6  -2   -3.70   11.14
  -7  -6   2    1.65   10.24
   7  -6   2  -17.88   17.90
   7  -6  -2   13.36   12.19
  -7  -5  -2   64.58   25.05
  -7  -5   2   35.92   20.29
   7  -5   2   19.01   16.68
  -7  -4   2   -5.77    9.38
  -7  -4   2   25.99   12.47
   7  -4   2   16.72   13.05
  -7  -4  -2   13.68    7.11
  -7  -3   2  151.72   35.61
   7  -3   2  100.89   30.26
  -7  -3  -2  111.05   20.80
  -7  -3   2  142.74   25.70
  -7  -3  -2  109.51   26.97
  -7  -2   2    4.28    3.00
   7  -2   2    6.48    8.22
  -7  -2   2    5.38    7.32
  -7  -2  -2   -9.60   11.19
  -7  -1   2    9.82    7.11
   7  -1   2   20.41    9.90
  -7  -1  -2   21.75   12.13
  -7   0  -2   13.60   12.95
   7   0   2   17.57   11.06
   7   1  -2   19.51    9.08
   7   2  -2    9.03    4.38
   7  -9   3   12.50   12.74
  -7  -9  -3   31.20   21.16
   7  -9  -3  -12.31   17.35
   7  -8  -3   29.61   21.10
   7  -8   3   35.30   24.57
  -7  -8  -3   63.91   27.04
  -7  -8  -3   50.71   26.23
  -7  -7  -3   -4.28    7.22
   7  -7   3  -30.40   22.48
  -7  -6   3  250.66   52.54
   7  -6   3  258.16   56.14
  -7  -6  -3  320.30   53.23
   7  -5   3    6.70    8.02
  -7  -5  -3   13.84   14.80
  -7  -5   3    4.26   11.13
   7  -4   3   44.73   23.84
  -7  -4  -3   84.62   25.56
  -7  -4   3   66.67   26.09
  -7  -3  -3   10.99    9.83
  -7  -3   3    4.65    4.82
   7  -3   3   -8.87    7.59
   7  -2   3  295.79   47.33
  -7  -2   3  216.07   28.25
  -7  -2  -3  347.19   49.02
   7  -1   3   31.23   15.11
  -7  -1  -3   28.16   12.96
  -7   0  -3   73.06   24.10
  -7   1  -3   22.48   12.81
   7  -8   4  -24.48   16.48
  -7  -8  -4   35.83   19.50
  -7  -7  -4  152.67   39.70
   7  -7   4  140.68   43.59
  -7  -6  -4   34.77   18.24
   7  -6   4  -11.83   16.22
   7  -5   4  395.97   67.88
  -7  -5  -4  394.90   59.72
  -7  -4  -4   13.51    9.64
   7  -4   4   17.90   16.83
  -7  -3  -4  148.41   33.26
  -7  -3   4   79.32   14.29
   7  -3   4   93.59   29.98
  -7  -2  -4   40.28   17.23
  -7  -1  -4  155.10   33.39
  -7   0  -4   26.68   18.18
  -7   1  -4  155.27   35.79
  -7   2  -4   14.58   14.08
  -7  -9  -5   -3.15    7.93
  -7  -8  -5   83.26   32.94
   7  -8   5   96.38   38.87
  -7  -7  -5   17.47   19.99
   7  -7   5   -1.89    9.05
  -7  -6  -5  217.86   47.29
   7  -6   5  171.81   47.33
  -7  -5  -5  -18.21   15.42
   7  -5   5    4.56    6.55
  -7  -4  -5  603.91   74.05
  -7  -3  -5   10.72   11.26
  -7  -2  -5  103.24   27.54
  -7  -1  -5   -0.54    5.31
  -7   0  -5  415.24   59.89
  -7   1  -5    0.64    3.58
  -7   2  -5   62.18   23.25
  -7   3  -5   16.69   13.59
  -7   4  -5  631.30   82.74
  -7  -8  -6  -29.21   20.79
  -7  -7  -6   38.80   19.64
  -7  -6  -6   23.87   15.76
  -7  -5  -6  241.73   50.94
  -7  -4  -6   17.73   13.06
  -7  -3  -6  381.57   58.60
  -7  -2  -6  -10.55   11.71
  -7  -1  -6  179.12   38.80
  -7   0  -6    2.76    6.63
  -7   1  -6  172.66   41.43
  -7   2  -6   -1.34    3.96
  -7   3  -6  358.54   61.65
  -7   4  -6    9.39   13.80
  -7   5  -6  238.69   54.32
  -7   6  -6   13.66   10.70
  -7  -7  -7   -7.17    8.08
  -7  -6  -7  123.83   39.54
   7  -6  -7   82.40   32.56
  -7  -5  -7   -0.33   14.59
   7  -5  -7   -6.37    5.82
  -7  -4  -7  197.65   46.31
   7  -4  -7  208.92   46.07
  -7  -3  -7    3.09    8.16
   7  -3  -7   -5.93    9.14
  -7  -2  -7  436.05   64.65
  -7  -1  -7   13.08    9.40
  -7   0  -7   58.87   25.08
  -7   1  -7   -6.49    8.73
  -7   2  -7  502.89   72.91
  -7   3  -7  -10.86   10.10
  -7   4  -7  170.24   44.13
  -7   5  -7  -29.11   22.06
  -7   6  -7   56.48   26.08
  -7   7  -7   18.62   18.93
  -7   8  -7   30.63   23.06
  -7  -6  -8  -16.86   18.48
   7  -6  -8   26.60   21.88
  -7  -5  -8   96.66   33.30
   7  -5  -8   71.70   33.82
  -7  -4  -8   12.73   12.37
   7  -4  -8  -16.20   14.60
  -7  -3  -8  205.85   46.11
   7  -3  -8  222.50   48.71
  -7  -2  -8   11.67   13.40
   7  -2  -8    4.19    4.75
  -7  -1  -8  206.95   47.50
  -7   0  -8   26.93   18.60
  -7   1  -8  290.57   54.99
  -7   2  -8   -3.69    9.11
  -7   3  -8  189.57   47.58
  -7   4  -8   12.53   13.19
  -7   5  -8   48.41   26.70
  -7   6  -8   28.77   20.93
  -7   7  -8    3.98    8.68
  -7  -5  -9   12.64   13.93
   7  -5  -9   -9.79   15.31
  -7  -4  -9   66.48   28.77
   7  -4  -9   97.01   35.70
  -7  -3  -9    4.84   13.88
   7  -3  -9    0.93    5.48
  -7  -2  -9   80.98   29.31
   7  -2  -9  107.37   33.97
  -7  -1  -9   10.04   11.39
  -7   0  -9  361.30   61.98
  -7   1  -9   14.80   16.44
  -7   2  -9  121.63   37.69
  -7   3  -9   -9.03   16.91
  -7   4  -9   80.02   33.60
  -7   5  -9  -16.23   10.57
  -7   6  -9   34.43   22.54
   7  -5 -10   57.48   29.41
   7  -4 -10   -8.65   16.98
  -7  -3 -10    9.26   16.20
   7  -3 -10   10.93   18.61
  -7  -2 -10   19.19   18.28
  -7  -1 -10  243.73   55.63
  -7   0 -10   -8.35    4.31
  -7   1 -10  203.28   49.91
  -7   2 -10    1.46    6.64
  -7   3 -10   21.57   19.36
  -7   4 -10   -3.11   14.02
  -7   5 -10    6.91   12.06
  -7   0 -11  127.44   41.99
  -7   1 -11   -2.78    4.94
  -7   2 -11   52.61   28.54
  -7   3 -11   11.34   13.97
   8  -8   0  212.05   57.81
  -8  -8   0  217.42   52.27
   8  -7   0  -15.58   19.75
  -8  -7   0  -16.22   13.93
  -8  -6   0    8.48    9.19
   8  -6   0    7.02    9.93
  -8  -5   0   16.04   13.13
  -8  -5   0   31.16   14.37
   8  -5   0   16.98   13.18
  -8  -4   0  465.71   61.72
   8  -4   0  453.26   66.49
  -8  -4   0  503.54   56.54
  -8  -3   0   54.05   26.88
   8  -3   0  -14.25   15.85
  -8  -3   0   44.33   33.75
  -8  -2   0  754.97   68.94
  -8  -2   0  692.03   68.57
  -8  -1   0  106.11   32.53
   8  -1   0    6.79    6.54
   8   0   0  577.66   57.08
   8   1   0   91.22   26.13
  -8   2   0  917.64   44.37
  -8  -8  -1  -16.50   21.46
  -8  -8   1    9.20   11.53
   8  -8  -1  -23.80   22.12
   8  -8   1  -24.97   22.41
  -8  -7  -1  100.62   32.22
  -8  -7   1   98.36   35.35
   8  -7   1   87.05   33.06
   8  -7  -1  103.49   38.96
  -8  -6  -1   25.92   17.80
  -8  -6  -1   20.41   17.55
  -8  -6   1    7.44   10.10
   8  -6   1    9.75   10.39
   8  -6  -1    6.24   12.80
  -8  -5  -1  222.38   46.12
   8  -5  -1  159.18   43.51
  -8  -5   1  167.00   39.76
  -8  -5   1  184.85   32.20
  -8  -5  -1  211.70   42.57
   8  -5   1  142.68   41.55
  -8  -4   1    3.60    5.86
   8  -4  -1    3.11    5.02
  -8  -4   1    7.56    6.13
  -8  -4  -1    3.58    6.48
  -8  -3   1  763.49   75.10
   8  -3   1  621.27   74.35
  -8  -3  -1  789.12   73.71
   8  -3  -1  824.91   86.92
  -8  -3   1  854.08   71.41
   8  -2  -1    5.30    4.09
  -8  -2   1   -1.06    4.40
   8  -2   1   13.30   13.90
  -8  -2  -1   -2.29    9.35
  -8  -2   1   -5.43    6.28
  -8  -1   1 1579.36   92.11
   8  -1   1 1625.32  105.84
   8  -1  -1 1292.81   92.58
  -8  -1  -1 1226.21   93.97
  -8   0   1  132.42   29.95
   8   0   1  157.55   33.93
   8   0  -1  220.16   40.17
  -8   0  -1  247.81   47.31
  -8   1   1 1223.96   60.77
   8   1  -1 1395.12   78.70
   8   2  -1   13.48    7.85
  -8  -8  -2    2.94    6.11
  -8  -8   2    8.10   14.15
   8  -8  -2   24.83   22.41
   8  -8   2   42.07   22.76
  -8  -7  -2   -5.88   14.67
  -8  -7  -2    2.58   12.82
  -8  -7   2   -1.61    8.25
   8  -7   2  -34.05   21.90
   8  -7  -2  -43.15   25.29
  -8  -6   2  236.74   50.76
   8  -6   2  222.09   53.26
  -8  -6  -2  337.54   55.38
   8  -6  -2  232.07   55.95
  -8  -5   2   11.75   16.13
  -8  -5  -2    3.98    5.84
   8  -5   2  -21.78   23.18
   8  -5  -2   20.66   19.60
   8  -4  -2  147.34   39.02
  -8  -4   2   78.90   27.07
   8  -4   2   94.98   31.43
  -8  -4   2  115.97   22.91
  -8  -4  -2  146.30   32.71
   8  -3   2    0.70    7.02
  -8  -3   2   25.22   12.03
  -8  -3  -2   19.27   12.99
  -8  -3   2   24.79   13.77
  -8  -2   2  605.03   63.95
   8  -2   2  498.60   64.23
  -8  -2  -2  643.07   70.92
  -8  -2   2  539.85   56.79
  -8  -1   2   87.59   25.90
   8  -1   2   80.64   24.42
   8  -1  -2   32.87   19.93
  -8  -1  -2   21.55   14.11
   8   0   2  997.49   79.97
   8   0  -2  862.22   69.90
  -8   0  -2 1081.30   93.07
   8   1  -2   24.45   13.39
   8   2  -2  607.64   43.33
   8  -8   3   -2.25    9.72
  -8  -8  -3   -1.01    5.25
  -8  -7  -3  114.22   32.24
   8  -7   3  108.11   38.83
   8  -7  -3  134.40   45.09
   8  -6   3  -13.48    3.68
  -8  -6  -3   -3.15    4.78
  -8  -5   3  345.01   62.26
   8  -5   3  386.64   68.27
  -8  -5  -3  373.66   58.29
  -8  -4   3   -8.28   13.31
  -8  -4  -3    1.13    5.92
   8  -4   3   -4.32   10.65
  -8  -3  -3  127.18   30.90
  -8  -3   3   93.36   21.79
   8  -3   3   71.43   26.65
  -8  -2   3   64.53   21.47
  -8  -2  -3   16.29    9.40
   8  -2   3   42.26   22.22
   8  -1   3  644.08   70.61
  -8  -1  -3  702.48   75.32
  -8   0  -3  178.22   41.73
  -8   1  -3  624.50   73.80
   8   2  -3   31.79   10.73
  -8  -8  -4  100.96   35.32
   8  -8   4   56.00   30.30
  -8  -7  -4  -18.02   19.65
   8  -7   4   -0.61   12.71
  -8  -6  -4   99.99   35.18
   8  -6   4   77.43   33.36
  -8  -5  -4   -0.35    7.66
   8  -5   4    0.91    8.15
   8  -4   4  257.56   55.93
  -8  -4  -4  320.65   53.57
  -8  -3  -4   -8.83   13.21
   8  -3   4   -0.77    6.41
  -8  -2  -4   86.86   26.15
  -8  -1  -4   55.11   22.82
  -8   0  -4  349.95   55.47
  -8   1  -4   46.69   18.67
  -8   2  -4   47.86   25.05
  -8  -8  -5   69.25   34.61
  -8  -7  -5  117.08   36.68
   8  -7   5   65.41   29.28
  -8  -6  -5   36.41   21.54
   8  -6   5   10.93   10.61
  -8  -5  -5   40.15   22.32
   8  -5   5   87.91   35.29
  -8  -4  -5   21.35   16.40
  -8  -3  -5  216.58   43.66
  -8  -2  -5   -5.94    7.85
  -8  -1  -5   20.25   11.26
  -8   0  -5    5.29    5.45
  -8   1  -5   31.23   18.23
  -8   2  -5    3.31    4.84
  -8   3  -5  210.92   48.86
  -8   4  -5   -4.47    7.84
  -8  -8  -6    8.08    6.38
  -8  -7  -6   23.48   20.29
  -8  -6  -6   54.22   27.01
  -8  -5  -6   16.26   15.67
  -8  -4  -6   25.77   16.86
  -8  -3  -6    8.82    9.38
  -8  -2  -6  155.90   38.42
  -8  -1  -6   13.55   10.85
  -8   0  -6   47.46   24.19
  -8   1  -6   17.38   15.06
  -8   2  -6  143.76   40.27
  -8   3  -6   -3.84    8.01
  -8   4  -6   68.34   33.65
  -8   5  -6   15.32   17.70
  -8   6  -6   23.26   19.75
  -8   7  -6   13.42   13.66
  -8  -7  -7  -47.21   26.41
  -8  -6  -7   24.45   15.84
  -8  -5  -7    3.31   10.19
  -8  -4  -7  -10.50    8.87
  -8  -3  -7   -5.76   12.03
  -8  -2  -7    4.65    5.33
  -8  -1  -7   69.84   28.14
  -8   0  -7   10.95   10.72
  -8   1  -7   60.89   28.83
  -8   2  -7   17.76   13.77
  -8   3  -7   10.44   15.93
  -8   4  -7  -17.66   17.87
  -8   5  -7    5.26    8.07
  -8   6  -7   14.12   14.25
  -8   7  -7    9.81   17.25
  -8  -5  -8   -7.61   16.15
  -8  -4  -8    5.03    7.63
  -8  -3  -8    3.94    4.60
  -8  -2  -8   59.91   25.29
  -8  -1  -8   -3.51    9.50
  -8   0  -8   43.27   22.37
  -8   1  -8  -11.02   13.26
  -8   2  -8   14.57   12.63
  -8   3  -8    5.10   10.43
  -8   4  -8   34.84   25.85
  -8   5  -8  -25.39   18.75
  -8   6  -8   -5.48   15.63
  -8  -4  -9    3.93   12.34
  -8  -3  -9   28.82   20.73
  -8  -2  -9   18.69   16.29
  -8  -1  -9   48.24   24.57
  -8   0  -9   11.19   16.17
  -8   1  -9   55.62   28.60
  -8   2  -9   -3.07   12.28
  -8   3  -9   17.45   19.59
  -8   4  -9   11.36   12.73
  -8   5  -9   -3.35   10.62
  -8  -1 -10   20.74   17.49
  -8   0 -10   36.62   24.77
  -8   1 -10    4.47   13.10
  -8   2 -10   27.29   23.49
  -8   3 -10   -4.04   11.31
  -9  -8   0   10.88   21.61
   9  -8   0   -7.43   13.69
   9  -7   0    1.49   15.74
  -9  -7   0    7.00   12.30
   9  -6   0  -18.73   20.02
  -9  -6   0    1.67    6.33
   9  -5   0   -5.83   13.71
  -9  -5   0   -3.72    6.14
  -9  -5   0   10.63   16.41
   9  -4   0    0.23    4.78
  -9  -4   0    2.42    6.80
  -9  -4   0   10.14   10.26
  -9  -3   0    5.04    4.54
  -9  -3   0   -1.06   11.81
   9  -3   0    0.29    7.89
  -9  -2   0    2.50   10.10
   9  -2   0    2.03    8.08
  -9  -2   0    2.38    6.69
  -9  -1   0    6.75    9.15
  -9  -1   0    9.01   11.26
   9  -1   0    7.38    7.15
  -9   0   0    5.30    4.26
   9   0   0    5.44    7.72
  -9   1   0   11.96    6.74
   9   1   0    0.21    2.53
  -9  -8  -1   33.10   23.01
  -9  -8   1   36.89   25.29
   9  -8  -1   15.30   18.91
   9  -8   1  -11.80   13.88
  -9  -7  -1   22.29   17.00
  -9  -7   1  -27.04   19.12
   9  -7  -1   15.90    9.73
   9  -7   1  -12.81   16.08
  -9  -6  -1   47.65   23.34
  -9  -6   1   43.11   27.38
   9  -6  -1   23.00   23.16
   9  -6   1   17.39   13.81
  -9  -5  -1   17.44   14.24
  -9  -5   1   18.23   18.20
  -9  -5  -1   -4.23   12.14
   9  -5   1  -16.56   16.92
   9  -5  -1    0.90    5.46
  -9  -4   1  114.46   34.24
  -9  -4   1  109.35   26.54
  -9  -4  -1  105.62   30.25
   9  -4   1   78.42   27.83
   9  -4  -1   97.65   32.44
  -9  -3   1   46.41   19.03
   9  -3   1   18.53   11.45
  -9  -3  -1   32.97   19.31
  -9  -3   1   51.43   21.29
   9  -3  -1   38.87   20.63
  -9  -2   1   40.87   15.82
   9  -2   1   77.25   25.97
   9  -2  -1   42.68   18.38
  -9  -2  -1   81.69   25.85
  -9  -2   1   68.64   22.54
   9  -1   1   59.81   20.78
   9  -1  -1   64.56   21.90
  -9  -1   1   90.26   26.72
  -9  -1   1  103.49   23.41
  -9  -1  -1   69.17   24.34
  -9   0  -1   24.38   17.55
  -9   0   1   26.01   11.91
   9   0  -1   36.42   14.85
   9   0   1   14.56    8.54
   9   1  -1   89.72   21.56
  -9   1   1   72.24   15.61
   9   2  -1   56.46   13.36
  -9  -8  -2    1.22    6.97
   9  -8   2  -10.73   20.16
  -9  -8   2  -26.52   22.89
   9  -8  -2   -3.64   17.27
  -9  -7  -2   32.86   21.28
   9  -7  -2   28.70   19.64
  -9  -7   2    6.44   14.91
   9  -7   2   -2.87    9.88
  -9  -6  -2   10.00   12.22
  -9  -6  -2    3.79   10.81
  -9  -6   2  -24.35   19.15
   9  -6   2  -22.39   22.09
   9  -6  -2  -11.74    9.07
  -9  -5   2   49.72   26.54
   9  -5   2   39.77   23.48
  -9  -5  -2   68.23   27.86
   9  -5  -2   59.22   30.11
   9  -4  -2   30.30   18.03
   9  -4   2   23.24   16.04
  -9  -4   2    0.81   10.91
  -9  -4  -2   41.75   14.81
   9  -3   2  185.32   44.03
  -9  -3   2  269.17   50.67
  -9  -3  -2  238.19   45.32
  -9  -3   2  276.94   44.02
   9  -3  -2  297.46   54.70
  -9  -2   2   -3.76    9.29
  -9  -2   2   -4.71    6.23
  -9  -2  -2    8.02   13.97
   9  -2  -2   -0.42    4.58
   9  -2   2   -2.36    7.03
  -9  -1   2    3.84    5.68
   9  -1  -2    1.22    6.37
   9  -1   2   18.89   14.60
  -9  -1  -2   22.77   15.22
  -9   0  -2   17.12   15.16
   9   0  -2   15.38   12.58
  -9   1  -2   -5.63   10.01
   9   1  -2   17.71   11.08
   9  -7   3  -26.78   21.71
  -9  -7  -3  -13.95   11.70
   9  -7  -3   23.33   21.90
   9  -6  -3  181.11   51.62
   9  -6   3   97.80   38.10
  -9  -6  -3  129.61   38.78
  -9  -6   3  139.29   42.69
   9  -5   3    4.92    4.16
  -9  -5  -3    4.69    7.28
  -9  -4   3  155.13   40.42
  -9  -4  -3  158.67   38.53
   9  -4   3  139.25   40.55
  -9  -3  -3  -20.28   16.12
   9  -3   3    9.81   15.22
  -9  -2   3  186.37   36.36
   9  -2   3  163.25   40.38
  -9  -1  -3   43.81   22.32
  -9   0  -3   99.34   30.97
  -9   1  -3   31.99   15.40
   9   1  -3   44.18   15.95
  -9   2  -3  186.60   45.22
  -9  -7  -4   72.88   27.94
   9  -7   4  109.42   43.91
  -9  -6  -4   10.59   19.62
   9  -6   4    5.08    4.37
  -9  -5  -4  217.75   48.01
   9  -5   4  201.92   52.27
  -9  -4  -4   11.00    4.45
   9  -4   4   -6.25    7.68
  -9  -3  -4   53.07   24.71
   9  -3   4   37.21   23.16
  -9  -2  -4   32.56   11.74
  -9  -1  -4  166.99   38.86
  -9   0  -4   24.12   19.02
  -9   1  -4  176.00   43.68
  -9   2  -4   37.30   24.59
  -9   3  -4    1.01    8.64
  -9  -8  -5   93.58   38.23
  -9  -7  -5   32.56   22.06
   9  -7   5    9.72   15.15
  -9  -6  -5  211.58   50.54
   9  -6   5  163.02   49.16
  -9  -5  -5   23.23   17.53
   9  -5   5   17.21   17.00
  -9  -4  -5  175.03   44.06
  -9  -3  -5   -5.34    3.62
  -9  -2  -5  132.05   35.97
  -9  -1  -5   51.24   27.52
  -9   0  -5  480.03   71.13
  -9   1  -5   12.95    9.68
  -9   2  -5  109.67   38.18
  -9   3  -5    8.37   10.76
  -9   4  -5  165.65   49.33
  -9  -7  -6  172.30   49.57
  -9  -6  -6   21.90   18.16
  -9  -5  -6  104.96   36.59
  -9  -4  -6  -18.35   16.64
  -9  -3  -6  155.33   41.33
  -9  -2  -6    7.10    3.56
  -9  -1  -6  195.45   44.32
  -9   0  -6   64.58   28.66
  -9   1  -6  203.62   48.81
  -9   2  -6    5.20    7.63
  -9   3  -6  174.14   49.28
  -9   4  -6    2.03   11.89
  -9   5  -6   64.25   34.36
  -9   6  -6   10.77   19.39
  -9   7  -6  193.63   57.10
  -9  -6  -7  167.03   49.25
  -9  -5  -7    2.31   14.09
  -9  -4  -7  142.66   41.22
  -9  -3  -7   11.50   14.08
  -9  -2  -7  260.85   53.63
  -9  -1  -7  -17.85   13.62
  -9   0  -7   67.71   28.83
  -9   1  -7   -0.54   11.52
  -9   2  -7  254.64   57.66
  -9   3  -7   -2.14    7.21
  -9   4  -7   85.90   37.28
  -9   5  -7    1.80    6.35
  -9   6  -7   81.36   38.58
  -9  -4  -8    7.78   16.08
  -9  -3  -8  197.55   48.91
  -9  -2  -8    3.43    8.89
  -9  -1  -8  121.75   37.69
  -9   0  -8   24.35   15.07
  -9   1  -8   98.26   34.45
  -9   2  -8   -1.35    7.80
  -9   3  -8  154.64   47.47
  -9   4  -8    4.29   11.59
  -9   5  -8   24.56   19.65
  -9  -2  -9   52.72   26.84
  -9  -1  -9    0.47    7.83
  -9   0  -9  126.78   40.96
  -9   1  -9    3.87    6.50
  -9   2  -9   59.72   29.04
  -9   3  -9   -1.44    6.89
 -10  -7   0    4.53    6.63
  10  -7   0   -7.20   17.78
 -10  -6   0  130.17   40.42
  10  -6   0  150.21   45.83
 -10  -5   0  -13.61   14.61
  10  -5   0   -7.03    8.44
 -10  -4   0  297.41   54.76
  10  -4   0  260.17   55.22
 -10  -4   0  324.68   52.82
 -10  -3   0   23.97   19.18
 -10  -3   0   10.75   25.77
  10  -3   0   -3.86    9.16
 -10  -2   0  317.25   50.89
  10  -2   0  307.79   54.60
 -10  -2   0  244.68   47.67
 -10  -1   0  326.30   49.24
  10  -1   0  201.76   40.65
 -10  -1   0  258.85   54.48
 -10   0   0  399.06   48.93
  10   0   0  324.18   47.82
  10   1   0  220.42   36.93
 -10  -7  -1  121.75   40.35
  10  -7  -1  134.11   47.08
 -10  -7   1  141.59   43.67
  10  -7   1  117.18   44.15
 -10  -6  -1    8.89   11.05
 -10  -6   1   -1.08    8.80
  10  -6  -1  -18.91   19.98
  10  -6   1   10.85    5.11
 -10  -5  -1  294.56   59.00
 -10  -5   1  188.72   45.86
  10  -5  -1  180.37   50.53
 -10  -5  -1  258.42   51.10
  10  -5   1  216.99   54.07
 -10  -4  -1   13.75   11.89
 -10  -4   1    5.44    8.83
  10  -4  -1    2.84    9.66
  10  -4   1  -18.25   11.19
 -10  -4  -1    5.18    3.74
 -10  -3   1  341.66   54.99
  10  -3   1  308.22   57.34
  10  -3  -1  334.32   59.03
 -10  -3  -1  334.45   54.50
 -10  -3   1  378.17   56.83
  10  -2  -1   70.44   26.51
  10  -2   1   62.61   21.61
 -10  -2   1   55.30   19.09
 -10  -2  -1   52.99   24.19
 -10  -2   1   78.93   29.61
 -10  -1   1  682.03   68.08
  10  -1   1  558.63   69.95
  10  -1  -1  487.89   63.27
 -10  -1  -1  428.17   64.68
 -10  -1   1  633.61   77.05
 -10   0   1   53.19   18.65
  10   0  -1   96.29   27.97
  10   0   1   61.39   24.68
  10   1  -1  537.45   55.47
 -10  -7  -2   17.25   20.57
  10  -7   2  -12.28   23.29
 -10  -7   2   25.94   16.80
  10  -7  -2   -1.66    9.21
 -10  -6  -2  217.16   51.42
  10  -6   2  139.18   44.42
 -10  -6   2  175.66   48.45
  10  -6  -2  156.94   49.47
  10  -5  -2   13.58   15.31
  10  -5   2   -3.99   14.60
 -10  -5   2  -17.15   16.20
 -10  -5  -2   10.95   20.07
  10  -4  -2  164.67   45.09
  10  -4   2  138.98   39.77
 -10  -4   2  177.40   45.08
 -10  -4  -2  182.39   40.62
  10  -3   2   20.36   12.50
  10  -3  -2   34.29   20.24
 -10  -3   2   31.48   15.69
 -10  -3  -2   27.63   16.57
 -10  -2   2  357.72   55.52
  10  -2   2  276.37   53.63
  10  -2  -2  277.35   50.63
 -10  -2  -2  337.77   59.95
 -10  -2   2  278.36   50.36
 -10  -1   2   62.29   21.93
  10  -1  -2   66.58   25.66
  10  -1   2   60.50   24.33
 -10  -1  -2   44.75   17.60
  10   0  -2  335.39   48.22
 -10   0  -2  275.78   55.66
 -10   1  -2   70.30   29.10
  10  -7   3   33.85   23.59
 -10  -7  -3  130.08   41.73
  10  -7  -3  107.30   43.56
 -10  -6  -3  -20.20   18.77
  10  -6  -3    4.12    7.04
  10  -6   3  -14.99   17.94
 -10  -5  -3  168.31   43.24
  10  -5  -3  134.17   44.41
  10  -5   3   76.54   32.31
 -10  -4  -3   17.95   10.92
  10  -4   3   31.17   16.27
  10  -4  -3   36.16   23.07
  10  -3  -3  174.58   44.69
 -10  -3  -3  191.59   42.90
  10  -3   3  183.12   46.11
 -10  -2   3   62.87   21.85
  10  -2   3   49.95   24.77
 -10  -2  -3   53.92   24.79
  10  -2  -3   78.91   32.12
  10  -1  -3  269.09   49.04
 -10  -1  -3  286.85   55.59
  10   0  -3   19.55   14.35
 -10   0  -3   56.93   28.61
 -10   1  -3  207.69   48.40
 -10   2  -3   32.16   20.87
 -10  -6  -4   67.52   28.43
  10  -6  -4   59.60   30.64
  10  -6   4   53.37   26.97
 -10  -5  -4   32.37   19.36
  10  -5   4    9.45   10.86
 -10  -4  -4  152.48   41.97
  10  -4   4  111.74   37.75
 -10  -3  -4   15.08   10.23
  10  -3   4   24.84   16.72
 -10  -2  -4   94.88   31.71
 -10  -1  -4   16.66   17.92
 -10   0  -4  167.62   42.56
 -10   1  -4   32.27   21.23
 -10   2  -4   82.10   31.10
 -10   3  -4   21.19   13.81
 -10  -7  -5    6.81    7.65
 -10  -6  -5   18.26   18.29
  10  -6   5    1.03    5.64
 -10  -5  -5   41.35   22.52
  10  -5   5   52.48   29.14
 -10  -4  -5   36.80   20.73
 -10  -3  -5   80.12   29.63
 -10  -2  -5    1.73    5.98
 -10  -1  -5   60.59   24.20
 -10   0  -5   21.64   20.57
 -10   1  -5   46.46   24.44
 -10   2  -5   -7.50    5.02
 -10   3  -5   36.02   24.25
 -10   4  -5   15.74   17.51
 -10   5  -5   65.74   33.36
 -10  -6  -6  -17.24   18.34
 -10  -5  -6   17.20   19.79
 -10  -4  -6   31.43   20.89
 -10  -3  -6   22.82   18.70
 -10  -2  -6   77.06   30.14
 -10  -1  -6  -12.64   15.53
 -10   0  -6   22.35   18.44
 -10   1  -6   11.50   15.59
 -10   2  -6   38.04   26.17
 -10   3  -6    1.22   10.51
 -10   4  -6   22.04   20.27
 -10   5  -6   23.69   21.40
 -10  -5  -7    2.24   11.91
 -10  -4  -7   17.72   18.57
 -10  -3  -7  -15.40   16.66
 -10  -2  -7   20.38   15.50
 -10  -1  -7   31.71   21.29
 -10   0  -7  -13.79   16.28
 -10   1  -7   35.21   23.83
 -10   2  -7   -1.72    8.07
 -10   3  -7   19.74   18.73
 -10   4  -7   19.85   16.04
 -10  -3  -8   12.07   10.79
 -10  -2  -8   18.78   15.85
 -10  -1  -8  -16.98   16.01
 -10   0  -8   55.86   28.57
 -10   1  -8  -10.60   15.92
 -10   2  -8  -11.32   19.06
 -10   3  -8   -5.81   12.38
 -11  -7   0   39.75   25.84
 -11  -6   0   15.54   13.06
  11  -6   0   -0.48    7.39
 -11  -5   0   21.97   19.05
  11  -5   0    4.20   13.93
 -11  -4   0   30.71   19.82
  11  -4   0   -9.62    9.92
 -11  -3   0   12.97   14.82
  11  -3   0    8.84   13.40
 -11  -3   0    3.53    4.00
 -11  -2   0   10.70   12.45
  11  -2   0   -4.11   11.96
 -11  -2   0   -0.14   16.03
 -11  -1   0   19.98   18.11
  11  -1   0   32.30   20.45
 -11  -1   0   16.44   12.60
 -11   0   0   -4.26   14.60
  11   0   0   -4.07    6.35
 -11  -7   1    6.00   16.07
  11  -6  -1   11.70   10.95
 -11  -6  -1    9.50   11.91
 -11  -6   1    4.85   12.11
 -11  -5  -1   -1.59    6.81
 -11  -5   1  -12.69   17.06
  11  -5   1    7.35    8.27
  11  -4  -1    6.13    9.65
 -11  -4  -1    4.86    9.82
 -11  -4   1   -8.95    6.34
  11  -4   1    1.08   10.48
 -11  -4  -1  -13.87   13.09
 -11  -3  -1   18.79   17.19
 -11  -3   1   11.82   13.13
  11  -3   1  -12.58   17.20
 -11  -3  -1   -0.50    7.91
  11  -3  -1    3.58    7.16
  11  -2   1   41.95   22.57
 -11  -2  -1   20.17   16.11
 -11  -2   1   38.49   24.17
 -11  -2  -1    3.58   17.97
  11  -2  -1   21.20   15.72
 -11  -2   1   27.17   20.66
 -11  -1   1   11.29   10.40
  11  -1  -1   12.51    6.15
  11  -1   1    2.86    6.08
 -11  -1  -1   12.13   13.76
 -11   0  -1   94.27   32.79
  11   0  -1  106.34   26.92
  11   0   1   87.42   27.06
  11  -6   2   -3.32   10.61
 -11  -6  -2   29.05   20.30
 -11  -6   2   17.45   11.84
  11  -6  -2   26.26   23.71
  11  -5   2    6.56   11.44
 -11  -5  -2   80.42   35.56
 -11  -5   2   32.18   20.39
 -11  -5  -2   55.19   25.09
  11  -5  -2   28.72   22.48
  11  -4   2   11.28   13.57
 -11  -4   2   27.42   20.16
 -11  -4  -2    7.85   11.87
  11  -4  -2   12.75   19.52
 -11  -3   2   50.32   24.85
  11  -3  -2   35.13   21.33
 -11  -3  -2   16.20   16.17
  11  -3   2   26.19   17.56
 -11  -2   2   19.61   13.90
  11  -2  -2   22.44   17.79
 -11  -2  -2   -9.59   11.76
  11  -2   2   -5.34   11.06
 -11  -2   2   10.99   15.38
  11  -1  -2  139.49   34.16
 -11  -1   2  114.35   31.97
  11  -1   2  127.30   34.88
 -11  -1  -2  143.53   40.44
 -11   0  -2   -3.60    4.24
 -11   1  -2  114.51   36.71
  11  -6  -3   12.63   15.32
  11  -6   3   36.47   26.62
  11  -5  -3  -21.09   20.32
 -11  -5  -3  -12.26   19.17
  11  -5   3    6.43   10.94
 -11  -4  -3   32.79   23.09
  11  -4  -3   31.15   21.06
  11  -4   3   65.41   34.82
  11  -3  -3   28.37   20.26
 -11  -3  -3  -26.90   22.62
  11  -3   3   18.37   15.18
  11  -2  -3  186.97   43.81
  11  -2   3  146.48   41.10
 -11  -2  -3  182.40   43.76
 -11  -1  -3  -13.02    8.76
  11  -1  -3   -2.81    4.00
 -11   0  -3  177.52   47.12
 -11   1  -3   35.01   22.69
 -11   2  -3  142.04   42.42
  11  -6  -4  -12.28   13.32
 -11  -6  -4  -25.90   24.11
 -11  -5  -4   21.69   18.50
  11  -5   4   29.47   24.00
  11  -5  -4   35.02   27.37
 -11  -4  -4   -8.93   13.67
  11  -4  -4  -30.00   24.46
  11  -4   4   14.69   15.36
 -11  -3  -4  154.73   43.22
  11  -3  -4  150.47   42.44
  11  -2  -4   -6.82    8.98
 -11  -2  -4    7.72    6.53
  11  -1  -4  143.06   36.02
 -11  -1  -4  139.85   39.93
 -11   0  -4    7.59   10.50
 -11   1  -4  144.88   42.47
 -11   2  -4   28.91   21.95
 -11   3  -4  120.65   41.86
 -11   4  -4   10.52   10.72
 -11  -6  -5   37.33   22.07
 -11  -5  -5   -8.19   14.49
 -11  -4  -5  121.39   39.59
 -11  -3  -5   -1.35   10.59
 -11  -2  -5  155.01   42.89
 -11  -1  -5    0.30    9.01
 -11   0  -5  173.19   46.58
 -11   1  -5   19.96   16.85
 -11   2  -5  114.91   41.44
 -11   3  -5   13.18   15.40
 -11   4  -5   97.94   40.13
 -11   5  -5   -6.94   11.08
 -11  -5  -6  183.89   52.81
 -11  -4  -6    2.51   10.96
 -11  -3  -6   94.49   33.34
 -11  -2  -6   -0.72    9.64
 -11  -1  -6  118.14   37.62
 -11   0  -6    5.69   17.55
 -11   1  -6   96.27   35.08
 -11   2  -6   20.07   18.23
 -11   3  -6  109.33   42.40
 -11   4  -6    8.99    5.74
 -11  -3  -7    4.62    8.68
 -11  -2  -7   85.82   33.68
 -11  -1  -7   -6.16    7.09
 -11   0  -7   54.72   27.10
 -11   1  -7   -8.16   13.64
 -11   2  -7   61.15   28.61
 -12  -6   0  207.45   57.33
 -12  -5   0   31.50   19.08
  12  -5   0    2.27   13.70
 -12  -4   0  375.06   69.52
  12  -4   0  274.80   60.68
 -12  -3   0   -4.94    8.42
  12  -3   0  -50.47   25.13
 -12  -2   0  153.61   39.77
  12  -2   0  145.78   39.13
 -12  -2   0   99.43   36.19
  12  -1   0   16.44    9.17
 -12  -1   0   27.85   22.10
 -12   0   0  184.41   45.59
 -12  -6  -1   -5.87   10.68
 -12  -6   1   -3.60   15.70
 -12  -5  -1  280.16   63.93
 -12  -5   1  233.07   57.37
  12  -5   1  141.42   44.29
  12  -5  -1  178.56   53.81
 -12  -4  -1   -6.08   15.27
  12  -4   1  -24.22   22.80
 -12  -4   1    0.64   10.57
  12  -4  -1  -15.01   13.95
 -12  -3  -1  200.74   48.36
 -12  -3   1  208.82   49.05
  12  -3   1  247.39   57.10
 -12  -3  -1  175.59   44.50
  12  -3  -1  178.11   46.82
 -12  -2  -1   15.83   17.12
  12  -2  -1  -17.81   17.17
 -12  -2  -1   25.26   21.81
 -12  -2   1  -12.06   18.49
  12  -2   1   -7.64   13.77
 -12  -1   1  119.97   43.24
  12  -1  -1  123.18   34.71
  12  -1   1  186.78   43.62
 -12  -1  -1  151.53   43.26
 -12   0  -1   69.13   31.35
 -12   0   1   35.50   26.63
 -12   1  -1  144.47   43.95
 -12  -6   2   79.59   36.65
  12  -5   2   37.65   23.89
 -12  -5  -2    6.04   18.49
  12  -5  -2   -6.95    6.54
 -12  -5   2    2.36   15.58
 -12  -4  -2  179.28   48.94
  12  -4  -2  159.66   46.26
 -12  -4   2   99.57   36.39
 -12  -4  -2   94.81   34.59
  12  -4   2   97.09   36.47
  12  -3  -2   16.57   12.07
 -12  -3   2   -3.04   14.99
 -12  -3  -2   29.99   23.25
  12  -3   2   11.00    7.16
  12  -2   2  253.79   55.84
 -12  -2  -2  279.49   62.37
  12  -2  -2  208.55   47.49
 -12  -1   2   36.22   28.31
  12  -1   2    1.37    5.23
 -12  -1  -2   25.62   20.70
 -12   0  -2  143.83   44.31
 -12   1  -2    8.55   11.05
 -12   2  -2  288.11   64.40
  12  -5  -3   56.64   30.16
  12  -5   3    6.10   14.04
 -12  -4  -3    4.77   15.39
  12  -4  -3    2.41    9.40
  12  -4   3   29.28   23.71
 -12  -3  -3  135.28   42.00
  12  -3   3   67.01   29.65
  12  -3  -3  130.06   41.26
  12  -2  -3   24.00   20.32
 -12  -2  -3    1.24    5.39
 -12  -1  -3  143.26   43.20
 -12   0  -3   12.59   14.23
 -12   1  -3   92.08   36.04
 -12   2  -3    8.15   17.87
 -12   3  -3  107.82   41.21
 -12  -5  -4  -18.42   16.95
  12  -5  -4   16.92   17.85
 -12  -4  -4   43.93   26.27
  12  -4  -4   32.44   21.70
  12  -4   4   38.16   24.45
  12  -3  -4   18.74   15.79
 -12  -3  -4   -6.96   17.45
  12  -2  -4  103.79   35.19
 -12  -2  -4   94.45   35.51
 -12  -1  -4   11.30   16.53
 -12   0  -4  231.10   55.50
 -12   1  -4    7.62   13.70
 -12   2  -4   59.23   29.93
 -12   3  -4  -15.00    7.40
 -12   4  -4   66.65   34.21
 -12  -5  -5   43.11   26.27
  12  -4  -5  -34.21   22.73
 -12  -4  -5    6.88    9.11
  12  -3  -5   18.05   12.62
 -12  -3  -5    9.53   11.68
 -12  -2  -5    4.69    6.14
 -12  -1  -5  104.04   34.05
 -12   0  -5   10.52   20.73
 -12   1  -5   44.61   24.44
 -12   2  -5    8.01    9.70
 -12   3  -5   -4.82    6.40
 -12  -3  -6   34.69   22.60
 -12  -2  -6   22.27   19.03
 -12  -1  -6   44.49   26.33
 -12   0  -6   24.28   17.41
 -12   1  -6    0.19    6.11
 -13  -5   0  -27.23   28.33
  13  -5   0   -3.43   11.23
 -13  -4   0  -16.35   20.69
  13  -4   0   27.95   23.09
  13  -3   0  -10.15   17.15
  13  -2   0  -11.61   15.23
 -13  -2   0   12.23   10.09
 -13  -1   0    9.23   15.23
 -13   0   0    8.28    7.15
 -13   1   0   22.05   20.54
 -13  -5  -1   38.31   27.45
 -13  -5   1   -5.79   14.50
  13  -5  -1   -0.38   13.45
  13  -4   1   32.22   18.94
 -13  -4  -1   68.34   32.78
 -13  -4   1   33.06   21.12
  13  -4  -1    8.66    7.70
  13  -3  -1    7.43   11.10
  13  -3   1   25.59   15.55
 -13  -2  -1   -9.77   12.31
  13  -2   1   -1.35    5.13
 -13  -1  -1   -9.47   11.43
 -13  -1   1   46.14   28.46
 -13   0  -1    4.37   12.24
 -13   0   1   28.68   21.81
 -13   1  -1  -11.75   14.55
 -13   2  -1   42.39   25.79
 -13  -5  -2   72.89   36.04
 -13  -5   2   23.78   17.05
 -13  -4  -2   22.32   23.92
  13  -4   2  -14.28   17.22
  13  -4  -2   29.91   21.70
 -13  -3  -2    9.82   13.56
 -13  -3  -2   44.22   22.02
  13  -3   2   27.42   21.80
  13  -3  -2   14.94   16.98
  13  -2   2   49.37   25.94
 -13  -2  -2   59.97   31.04
 -13  -1  -2   24.66   23.76
 -13   0   2    7.97   16.22
 -13   0  -2   33.06   21.70
 -13   1  -2   11.55   12.65
 -13   2  -2   97.21   38.56
 -13   3  -2   23.83   20.79
  13  -4  -3   42.47   27.82
 -13  -4  -3   26.18   20.53
  13  -4   3   32.31   22.89
  13  -3  -3    8.37   16.52
 -13  -3  -3    8.95   11.61
  13  -3   3    3.58    7.50
 -13  -2  -3   80.22   31.81
 -13  -1  -3   45.29   31.67
 -13   0  -3   33.02   24.01
 -13   1  -3   19.04   15.10
 -13   2  -3   95.43   40.69
 -13   3  -3   17.00   12.66
 -13  -4  -4   46.99   25.14
  13  -4  -4    2.30   12.43
 -13  -3  -4   62.84   32.53
 -13  -2  -4   -9.40    7.14
 -13  -1  -4   90.11   34.16
 -13   0  -4  -16.61   15.46
 -13   1  -4   55.25   29.93
 -13   2  -4   11.07   20.04
 -13  -2  -5   47.29   25.89
 -13  -1  -5   37.64   22.26
  14  -4   0    8.41   11.62
 -14  -1   0   27.10   23.44
 -14   0   0  452.99   84.40
 -14   1   0   52.55   33.10
  14  -4  -1  -43.45   26.08
 -14  -1  -1  162.50   47.96
 -14   0   1   42.30   37.20
 -14   0  -1   55.04   31.85
 -14   1   1  200.39   56.01
 -14   1  -1  347.37   74.20
 -14   2  -1    9.61   13.78
  14  -3   2    1.56    8.30
 -14  -2  -2  155.94   50.23
 -14  -1  -2   12.46   13.32
 -14   0  -2   70.62   31.92
 -14   1  -2   11.96   19.47
 -14  -3  -3   90.90   36.95
 -14  -2  -3   30.28   19.55
 -14  -1  -3   57.66   32.47
 -14   0  -3  -16.85   15.28
 -15   0   0  -10.87   18.32
 -15   1   1    9.11   12.42
   0   0   0    0.00    0.00




TITL P191218F5 in Pna2(1)
REM Pna2(1) (#33, found as P2(1)cn in -cba setting)
CELL 0.71073  11.011086   9.877183   8.689322  90.0000  90.0000  90.0000
ZERR    4.00   0.001674   0.001817   0.001266   0.0000   0.0000   0.0000
LATT -1
SYMM -x,-y, z+1/2
SYMM  x+1/2,-y+1/2, z
SYMM -x+1/2, y+1/2, z+1/2
SFAC C H N O
UNIT 44.00 40.00 4.00 4.00
TREF
HKLF 4
END
_computing_structure_solution     'SHELXT 2014/5 (Sheldrick, 2014)'
_computing_structure_solution     'SHELXT 2014/5 (Sheldrick, 2014)'
_computing_structure_solution     'SHELXT 2014/5 (Sheldrick, 2014)'
;
_shelx_hkl_checksum              55028
_shelx_fab_file
;
0 0 4 6.7498 -1.6175
0 0 6 -10.9256 -0.7008
0 0 10 2.5822 0.7465
0 0 12 3.4646 0.8925
0 1 3 -22.4344 0.3606
0 1 5 2.4026 0.1997
0 1 11 0.8242 -0.1540
0 2 2 47.9852 0.2283
0 2 4 -0.0370 0.1855
0 2 6 -4.9883 0.1661
0 2 8 0.6163 0.0738
0 2 12 -0.9580 -0.1812
0 3 7 1.4973 0.0094
0 3 9 0.1524 0.0080
0 3 11 0.8455 -0.0019
0 4 2 9.4016 0.0584
0 4 4 2.9223 0.0813
0 4 6 -9.2587 0.0476
0 4 8 1.8650 -0.0416
0 4 10 -0.8853 -0.1076
0 5 1 -9.6666 0.0094
0 5 3 -10.1485 -0.0572
0 5 5 -2.4739 -0.0627
0 5 7 0.9233 -0.0115
0 5 9 -1.5088 -0.0551
0 6 0 6.9567 0.0012
0 6 2 7.9256 -0.0456
0 6 4 6.0086 -0.0769
0 6 6 3.1296 -0.0810
0 6 8 -0.1112 -0.0466
0 6 10 -6.5208 -0.0624
0 7 1 -5.7984 -0.0464
0 7 3 -4.0539 -0.0299
0 7 5 -3.3966 -0.0073
0 7 7 -0.4281 0.0099
0 7 9 4.4461 0.0112
0 8 0 0.4311 -0.0450
0 8 2 4.3272 -0.0407
0 8 4 3.3613 -0.0048
0 8 6 2.6563 0.0368
0 8 8 -1.4107 0.0404
0 9 1 -3.2185 0.0714
0 9 3 -1.1304 0.0510
0 9 5 -2.3784 0.0448
0 9 7 -0.2710 0.0466
0 10 0 2.3015 0.0699
0 10 2 2.5666 0.0897
0 10 4 0.1941 0.0723
1 0 5 10.7408 1.5346
1 0 7 7.5969 1.7132
1 0 9 -7.7171 1.5008
1 0 11 -3.6750 0.9197
1 1 1 -2.7420 0.3543
1 1 2 -26.4300 -0.3979
1 1 3 0.2758 -0.3336
1 1 4 -16.5804 -0.6408
1 1 6 -10.7103 -0.7429
1 1 7 -1.1527 -0.0637
1 1 8 2.3373 -0.6947
1 1 9 -1.4119 -0.2106
1 1 10 -1.9108 -0.3887
1 1 11 -2.2620 -0.0570
1 1 12 3.5327 -0.2018
1 2 1 3.9944 -0.6550
1 2 3 27.5805 -0.0797
1 2 5 6.8453 -0.2949
1 2 6 3.5689 -0.1944
1 2 7 3.1313 -0.2213
1 2 8 0.0730 -0.3999
1 2 9 5.0692 -0.2852
1 2 10 1.7345 -0.1650
1 2 11 0.4538 -0.3944
1 2 12 1.9562 -0.1241
1 3 1 4.1029 -0.5132
1 3 3 4.7529 -0.1852
1 3 4 -12.1992 0.2325
1 3 6 -0.8703 0.3079
1 3 7 -0.2691 -0.1927
1 3 8 -3.1459 0.2985
1 3 9 -3.1685 -0.0821
1 3 10 -0.0343 0.1985
1 3 11 -2.6172 0.1607
1 3 12 0.8776 -0.2125
1 4 1 6.7311 -0.1122
1 4 2 -0.7136 0.2436
1 4 3 5.7908 0.3078
1 4 4 0.7676 0.3984
1 4 5 8.9085 -0.1552
1 4 6 4.7735 0.2090
1 4 7 -0.7569 0.0778
1 4 8 2.0539 0.1486
1 4 9 0.6271 0.1222
1 4 10 4.8006 0.3138
1 4 11 -0.2899 -0.0932
1 5 1 -1.0476 0.2503
1 5 2 -0.2840 -0.1337
1 5 3 0.3927 0.4001
1 5 4 -6.9173 0.1612
1 5 5 -1.9053 0.1981
1 5 6 -5.3198 0.0295
1 5 7 -2.5730 0.0845
1 5 8 0.1681 -0.1155
1 5 9 -2.4045 0.2754
1 5 10 0.0564 -0.1156
1 5 11 -4.2130 0.1533
1 6 1 -0.6493 -0.1681
1 6 3 1.9444 0.3406
1 6 4 3.3657 -0.1744
1 6 6 -0.2922 -0.2513
1 6 7 2.3460 -0.0006
1 6 8 0.3325 0.0009
1 6 9 -1.5074 0.1413
1 6 10 2.7695 0.0000
1 7 2 -1.2060 -0.1693
1 7 3 0.0500 -0.2191
1 7 4 -1.5572 0.0447
1 7 5 -5.0563 -0.3485
1 7 6 -2.9932 -0.0728
1 7 7 1.5337 -0.1208
1 7 8 -0.4210 0.0246
1 7 9 1.0264 -0.1260
1 8 1 -1.9647 -0.1494
1 8 2 -2.2950 0.0444
1 8 3 1.2945 0.0680
1 8 4 2.5275 -0.0431
1 8 5 0.7814 -0.1642
1 8 6 2.2356 0.0985
1 8 7 2.0877 -0.0897
1 8 8 -2.7472 0.1518
1 9 1 -0.9384 0.1174
1 9 2 -1.9580 -0.1684
1 9 3 -1.3311 0.1462
1 9 4 -0.4342 0.0382
1 9 5 -3.2421 0.0905
1 9 6 -1.7568 -0.1435
1 9 7 0.8446 0.2474
1 10 1 0.8497 -0.0965
1 10 2 2.5849 0.1467
1 10 3 2.0987 0.0436
1 10 4 1.1707 0.0156
1 10 5 0.1154 0.0560
2 0 2 -2.4107 2.2444
2 0 4 9.6703 1.5021
2 0 6 11.5958 0.7564
2 0 10 -0.4529 -0.6517
2 0 12 -2.3656 -0.8544
2 1 3 -3.3878 -0.3726
2 1 5 -6.4218 -0.1750
2 1 6 1.0343 0.1250
2 1 8 2.4086 0.0262
2 1 10 -0.8859 -0.2497
2 1 11 -2.0278 0.3241
2 1 12 -3.9122 -0.0412
2 2 0 -3.0860 2.4459
2 2 1 5.2051 0.4336
2 2 3 -5.8658 0.0789
2 2 4 6.5778 -0.4721
2 2 5 -0.6375 0.0187
2 2 7 2.2360 0.2166
2 2 8 3.0111 -0.0019
2 2 9 1.1769 -0.1375
2 2 11 4.3041 -0.1142
2 2 12 2.1689 0.1226
2 3 0 -6.7846 0.1372
2 3 2 -3.7515 -0.2297
2 3 3 -3.3542 0.3890
2 3 4 0.4597 -0.3136
2 3 5 -2.9638 0.3168
2 3 6 -4.1743 0.0586
2 3 7 -0.9428 -0.1890
2 3 8 0.9706 -0.0121
2 3 9 -2.4544 -0.0141
2 3 10 -5.6793 0.0029
2 3 11 -0.9882 -0.1847
2 3 12 -1.9686 0.1052
2 4 0 -2.7294 2.0463
2 4 1 4.2017 -0.2423
2 4 2 3.2913 -0.3023
2 4 3 5.3245 -0.2342
2 4 4 -0.5127 -0.0259
2 4 5 -0.3648 -0.0017
2 4 6 2.4125 0.1619
2 4 7 -1.3108 -0.0670
2 4 8 1.2656 0.0991
2 4 9 1.2653 -0.1744
2 4 10 -0.0178 -0.0079
2 4 11 4.0821 0.0774
2 5 0 -2.8945 -0.1609
2 5 3 2.3631 -0.1920
2 5 4 -3.6206 0.1598
2 5 5 -1.3442 -0.0070
2 5 6 1.1052 0.0064
2 5 7 -0.9093 -0.2138
2 5 8 -1.8727 -0.1015
2 5 9 -0.2431 0.1630
2 5 10 -4.2097 0.0400
2 5 11 -3.2376 -0.0438
2 6 0 1.2936 1.8083
2 6 1 2.3899 -0.0607
2 6 2 -1.4259 -0.3251
2 6 3 4.1573 0.1129
2 6 4 -1.3110 -0.0394
2 6 5 6.4395 0.0689
2 6 6 1.4780 0.0841
2 6 7 1.3453 -0.0041
2 6 8 1.9804 -0.0602
2 6 9 3.2965 0.0966
2 6 10 1.7932 -0.0947
2 7 0 -3.5416 0.0522
2 7 1 0.4283 -0.3932
2 7 2 1.2345 0.0334
2 7 3 0.4461 0.2449
2 7 4 1.9651 0.0700
2 7 5 1.6036 0.2783
2 7 6 -6.8312 -0.0661
2 7 7 -1.0694 -0.0993
2 7 8 -0.3814 0.0014
2 7 9 -0.9448 0.0007
2 8 0 1.0082 1.4740
2 8 1 0.8467 0.0424
2 8 2 -2.6713 -0.1976
2 8 3 -5.0062 0.1277
2 8 4 0.7509 -0.0031
2 8 5 2.8639 -0.0247
2 8 6 -2.1569 0.0684
2 8 8 -2.9274 -0.1977
2 9 0 2.4022 -0.0744
2 9 1 2.0653 -0.4243
2 9 2 1.5800 -0.0188
2 9 3 1.0153 -0.0946
2 9 4 1.2499 0.0262
2 9 5 1.8778 -0.0500
2 9 6 -9.3812 -0.0174
2 9 7 0.8313 -0.2640
2 10 0 -0.7970 1.1568
2 10 1 -1.6236 -0.1502
2 10 2 -0.6254 -0.1071
2 10 3 -0.5007 -0.0204
2 10 4 -0.9304 -0.0162
2 10 5 2.7992 -0.0517
3 0 1 -15.1679 -0.8235
3 0 3 -0.2133 -1.7541
3 0 5 1.7878 -1.7534
3 0 7 5.5228 -2.0934
3 0 9 5.8040 -1.7877
3 0 11 2.9398 -1.0050
3 1 1 1.3776 -0.2518
3 1 2 1.9692 0.3641
3 1 3 -2.4578 0.0075
3 1 4 -1.6663 0.3117
3 1 5 1.7965 -0.2460
3 1 6 1.6856 0.3402
3 1 7 -0.1685 -0.2029
3 1 8 -9.4036 0.4551
3 1 9 3.3630 -0.0090
3 1 10 -1.1625 0.3764
3 1 12 -2.9699 0.1622
3 2 1 5.1099 0.6274
3 2 2 4.4854 0.1312
3 2 3 -2.4517 -0.1074
3 2 4 -1.8636 0.0462
3 2 5 2.1629 0.7126
3 2 6 -2.5935 -0.1991
3 2 7 2.0796 0.5389
3 2 8 -0.2393 0.0533
3 2 9 1.8373 0.3578
3 2 10 -1.2330 -0.1234
3 2 11 1.9448 0.5820
3 2 12 0.5697 -0.2280
3 3 1 -0.9299 0.1800
3 3 2 5.5136 0.7261
3 3 3 2.4881 0.2069
3 3 4 -4.4438 -0.2673
3 3 5 2.9450 0.0749
3 3 6 -2.6410 -0.3287
3 3 7 0.1397 0.2563
3 3 8 0.4229 -0.1634
3 3 9 1.4512 0.1892
3 3 10 -1.8944 -0.0352
3 3 11 -3.8087 0.0567
3 3 12 0.7787 -0.1667
3 4 1 -3.6966 0.5232
3 4 3 2.7940 -0.4871
3 4 4 -0.1366 -0.0851
3 4 5 1.6923 0.0814
3 4 6 -0.8098 0.0046
3 4 7 0.6071 -0.1715
3 4 8 -3.1439 0.0753
3 4 9 3.3570 -0.3242
3 4 10 1.7889 0.0308
3 4 11 -0.5339 0.1484
3 5 1 4.3311 -0.0225
3 5 3 -2.4088 -0.1758
3 5 5 -0.9240 -0.0929
3 5 6 -2.8587 0.2471
3 5 7 3.1000 -0.1177
3 5 8 -1.1208 0.2615
3 5 9 -1.4931 -0.2195
3 5 10 -0.2987 0.1442
3 5 11 -3.8238 -0.0417
3 6 1 0.2692 0.4660
3 6 2 -2.3771 -0.1208
3 6 3 -1.5812 -0.3923
3 6 4 -1.8267 0.0611
3 6 5 -0.6438 0.1695
3 6 6 1.9005 0.0741
3 6 7 0.6755 -0.0759
3 6 8 -0.6250 -0.0968
3 6 9 0.1831 0.0385
3 6 10 2.5727 -0.0795
3 7 1 -1.8651 -0.0441
3 7 2 -0.7105 0.3682
3 7 3 1.0712 0.0088
3 7 4 -2.2734 -0.2902
3 7 5 2.9210 0.1393
3 7 6 1.3650 -0.1135
3 7 7 -4.5851 0.0508
3 7 9 2.6586 0.0288
3 8 1 1.3239 0.2839
3 8 2 1.4748 -0.0360
3 8 4 -5.9882 -0.0246
3 8 5 2.4728 0.2761
3 8 6 -0.6504 -0.0035
3 8 7 -0.0228 0.1328
3 8 8 3.3225 0.0097
3 9 1 1.9010 0.0177
3 9 2 -0.3837 0.2537
3 9 4 -1.5910 -0.0841
3 9 5 9.2720 -0.0146
3 9 6 1.8876 0.2339
3 10 1 0.4670 0.2500
3 10 2 -0.6564 -0.0562
3 10 3 3.4722 -0.1651
3 10 4 -3.6185 0.0678
4 0 2 -14.9035 -2.1722
4 0 4 -4.4056 -1.5080
4 0 6 -1.8310 -0.7071
4 0 10 4.1720 0.7115
4 0 12 -1.9431 0.9045
4 1 1 11.5295 0.9539
4 1 3 5.5517 0.4733
4 1 4 -4.0938 0.0483
4 1 5 2.9507 0.1234
4 1 6 -0.8352 0.0132
4 1 8 1.7909 -0.1006
4 1 10 1.1354 0.1856
4 1 11 1.6993 -0.2769
4 1 12 1.8927 -0.1617
4 2 0 -13.5709 -2.3705
4 2 1 -4.4417 -0.0272
4 2 2 -3.0996 0.5602
4 2 3 1.7729 0.0107
4 2 4 -7.6824 0.5296
4 2 5 5.6183 0.0435
4 2 7 0.3128 -0.1087
4 2 8 0.7071 -0.0378
4 2 9 -2.7950 0.0634
4 2 10 0.2605 -0.1242
4 2 11 -1.1936 0.0081
4 2 12 -0.2969 0.0233
4 3 0 7.4207 -0.0340
4 3 1 3.1597 0.0667
4 3 2 -1.0299 0.0321
4 3 3 8.8818 -0.3421
4 3 4 -3.7063 0.1072
4 3 5 2.3838 -0.4298
4 3 6 -4.5018 -0.0057
4 3 7 -3.0767 0.1826
4 3 8 0.7314 -0.0477
4 3 9 0.1387 -0.0133
4 3 10 1.3972 0.0165
4 3 11 -1.7445 0.1799
4 4 0 -4.2626 -2.1525
4 4 2 -8.5408 0.2651
4 4 3 0.3502 0.0688
4 4 4 -0.3529 -0.0464
4 4 5 4.1278 0.0102
4 4 6 -0.2423 -0.3033
4 4 7 3.1873 0.0118
4 4 8 -1.6616 -0.0576
4 4 9 -1.4689 0.0173
4 4 10 2.7023 0.0966
4 4 11 3.8870 -0.0147
4 5 0 4.0894 0.0175
4 5 1 4.1044 0.7419
4 5 3 2.7508 0.2971
4 5 4 -2.4048 -0.0813
4 5 5 3.5157 -0.0143
4 5 6 -2.8411 -0.0732
4 5 7 1.7834 0.2754
4 5 8 1.5388 0.0476
4 5 9 0.8684 -0.2497
4 5 10 -1.2603 -0.0472
4 6 0 -5.1001 -1.9258
4 6 1 -0.9442 0.0428
4 6 2 -0.8168 0.2835
4 6 3 1.3789 -0.1107
4 6 4 -0.5875 0.1023
4 6 5 0.2575 -0.0507
4 6 6 -1.9328 -0.0335
4 6 7 1.7884 0.0821
4 6 8 0.2951 0.0836
4 6 9 1.3401 -0.1693
4 6 10 -1.3793 0.3416
4 7 0 -2.9945 -0.0259
4 7 1 3.5222 0.2561
4 7 2 -4.6144 -0.0426
4 7 3 0.1818 -0.1708
4 7 4 -0.8885 0.0194
4 7 6 0.2575 0.0960
4 7 7 2.0732 0.1390
4 7 8 -10.2824 -0.0299
4 8 0 -1.2212 -1.4446
4 8 1 4.2299 0.0302
4 8 2 1.9362 0.3839
4 8 3 4.1253 0.0168
4 8 4 -1.6620 0.0034
4 8 5 -3.1959 0.0200
4 8 6 -2.8782 -0.0765
4 8 7 3.0101 0.0122
4 9 0 -3.6844 0.0161
4 9 1 -0.5248 0.4073
4 9 2 0.5573 0.0746
4 9 3 -0.3621 0.0956
4 9 4 -2.0723 -0.0532
4 9 5 -1.2413 0.0621
4 9 6 6.0768 -0.0288
4 10 0 -0.4377 -1.2027
4 10 1 -0.8541 0.1130
4 10 2 -2.1381 0.1708
4 10 3 -0.9026 -0.0235
4 10 4 0.5937 -0.1205
5 0 3 -4.0715 1.5702
5 0 5 0.3462 1.5439
5 0 7 -6.6061 1.8692
5 0 9 8.9441 1.6053
5 0 11 4.7198 0.8443
5 1 2 5.0155 -0.5978
5 1 3 3.0151 -0.0600
5 1 4 -1.9013 -0.3875
5 1 5 -1.6838 -0.0451
5 1 6 -0.1960 -0.5781
5 1 8 0.1408 -0.5673
5 1 9 2.9866 -0.1346
5 1 10 -5.6810 -0.3220
5 1 11 1.0563 0.1158
5 2 1 -5.0852 -0.7270
5 2 2 -0.6233 -0.0307
5 2 3 4.1432 0.0186
5 2 4 -3.7857 -0.0099
5 2 5 0.0722 -0.5091
5 2 6 2.5783 0.0700
5 2 7 2.1419 -0.4475
5 2 8 2.9993 -0.0133
5 2 9 0.4816 -0.3446
5 2 10 -0.5739 0.0215
5 2 11 0.8754 -0.6875
5 3 1 4.0857 0.0160
5 3 2 -1.4843 -0.6068
5 3 3 1.2214 0.0310
5 3 4 0.5034 0.5297
5 3 5 -0.5218 0.0610
5 3 6 2.9120 0.2818
5 3 7 -3.6797 0.0800
5 3 8 -1.6348 0.2199
5 3 9 0.0127 0.0113
5 3 10 0.5028 0.1201
5 3 11 1.8825 0.0403
5 4 1 1.1122 -0.3598
5 4 2 -1.4568 -0.0141
5 4 3 -4.8429 0.5119
5 4 5 0.2699 -0.0539
5 4 6 4.4740 -0.0063
5 4 7 -0.3641 0.1858
5 4 8 1.3814 -0.0364
5 4 9 -1.8343 0.3800
5 4 10 -1.6411 -0.0410
5 4 11 2.4071 0.2439
5 5 1 -1.8899 -0.0496
5 5 2 0.3921 -0.3528
5 5 3 -0.0730 0.0164
5 5 4 -0.6481 0.1856
5 5 5 -5.1741 -0.0249
5 5 6 -0.1940 -0.1617
5 5 7 -3.8224 0.0174
5 5 8 0.6500 -0.2658
5 5 9 0.5439 0.0349
5 5 10 -0.3606 -0.3176
5 6 2 -0.5155 0.0384
5 6 3 -0.1936 0.2887
5 6 4 4.4519 -0.0338
5 6 5 -0.2898 -0.2276
5 6 6 3.0744 -0.0511
5 6 7 -2.2211 -0.1802
5 6 8 -0.7432 0.0613
5 6 9 2.5407 -0.0584
5 7 1 -1.1983 0.1335
5 7 2 0.9514 -0.4928
5 7 3 -4.2715 -0.0164
5 7 4 1.7615 0.1981
5 7 5 -0.2158 -0.1010
5 7 6 0.3858 -0.0319
5 7 7 5.3453 -0.0284
5 7 8 1.7819 0.0846
5 8 1 -0.3682 -0.3255
5 8 4 2.6668 -0.0032
5 8 5 3.0615 -0.1281
5 8 6 -3.9803 0.0202
5 9 1 -1.9638 -0.1634
5 9 2 -2.6779 -0.1371
5 9 3 2.5421 0.0495
5 9 4 -2.8465 0.1647
5 9 5 -2.2358 0.0051
5 10 1 2.3605 -0.1829
5 10 2 0.4759 0.0294
6 0 2 -1.8000 2.0064
6 0 4 -2.5102 1.3491
6 0 6 -5.3555 0.6720
6 0 8 -14.3630 -0.0389
6 0 10 -5.6288 -0.6159
6 1 0 -1.9022 0.0256
6 1 1 1.4905 -0.7928
6 1 2 -2.6285 0.0509
6 1 3 5.7536 -0.4086
6 1 4 0.6122 0.0022
6 1 5 3.2790 -0.0925
6 1 6 -1.0378 -0.0356
6 1 8 -6.4310 -0.0203
6 1 10 1.1034 -0.0221
6 1 11 2.4314 0.2937
6 2 0 -0.2501 2.4278
6 2 1 -1.0810 0.0479
6 2 3 3.8196 0.0384
6 2 4 -2.1026 -0.4859
6 2 5 -1.2490 -0.0356
6 2 6 -4.8727 -0.0032
6 2 7 -0.9159 -0.0015
6 2 8 -2.6425 -0.1087
6 2 9 -1.0615 0.0031
6 2 10 -1.2130 -0.0729
6 2 11 -0.1286 -0.0578
6 3 0 0.7764 -0.0203
6 3 1 3.6794 -0.1797
6 3 2 2.5169 -0.0719
6 3 3 2.9483 0.1254
6 3 4 0.5198 -0.0605
6 3 5 -0.4146 0.3937
6 3 6 1.9299 0.0473
6 3 7 1.8150 -0.2639
6 3 8 1.6710 0.0132
6 3 9 -0.0096 -0.0370
6 3 10 1.1447 -0.0473
6 3 11 2.9345 -0.2720
6 4 0 -1.6850 1.9179
6 4 1 -3.9525 -0.0729
6 4 2 0.4746 -0.3824
6 4 3 0.1881 -0.0987
6 4 4 -2.9936 -0.0334
6 4 5 -2.0307 -0.0024
6 4 6 -0.4297 0.2532
6 4 7 2.0944 -0.0337
6 4 8 -0.4491 0.0870
6 4 9 -0.2879 0.1059
6 4 10 -1.1837 -0.0502
6 5 0 2.7507 0.0057
6 5 1 -0.2091 -0.6783
6 5 2 -0.2186 0.0380
6 5 3 2.2581 -0.1432
6 5 4 0.7324 0.0612
6 5 5 1.0851 0.0910
6 5 6 -0.2695 -0.0174
6 5 7 0.3892 -0.2176
6 5 8 0.0508 0.1195
6 5 9 0.3150 0.1092
6 5 10 0.0506 0.0557
6 6 0 0.6735 1.8783
6 6 1 0.5913 0.0478
6 6 2 -0.0819 -0.2191
6 6 3 -1.4158 0.1093
6 6 4 0.0249 -0.1075
6 6 5 -0.7023 0.0746
6 6 6 0.0033 0.1192
6 6 7 -0.6786 0.1007
6 6 9 0.1101 0.0522
6 7 0 4.4783 0.0006
6 7 1 0.5675 -0.2425
6 7 2 2.0491 0.0504
6 7 3 -1.6861 0.1421
6 7 4 -2.2987 0.0542
6 7 5 0.8521 0.3017
6 7 6 0.9045 0.0038
6 7 7 1.4193 -0.2347
6 7 8 2.1537 -0.0423
6 8 0 0.0253 1.3499
6 8 1 -2.4545 0.0700
6 8 2 -2.9028 -0.1914
6 8 3 -0.5835 0.0072
6 8 4 -1.2983 -0.1360
6 8 5 1.4717 -0.0483
6 8 6 2.2467 -0.1257
6 9 0 1.5903 0.0417
6 9 1 1.1636 -0.4882
6 9 2 -2.3227 -0.1155
6 9 3 0.7607 -0.2658
6 9 4 0.3075 -0.1058
6 9 5 0.3432 0.0052
7 0 1 2.7268 -0.8408
7 0 3 2.4387 -1.5103
7 0 5 1.5424 -1.4913
7 0 7 0.6723 -1.8085
7 0 9 -0.7660 -1.5433
7 0 11 2.8893 -0.9989
7 1 1 0.0182 -0.0094
7 1 2 -5.6856 0.4739
7 1 3 -3.0878 0.0023
7 1 4 -1.7811 0.3493
7 1 5 4.4767 0.0409
7 1 6 -2.8764 0.4232
7 1 7 2.0351 0.0231
7 1 8 3.3672 0.4874
7 1 9 -2.3330 -0.0272
7 1 10 1.7408 0.3032
7 1 11 -2.2883 0.1086
7 2 1 5.3714 0.6770
7 2 2 -1.3901 -0.0178
7 2 3 2.2188 0.0177
7 2 4 1.2176 0.0463
7 2 5 2.6056 0.4954
7 2 6 -0.2679 -0.0001
7 2 7 -0.6232 0.5857
7 2 8 3.1324 0.0307
7 2 9 -2.0151 0.2778
7 2 10 -0.7973 0.0794
7 3 1 -0.7334 0.0450
7 3 2 -1.4824 0.7337
7 3 3 0.6400 0.0460
7 3 4 -0.6029 -0.3665
7 3 5 -2.4378 -0.0705
7 3 6 -1.3412 -0.1823
7 3 7 -1.7497 -0.0068
7 3 8 -2.0049 -0.0750
7 3 9 0.0127 -0.0443
7 3 10 -2.7664 0.0679
7 4 1 -0.0875 0.4798
7 4 2 -2.3697 0.0143
7 4 3 1.2311 -0.5422
7 4 4 3.8245 -0.0524
7 4 5 1.6534 -0.0401
7 4 6 -1.9647 -0.0337
7 4 7 1.2714 -0.1205
7 4 8 0.2351 -0.0631
7 4 9 0.0963 -0.3950
7 4 10 1.5922 0.1051
7 5 1 0.6972 -0.0676
7 5 2 -0.4045 0.1757
7 5 3 -2.3522 -0.0448
7 5 4 0.6815 -0.2802
7 5 5 -0.6801 0.0009
7 5 6 -1.3176 0.0895
7 5 7 0.3741 -0.0556
7 5 8 0.7584 0.0831
7 5 9 0.4297 0.1995
7 6 1 -3.3289 0.3540
7 6 2 1.3605 -0.0880
7 6 3 -1.4222 -0.2928
7 6 4 2.5073 0.0002
7 6 5 1.6499 0.2327
7 6 6 0.3500 -0.0206
7 6 7 2.6602 0.0991
7 6 8 -0.7288 0.1521
7 7 1 1.0494 -0.0501
7 7 2 3.1133 0.5492
7 7 3 1.7453 -0.0534
7 7 4 -3.4446 -0.1070
7 7 5 -2.4783 0.0831
7 7 6 -2.9641 -0.0592
7 7 7 -0.2827 0.1168
7 8 1 1.7537 0.2644
7 8 2 -0.1247 0.0910
7 8 3 0.8479 -0.2907
7 8 4 -1.7667 0.1197
7 8 5 0.4726 0.1392
7 8 6 3.9322 0.1323
7 9 1 1.2435 0.1999
7 9 2 -0.0830 0.0428
7 9 3 1.0288 0.1296
8 0 0 -11.1544 -2.1134
8 0 2 -7.3267 -1.9280
8 0 4 -0.0244 -1.3207
8 0 6 5.7318 -0.6026
8 0 8 11.1754 -0.0013
8 0 10 4.6635 0.5590
8 1 0 10.2851 0.0326
8 1 3 3.2233 0.3455
8 1 4 -4.4568 0.0409
8 1 5 -1.5075 0.0548
8 1 6 2.2672 0.0522
8 1 8 -1.7545 0.0192
8 1 10 2.0295 -0.0856
8 2 0 -8.5641 -2.2254
8 2 1 -8.7022 0.0496
8 2 2 -3.2130 0.3693
8 2 3 -3.1395 -0.0107
8 2 4 -2.0024 0.4540
8 2 5 0.2379 0.0120
8 2 6 4.9844 0.0584
8 2 7 -3.9850 0.0226
8 2 8 4.4640 0.0821
8 2 9 3.7068 0.0118
8 2 10 -3.2656 -0.1179
8 3 0 5.9118 -0.0614
8 3 1 2.3999 0.0802
8 3 2 0.6089 -0.1169
8 3 3 1.7240 -0.1169
8 3 4 1.3509 -0.0276
8 3 5 -1.8903 -0.3628
8 3 6 -0.9663 -0.0221
8 3 7 -0.4163 0.1959
8 3 8 0.6469 -0.0325
8 3 9 2.4817 0.2271
8 4 0 -3.8222 -1.8897
8 4 1 0.6428 -0.0365
8 4 2 -2.4899 0.3511
8 4 3 -1.5516 -0.0140
8 4 4 0.6959 0.0488
8 4 5 4.2942 0.0276
8 4 6 3.7733 -0.2240
8 4 7 -2.0605 -0.0966
8 4 8 1.4951 0.0648
8 4 9 -5.6919 -0.0626
8 5 0 0.2771 0.0744
8 5 1 4.3123 0.7305
8 5 2 2.4864 0.0749
8 5 3 0.7271 0.2668
8 5 4 -1.8839 0.0570
8 5 5 -1.1218 -0.0893
8 5 6 2.3311 -0.0675
8 5 8 5.3303 -0.1292
8 6 0 1.4723 -1.6026
8 6 1 -2.9650 0.0153
8 6 2 -4.2797 0.1873
8 6 3 -2.2149 -0.0925
8 6 4 -2.2301 0.0617
8 6 5 1.6212 -0.1139
8 6 6 0.3052 -0.0555
8 6 7 -2.6039 -0.0575
8 7 0 2.6312 -0.0525
8 7 1 0.6966 0.1675
8 7 2 0.5502 -0.1108
8 7 3 4.2410 -0.1681
8 7 4 0.5935 -0.1490
8 7 5 0.2614 -0.1610
8 7 6 -0.8725 0.0854
8 8 0 -1.8430 -1.3897
8 8 1 -2.6236 0.1109
8 8 2 -0.1968 0.2886
8 8 3 1.2382 0.1243
8 8 4 -0.8694 0.1374
9 0 1 -1.7800 0.7850
9 0 3 -5.1391 1.4091
9 0 5 -0.0624 1.3836
9 0 7 -3.2060 1.6587
9 0 9 4.3523 1.3974
9 1 1 0.0939 -0.0599
9 1 2 3.1798 -0.4379
9 1 3 3.1414 -0.0057
9 1 4 2.5777 -0.3721
9 1 5 -5.4532 -0.0067
9 1 6 2.0754 -0.5630
9 1 7 -1.5645 0.0261
9 1 8 0.1904 -0.4062
9 1 9 -8.1855 0.0278
9 2 1 -2.0305 -0.6489
9 2 2 -0.0171 0.0677
9 2 3 -0.4761 -0.0181
9 2 4 1.3706 0.0707
9 2 5 -4.4654 -0.4426
9 2 6 5.0725 -0.0029
9 2 7 1.6482 -0.4386
9 2 8 -1.1988 0.0324
9 2 9 1.5164 -0.3872
9 3 1 2.6218 0.0781
9 3 2 -0.1170 -0.6466
9 3 3 -0.0084 0.0225
9 3 4 4.2945 0.4703
9 3 6 1.1711 0.2091
9 3 7 -0.3236 0.0687
9 3 8 -0.5384 0.1834
9 3 9 -2.5189 -0.0564
9 4 1 0.2727 -0.4012
9 4 2 -0.2591 -0.0474
9 4 3 -3.5751 0.3979
9 4 4 -7.2887 -0.0900
9 4 5 -4.2141 -0.0643
9 4 6 -2.2414 0.1148
9 4 7 -3.4671 0.1320
9 4 8 2.5640 -0.1332
9 5 1 -2.1103 0.0155
9 5 2 0.6251 -0.3170
9 5 4 1.9834 0.1930
9 5 5 0.0272 0.0703
9 5 6 4.1762 -0.0899
9 5 7 0.0753 -0.1979
9 6 1 3.8590 -0.3278
9 6 2 0.4514 0.1153
9 6 3 1.3094 0.3421
9 6 4 -1.4782 0.0221
9 6 5 -0.0419 -0.0146
9 6 6 4.5293 -0.1474
9 7 1 1.0183 -0.0790
9 7 2 -2.5779 -0.3334
9 7 3 -0.9280 -0.0463
9 7 4 -1.9231 0.1293
9 7 5 -3.8729 -0.0343
9 8 1 0.4994 -0.1369
9 8 2 -1.6812 -0.0153
10 0 0 6.5283 1.9987
10 0 2 5.3200 1.7746
10 0 4 -1.2212 1.2107
10 0 6 1.0765 0.5372
10 0 8 -5.9210 -0.0659
10 1 0 -2.0931 -0.0284
10 1 2 -3.2106 0.0022
10 1 3 -1.6576 -0.3761
10 1 4 -0.8070 -0.0468
10 1 5 0.9291 -0.0620
10 1 6 -2.2398 -0.0326
10 1 7 -1.5258 -0.0231
10 1 8 -0.2334 -0.0110
10 2 0 6.1095 2.0147
10 2 1 -0.5832 -0.0009
10 2 2 0.9004 -0.3531
10 2 3 1.7221 -0.0426
10 2 4 0.8958 -0.4343
10 2 5 2.3763 0.0196
10 2 6 -3.1734 -0.0378
10 2 7 5.8480 -0.0856
10 2 8 3.0641 -0.2646
10 3 0 1.3957 -0.0065
10 3 1 -1.2886 -0.0672
10 3 2 2.5185 -0.0105
10 3 3 -1.5176 0.0847
10 3 4 -2.6943 0.0859
10 3 5 2.9553 0.2202
10 3 6 -0.6453 -0.0681
10 3 7 2.1642 -0.4148
10 3 8 0.2164 0.1132
10 4 0 -1.1381 1.6610
10 4 1 -3.9645 0.0681
10 4 2 2.9120 -0.4185
10 4 3 1.9564 0.1198
10 4 4 -1.2415 -0.1273
10 4 5 -1.7526 0.0351
10 4 6 0.1612 0.2077
10 4 7 -2.5675 0.1699
10 5 0 5.7258 0.0609
10 5 1 -1.3576 -0.5390
10 5 2 0.5240 0.0385
10 5 3 -0.1238 -0.0918
10 5 4 1.3884 0.0396
10 5 5 0.3580 0.1294
10 5 6 -0.0271 0.0808
10 6 0 -0.8945 1.6615
10 6 1 -1.1857 -0.0578
10 6 2 0.6559 -0.0520
10 6 3 0.5004 -0.0791
10 6 4 -1.9309 -0.0538
10 6 5 -3.1478 -0.0456
10 7 0 -0.1840 -0.1371
10 7 1 -0.3597 -0.2511
10 7 2 -0.6649 -0.0901
10 7 3 1.9157 -0.1468
11 0 1 0.2013 -0.6946
11 0 3 1.7474 -1.3225
11 0 5 2.1583 -1.2700
11 1 1 -0.1218 -0.0070
11 1 2 -1.2228 0.3865
11 1 3 0.2360 0.0654
11 1 4 -1.8206 0.2950
11 1 5 1.8366 0.0514
11 1 6 2.2608 0.3959
11 2 2 -1.7297 0.0084
11 2 3 1.0382 0.1105
11 2 4 -2.5767 0.0041
11 2 5 0.8781 0.4444
11 2 6 -2.1977 -0.0084
11 2 7 -3.4437 0.3872
11 3 1 0.2242 -0.0118
11 3 3 1.3300 -0.1065
11 3 4 -1.9598 -0.3304
11 3 5 -1.2354 -0.0851
11 3 6 -0.5863 -0.3146
11 3 7 -3.8985 -0.1236
11 4 1 -4.1359 0.3801
11 4 2 -0.4841 -0.0679
11 4 3 -0.6580 -0.3955
11 4 4 3.7832 0.0182
11 4 5 -1.1036 -0.0396
11 4 6 3.5383 0.1269
11 5 1 -0.1899 -0.0035
11 5 2 1.5156 0.1859
11 5 3 0.0554 0.1021
11 5 4 1.5949 -0.1925
11 5 5 -0.5556 0.1834
11 6 1 -1.0510 0.2640
11 6 2 -1.7655 0.0736
11 6 3 0.6896 -0.2755
12 0 0 1.0843 -1.7647
12 0 2 2.9686 -1.5929
12 0 4 0.1582 -1.1369
12 0 6 2.4520 -0.4462
12 1 0 2.0773 0.0996
12 1 1 -1.9512 0.6283
12 1 2 0.6985 0.1238
12 1 3 -3.1135 0.2409
12 1 4 -1.2337 0.0456
12 1 5 -1.7505 0.0803
12 1 6 1.1288 -0.0091
12 2 0 -1.7041 -1.8152
12 2 1 -0.3391 0.0158
12 2 2 2.8560 0.3625
12 2 3 -0.0466 -0.0048
12 2 4 3.8041 0.4168
12 2 5 -4.1742 0.0888
12 2 6 0.3292 0.0705
12 3 0 0.3501 -0.0755
12 3 1 0.7266 0.0223
12 3 2 1.2172 -0.1128
12 3 3 -1.7855 -0.1597
12 3 4 4.1806 -0.0585
12 3 5 -2.5216 0.1194
12 4 0 1.9082 -1.5800
12 4 1 -3.1094 0.0855
12 4 2 0.4723 0.2651
12 4 3 -2.2601 -0.0152
12 4 4 1.3212 0.2068
12 5 0 5.6510 0.1169
12 5 1 -1.5502 0.7183
12 5 2 -1.0840 0.1006
12 5 3 -1.0934 0.2604
13 0 1 -1.9753 0.6792
13 0 3 -2.0301 1.1238
13 1 1 -1.1869 -0.0404
13 1 2 1.4394 -0.3874
13 1 3 0.2712 0.1410
13 1 4 0.4629 -0.4105
13 2 1 -1.1580 -0.4909
13 2 2 3.1253 0.2165
13 2 3 -0.3291 0.1172
13 2 4 4.4679 0.0503
13 3 1 -3.3029 0.0787
13 3 2 2.0417 -0.4194
13 3 3 -6.8108 -0.0640
13 4 1 -1.4622 -0.3952
14 0 0 0.2951 1.4861
0 0 0 0.0 0.0
;
_shelx_fab_checksum              31153
_olex2_date_sample_data_collection 2019-12-19
_olex2_submission_special_instructions 'No special instructions were received'
_oxdiff_exptl_absorpt_empirical_details
;
Empirical correction (ABSPACK) includes:
- Absorption correction using spherical harmonics
- Frame scaling
;
_oxdiff_exptl_absorpt_empirical_full_max 1.481
_oxdiff_exptl_absorpt_empirical_full_min 0.791
loop_
_space_group_symop_operation_xyz
'x, y, z'
'-x+1/2, -y, z'
'-x+1/2, y+1/2, -z+1/2'
'x, -y+1/2, -z+1/2'
'-x, -y, -z'
'x-1/2, y, -z'
'x-1/2, -y-1/2, z-1/2'
'-x, y-1/2, z-1/2'
loop_
_atom_site_label
_atom_site_type_symbol
_atom_site_fract_x
_atom_site_fract_y
_atom_site_fract_z
_atom_site_U_iso_or_equiv
_atom_site_adp_type
_atom_site_occupancy
_atom_site_site_symmetry_order
_atom_site_calc_flag
_atom_site_refinement_flags_posn
_atom_site_refinement_flags_adp
_atom_site_refinement_flags_occupancy
_atom_site_disorder_assembly
_atom_site_disorder_group
Cu01 Cu 0.750000 0.500000 0.53271(17) 0.0227(6) Uani 1 2 d S T P . .
N002 N 0.3125(6) 0.6657(7) 0.3356(7) 0.0228(16) Uani 1 1 d . . . . .
N003 N 0.6154(7) 0.5818(9) 0.4234(8) 0.0344(19) Uani 1 1 d . . . . .
C004 C 0.2460(9) 0.750000 0.250000 0.017(2) Uani 1 2 d S TU P . .
C005 C 0.4318(7) 0.6975(9) 0.3010(9) 0.028(2) Uani 1 1 d . . . . .
C006 C 0.5333(8) 0.6324(10) 0.3705(10) 0.029(2) Uani 1 1 d . . . . .
C007 C 0.1126(9) 0.750000 0.250000 0.032(3) Uani 1 2 d S TU P . .
H00A H 0.083402 0.651347 0.281066 0.047 Uiso 0.5 1 calc R U P A -1
H00B H 0.083402 0.768050 0.160975 0.047 Uiso 0.5 1 calc R U P A -1
H00C H 0.083402 0.830603 0.307959 0.047 Uiso 0.5 1 calc R U P A -1
loop_
_atom_site_aniso_label
_atom_site_aniso_U_11
_atom_site_aniso_U_22
_atom_site_aniso_U_33
_atom_site_aniso_U_23
_atom_site_aniso_U_13
_atom_site_aniso_U_12
Cu01 0.0141(8) 0.0290(9) 0.0250(10) 0.000 0.000 0.0008(5)
N002 0.017(3) 0.031(4) 0.021(3) 0.003(3) -0.004(3) 0.003(3)
N003 0.031(4) 0.032(4) 0.040(4) 0.000(4) 0.009(4) 0.007(3)
C004 0.004(4) 0.017(4) 0.031(6) 0.003(5) 0.000 0.000
C005 0.014(4) 0.039(5) 0.031(5) -0.001(4) -0.004(4) -0.004(3)
C006 0.015(4) 0.032(5) 0.040(5) 0.005(4) 0.011(4) -0.005(3)
C007 0.006(5) 0.053(7) 0.036(7) 0.017(6) 0.000 0.000
loop_
_atom_type_symbol
_atom_type_description
_atom_type_scat_dispersion_real
_atom_type_scat_dispersion_imag
_atom_type_scat_source
C C 0.0033 0.0016 'International Tables Vol C Tables 4.2.6.8 and 6.1.1.4'
H H 0.0000 0.0000 'International Tables Vol C Tables 4.2.6.8 and 6.1.1.4'
Cu Cu 0.3201 1.2651 'International Tables Vol C Tables 4.2.6.8 and 6.1.1.4'
N N 0.0061 0.0033 'International Tables Vol C Tables 4.2.6.8 and 6.1.1.4'
loop_
_geom_angle_atom_site_label_1
_geom_angle_atom_site_label_2
_geom_angle_atom_site_label_3
_geom_angle
_geom_angle_site_symmetry_1
_geom_angle_site_symmetry_3
_geom_angle_publ_flag
N002 Cu01 N002 100.4(4) 6_656 5_666 ?
N003 Cu01 N002 110.9(3) . 6_656 ?
N003 Cu01 N002 110.9(3) 2_665 5_666 ?
N003 Cu01 N002 110.9(3) 2_665 6_656 ?
N003 Cu01 N002 110.9(3) . 5_666 ?
N003 Cu01 N003 112.3(5) . 2_665 ?
C004 N002 Cu01 127.3(5) . 5_666 ?
C004 N002 C005 104.2(7) . . ?
C005 N002 Cu01 127.8(5) . 5_666 ?
C006 N003 Cu01 174.1(8) . . ?
N002 C004 N002 114.2(9) . 4_565 ?
N002 C004 C007 122.9(4) 4_565 . ?
N002 C004 C007 122.9(4) . . ?
N002 C005 C006 122.5(7) . . ?
C005 C005 N002 108.7(4) 4_565 . ?
C005 C005 C006 128.8(5) 4_565 . ?
N003 C006 C005 178.5(10) . . ?
C004 C007 H00A 109.5 . . ?
C004 C007 H00B 109.5 . . ?
C004 C007 H00C 109.5 . . ?
H00A C007 H00B 109.5 . . ?
H00A C007 H00C 109.5 . . ?
H00B C007 H00C 109.5 . . ?
loop_
_geom_bond_atom_site_label_1
_geom_bond_atom_site_label_2
_geom_bond_distance
_geom_bond_site_symmetry_2
_geom_bond_publ_flag
Cu01 N002 2.060(6) 5_666 ?
Cu01 N002 2.060(6) 6_656 ?
Cu01 N003 1.966(8) 2_665 ?
Cu01 N003 1.966(8) . ?
N002 C004 1.339(8) . ?
N002 C005 1.379(10) . ?
N003 C006 1.130(11) . ?
C004 C007 1.459(13) . ?
C005 C005 1.364(17) 4_565 ?
C005 C006 1.426(13) . ?
C007 H00A 0.9600 . ?
C007 H00B 0.9600 . ?
C007 H00C 0.9600 . ?
loop_
_geom_torsion_atom_site_label_1
_geom_torsion_atom_site_label_2
_geom_torsion_atom_site_label_3
_geom_torsion_atom_site_label_4
_geom_torsion
_geom_torsion_site_symmetry_1
_geom_torsion_site_symmetry_2
_geom_torsion_site_symmetry_3
_geom_torsion_site_symmetry_4
_geom_torsion_publ_flag
Cu01 N002 C004 N002 -171.7(6) 5_666 . . 4_565 ?
Cu01 N002 C004 C007 8.3(6) 5_666 . . . ?
Cu01 N002 C005 C005 172.7(7) 5_666 . . 4_565 ?
Cu01 N002 C005 C006 -10.3(11) 5_666 . . . ?
C004 N002 C005 C005 1.7(10) . . . 4_565 ?
C004 N002 C005 C006 178.7(7) . . . . ?
C005 N002 C004 N002 -0.6(4) . . . 4_565 ?
C005 N002 C004 C007 179.4(4) . . . . ?
loop_
_smtbx_masks_void_nr
_smtbx_masks_void_average_x
_smtbx_masks_void_average_y
_smtbx_masks_void_average_z
_smtbx_masks_void_volume
_smtbx_masks_void_count_electrons
_smtbx_masks_void_content
1 -0.410 -0.729 -0.496 382.6 92.9 ?
