#------------------------------------------------------------------------------
#$Date: 2020-08-22 01:49:22 +0300 (Sat, 22 Aug 2020) $
#$Revision: 255522 $
#$URL: file:///home/coder/svn-repositories/cod/cif/4/13/51/4135169.cif $
#------------------------------------------------------------------------------
#
# This file is available in the Crystallography Open Database (COD),
# http://www.crystallography.net/
#
# All data on this site have been placed in the public domain by the
# contributors.
#
data_4135169
loop_
_publ_author_name
'Yan, Yong'
'Carrington, Elliot J.'
'P\'etuya, R\'emi'
'Whitehead, George F. S.'
'Verma, Ajay'
'Hylton, Rebecca K.'
'Tang, Chiu C.'
'Berry, Neil G.'
'Darling, George R.'
'Dyer, Matthew S.'
'Antypov, Dmytro'
'Katsoulidis, Alexandros P.'
'Rosseinsky, Matthew J.'
_publ_section_title
;
 Amino Acid Residues Determine the Response of Flexible Metal-Organic
 Frameworks to Guests.
;
_journal_name_full               'Journal of the American Chemical Society'
_journal_paper_doi               10.1021/jacs.0c03853
_journal_year                    2020
_chemical_formula_moiety         'C6 H5 N3 O3 Zn, 1.48(C2 H3 N)'
_chemical_formula_sum            'C8.96 H9.44 N4.48 O3 Zn'
_chemical_formula_weight         293.31
_space_group_crystal_system      trigonal
_space_group_IT_number           161
_space_group_name_Hall           'R 3 -2"c'
_space_group_name_H-M_alt        'R 3 c :H'
_atom_sites_solution_hydrogens   geom
_atom_sites_solution_primary     direct
_audit_creation_date             2017-08-23
_audit_creation_method
;
Olex2 1.2
(compiled 2017.08.10 svn.r3458 for OlexSys, GUI svn.r5381)
;
_cell_angle_alpha                90
_cell_angle_beta                 90
_cell_angle_gamma                120
_cell_formula_units_Z            18
_cell_length_a                   26.3829(10)
_cell_length_b                   26.3829(10)
_cell_length_c                   10.1215(4)
_cell_measurement_reflns_used    8713
_cell_measurement_temperature    100
_cell_measurement_theta_max      25.0090
_cell_measurement_theta_min      2.6530
_cell_volume                     6101.3(4)
_computing_cell_refinement       'CrysAlisPro 1.171.38.46 (Rigaku OD, 2015)'
_computing_data_collection       'CrysAlisPro 1.171.38.46 (Rigaku OD, 2015)'
_computing_data_reduction        'CrysAlisPro 1.171.38.46 (Rigaku OD, 2015)'
_computing_molecular_graphics    'Olex2 (Dolomanov et al., 2009)'
_computing_publication_material  'Olex2 (Dolomanov et al., 2009)'
_computing_structure_refinement  'ShelXL (Sheldrick, 2015)'
_computing_structure_solution    'ShelXS (Sheldrick, 2008)'
_diffrn_ambient_temperature      100
_diffrn_detector                 'CCD plate'
_diffrn_measured_fraction_theta_full 0.999
_diffrn_measured_fraction_theta_max 0.999
_diffrn_measurement_details
;
List of Runs (angles in degrees, time in seconds):

  # Type    Start    End  Width  t~exp~   \w     \q     \k     \f   Frames
--------------------------------------------------------------------------
  1  \w   -110.00  15.00   1.00   10.00    --  -20.00 -68.00   0.00  125
  2  \w   -110.00  15.00   1.00   10.00    --  -20.00 -68.00 120.00  125
  3  \w   -110.00  15.00   1.00   10.00    --  -20.00 -68.00 240.00  125
  4  \w   -110.00  15.00   1.00   10.00    --  -20.00 -30.00  90.00  125
;
_diffrn_measurement_device       'abstract diffractometer'
_diffrn_measurement_device_type
'dtrek-CrysAlisPro-abstract goniometer imported rigaku-d*trek images'
_diffrn_measurement_method       '\w scans'
_diffrn_orient_matrix_type
'CrysAlisPro convention (1999,Acta A55,543-557)'
_diffrn_orient_matrix_UB_11      -0.0154451000
_diffrn_orient_matrix_UB_12      -0.0290155000
_diffrn_orient_matrix_UB_13      0.0247534000
_diffrn_orient_matrix_UB_21      0.0176955000
_diffrn_orient_matrix_UB_22      0.0090551000
_diffrn_orient_matrix_UB_23      0.0575705000
_diffrn_orient_matrix_UB_31      -0.0202864000
_diffrn_orient_matrix_UB_32      0.0062842000
_diffrn_orient_matrix_UB_33      0.0313543000
_diffrn_radiation_monochromator  graphite
_diffrn_radiation_probe          x-ray
_diffrn_radiation_type           MoK\a
_diffrn_radiation_wavelength     0.71073
_diffrn_reflns_av_R_equivalents  0.0777
_diffrn_reflns_av_unetI/netI     0.0455
_diffrn_reflns_Laue_measured_fraction_full 0.999
_diffrn_reflns_Laue_measured_fraction_max 0.999
_diffrn_reflns_limit_h_max       31
_diffrn_reflns_limit_h_min       -28
_diffrn_reflns_limit_k_max       31
_diffrn_reflns_limit_k_min       -31
_diffrn_reflns_limit_l_max       12
_diffrn_reflns_limit_l_min       -12
_diffrn_reflns_number            20754
_diffrn_reflns_point_group_measured_fraction_full 1.000
_diffrn_reflns_point_group_measured_fraction_max 1.000
_diffrn_reflns_theta_full        25.026
_diffrn_reflns_theta_max         25.026
_diffrn_reflns_theta_min         2.674
_diffrn_source                   'fine-focus sealed X-ray tube'
_diffrn_source_type              'Enhance (Mo) X-ray Source'
_exptl_absorpt_coefficient_mu    1.816
_exptl_absorpt_correction_T_max  1.00000
_exptl_absorpt_correction_T_min  0.57601
_exptl_absorpt_correction_type   multi-scan
_exptl_absorpt_process_details
;
CrysAlisPro 1.171.38.46 (Rigaku Oxford Diffraction, 2015)
Empirical absorption correction using spherical harmonics,
 implemented in SCALE3 ABSPACK scaling algorithm.
;
_exptl_crystal_colour            white
_exptl_crystal_colour_primary    white
_exptl_crystal_density_diffrn    1.437
_exptl_crystal_description       block
_exptl_crystal_F_000             2675
_exptl_crystal_preparation       'Solvent Exchnage in Acetonitrile'
_exptl_crystal_size_max          0.2
_exptl_crystal_size_mid          0.02
_exptl_crystal_size_min          0.02
_refine_diff_density_max         0.628
_refine_diff_density_min         -0.473
_refine_diff_density_rms         0.090
_refine_ls_abs_structure_details
;
 Flack x determined using 925 quotients [(I+)-(I-)]/[(I+)+(I-)]
 (Parsons, Flack and Wagner, Acta Cryst. B69 (2013) 249-259).
;
_refine_ls_abs_structure_Flack   -0.02(2)
_refine_ls_extinction_method     none
_refine_ls_goodness_of_fit_ref   1.032
_refine_ls_hydrogen_treatment    constr
_refine_ls_matrix_type           full
_refine_ls_number_parameters     124
_refine_ls_number_reflns         2394
_refine_ls_number_restraints     3
_refine_ls_restrained_S_all      1.032
_refine_ls_R_factor_all          0.0559
_refine_ls_R_factor_gt           0.0477
_refine_ls_shift/su_max          0.000
_refine_ls_shift/su_mean         0.000
_refine_ls_structure_factor_coef Fsqd
_refine_ls_weighting_details
'w=1/[\s^2^(Fo^2^)+(0.0696P)^2^+26.9624P] where P=(Fo^2^+2Fc^2^)/3'
_refine_ls_weighting_scheme      calc
_refine_ls_wR_factor_gt          0.1122
_refine_ls_wR_factor_ref         0.1160
_reflns_Friedel_coverage         0.988
_reflns_Friedel_fraction_full    1.000
_reflns_Friedel_fraction_max     1.000
_reflns_number_gt                2145
_reflns_number_total             2394
_reflns_threshold_expression     'I > 2\s(I)'
_cod_data_source_file            ZnGlyPyr_MeCN_100K.cif
_cod_data_source_block           ZnGlyPyr_MeCN_100K
_cod_original_cell_volume        6101.3(5)
_cod_original_sg_symbol_H-M      'R 3 c'
_cod_database_code               4135169
_shelx_shelxl_version_number     2014/7
_chemical_oxdiff_formula         'Zn C6 N3 O3 H8'
_shelx_space_group_comment
;
The symmetry employed for this shelxl refinement is uniquely defined
by the following loop, which should always be used as a source of
symmetry information in preference to the above space-group names.
They are only intended as comments.
;
_shelx_estimated_absorpt_t_max   0.965
_shelx_estimated_absorpt_t_min   0.713
_reflns_odcompleteness_completeness 99.77
_reflns_odcompleteness_iscentric 1
_reflns_odcompleteness_theta     24.97
_olex2_refinement_description
;
1. Fixed Uiso
 At 1.2 times of:
  All C(H) groups, All C(H,H) groups, All N(H) groups
 At 1.5 times of:
  All C(H,H,H) groups
2. Uiso/Uaniso restraints and constraints
N5 \\sim C9 \\sim C10: within 2A with sigma of 0.02 and sigma for terminal
atoms of 0.04
Uanis(C1) = Uanis(N2) = Uanis(N1) = Uanis(C3) = Uanis(C2)
Uanis(O2) = Uanis(O1) = Uanis(C6)
3. Others
 Sof(C10)=Sof(H10A)=Sof(H10B)=Sof(H10C)=Sof(N5)=Sof(C9)=FVAR(1)
4.a Secondary CH2 refined with riding coordinates:
 C5(H5A,H5B)
4.b Aromatic/amide H refined with riding coordinates:
 N3(H3), C1(H1), C3(H3A)
4.c Idealised Me refined as rotating group:
 C8(H8A,H8B,H8C), C10(H10A,H10B,H10C)
;
_shelx_res_file
;
    yy_zn_gly_pyr_mecn_100k_5.res created by SHELXL-2014/7

TITL YY_Zn_Gly_Pyr_MeCN_100K_5 in R3c #161
REM reset to R3c #161
CELL 0.71073 26.382866 26.382866 10.121504 90 90 120
ZERR 18 0.000987 0.000987 0.000377 0 0 0
LATT -3
SYMM -Y,+X-Y,+Z
SYMM +Y-X,-X,+Z
SYMM +Y-X,+Y,0.5+Z
SYMM +X,+X-Y,0.5+Z
SYMM -Y,-X,0.5+Z
SFAC C H N O Zn
UNIT 161.33 169.99 80.66 54 18
SIMU 0.02 0.04 2 N5 C9 C10
EADP C1 N2 N1 C3 C2
EADP O2 O1 C6

L.S. 16
PLAN  20
SIZE 0.02 0.02 0.2
TEMP -173.15
BOND
fmap 2
ACTA
REM <olex2.extras>
REM <HklSrc "%.\\YY_Zn_Gly_Pyr_MeCN_100K_5.hkl">
REM </olex2.extras>

WGHT    0.069600   26.962400
FVAR       0.86753   0.48138
ZN1   5    0.321566    0.351384    0.461650    11.00000    0.02328    0.02187 =
         0.00584   -0.00014    0.00064    0.01040
O1    4    0.317225    0.400962    0.321022    11.00000    0.02710    0.02251 =
         0.00981    0.00189   -0.00185    0.01030
O3    4    0.445235    0.221749    0.568357    11.00000    0.05281    0.03406 =
         0.00797    0.00136    0.00205    0.02843
N1    3    0.347687    0.403528    0.617299    11.00000    0.02739    0.02374 =
         0.00647   -0.00117    0.00012    0.01285
N2    3    0.372596    0.319291    0.410718    11.00000    0.02739    0.02374 =
         0.00647   -0.00117    0.00012    0.01285
O2    4    0.240376    0.288862    0.488224    11.00000    0.02710    0.02251 =
         0.00981    0.00189   -0.00185    0.01030
C4    1    0.444105    0.232727    0.449473    11.00000    0.02083    0.01548 =
         0.00926    0.00347    0.00157    0.00679
N3    3    0.462105    0.209600    0.355733    11.00000    0.03011    0.02542 =
         0.00644    0.00332    0.00216    0.01610
AFIX  43
H3    2    0.466252    0.222067    0.273650    11.00000   -1.20000
AFIX   0
C1    1    0.391677    0.290502    0.483973    11.00000    0.02739    0.02374 =
         0.00647   -0.00117    0.00012    0.01285
AFIX  43
H1    2    0.385646    0.284228    0.576451    11.00000   -1.20000
AFIX   0
C3    1    0.376034    0.461730    0.613617    11.00000    0.02739    0.02374 =
         0.00647   -0.00117    0.00012    0.01285
AFIX  43
H3A   2    0.381900    0.484552    0.536505    11.00000   -1.20000
AFIX   0
C6    1    0.351987    0.437334    0.235662    11.00000    0.02710    0.02251 =
         0.00981    0.00189   -0.00185    0.01030
C2    1    0.421738    0.270858    0.406007    11.00000    0.02739    0.02374 =
         0.00647   -0.00117    0.00012    0.01285
C5    1    0.474813    0.163400    0.391088    11.00000    0.03069    0.02473 =
         0.01312   -0.00012    0.00040    0.01486
AFIX  23
H5A   2    0.495911    0.173127    0.476493    11.00000   -1.20000
H5B   2    0.500565    0.161108    0.323085    11.00000   -1.20000
AFIX   0

C7    1    0.496746    0.437217    0.578211    11.00000    0.05225    0.03768 =
         0.03286   -0.00342   -0.00865    0.01831
N4    3    0.488239    0.413094    0.675792    11.00000    0.09249    0.05829 =
         0.04357    0.00246   -0.00828    0.04232
C8    1    0.505686    0.467255    0.452578    11.00000    0.04100    0.05811 =
         0.04731    0.02222    0.00738    0.00984
AFIX 137
H8A   2    0.480867    0.439170    0.385003    11.00000   -1.50000
H8B   2    0.546847    0.484855    0.426482    11.00000   -1.50000
H8C   2    0.495371    0.497987    0.461564    11.00000   -1.50000
AFIX   0

PART 1
C10   1    0.579117    0.345856    0.556531    21.00000    0.08913
AFIX 137
H10A  2    0.601251    0.353013    0.474225    21.00000   -1.50000
H10B  2    0.541840    0.344150    0.537947    21.00000   -1.50000
H10C  2    0.571544    0.308606    0.594922    21.00000   -1.50000
AFIX   0
N5    3    0.642607    0.431251    0.724936    21.00000    0.10884
C9    1    0.610986    0.390468    0.644212    21.00000    0.13798
HKLF 4

REM  YY_Zn_Gly_Pyr_MeCN_100K_5 in R3c #161
REM R1 =  0.0477 for    2145 Fo > 4sig(Fo)  and  0.0559 for all    2394 data
REM    124 parameters refined using      3 restraints

END

WGHT      0.0696     26.9736

REM Highest difference peak  0.628,  deepest hole -0.473,  1-sigma level  0.090
Q1    1   0.3056  0.3110  0.4798  11.00000  0.05    0.54
Q2    1   0.3562  0.3515  0.4574  11.00000  0.05    0.52
Q3    1   0.6445  0.4238  0.8151  11.00000  0.05    0.52
Q4    1   0.2777  0.3401  0.4624  11.00000  0.05    0.50
Q5    1   0.3179  0.3842  0.4584  11.00000  0.05    0.42
Q6    1   0.5839  0.3414  0.6111  11.00000  0.05    0.39
Q7    1   0.3553  0.3883  0.4703  11.00000  0.05    0.39
Q8    1   0.3268  0.3576  0.3501  11.00000  0.05    0.35
Q9    1   0.3941  0.3442  0.4109  11.00000  0.05    0.35
Q10   1   0.6616  0.3841  0.7820  11.00000  0.05    0.32
Q11   1   0.3625  0.4669  0.2271  11.00000  0.05    0.31
Q12   1   0.2672  0.3759  0.4997  11.00000  0.05    0.30
Q13   1   0.5329  0.4338  0.6517  11.00000  0.05    0.29
Q14   1   0.4066  0.3831  0.4916  11.00000  0.05    0.29
Q15   1   0.3376  0.4244  0.6123  11.00000  0.05    0.29
Q16   1   0.3427  0.4089  0.3169  11.00000  0.05    0.29
Q17   1   0.3190  0.3512  0.2631  11.00000  0.05    0.29
Q18   1   0.2363  0.2946  0.4357  11.00000  0.05    0.28
Q19   1   0.4246  0.1938  0.3147  11.00000  0.05    0.27
Q20   1   0.4602  0.1816  0.3685  11.00000  0.05    0.27
;
_shelx_res_checksum              8105
_shelx_hkl_file
;
   0   0 -12 28729.1 2279.48   1
   0   0 -12 24519.5 1962.63   2
   0   0  -9 1089.44 805.501   2
   0   0  -9-1254.06 990.388   4
   0   0  -9 658.383 971.060   1
   0   0  -6 163825. 3158.07   1
   0   0  -6 159276. 3508.72   3
   0   0  -6 158853. 3033.70   4
   0   0  -6 161154. 2938.41   2
   0   0  -3 201.471 340.157   4
   0   0  -3-24.8929 363.974   2
   0   0  -3-67.3683 415.474   3
   0   0   3-178.620 302.201   4
   0   0   3 166.609 345.896   2
   0   0   3-19.7260 369.630   3
   0   0   6 138496. 2984.83   3
   0   0   6 135317. 2648.92   4
   0   0   6 138347. 2739.03   2
   0   0   9-51.7499 915.428   3
   0   0  12 25052.7 2125.21   3
   0   1 -10 1874.99 1100.16   1
   1  -1 -10 1669.37 981.334   2
  -1   0 -10 860.502 926.326   2
  -1   0 -10 2205.76 1084.01   4
   1  -1 -10 973.170 988.119   4
   0   1 -10 2950.04 1057.47   4
  -1   0 -10 1321.88 1039.13   1
   0   1 -10 1135.23 905.019   2
   1  -1 -10 3206.62 1226.13   1
   1  -1  -7-281.243 700.300   1
   1  -1  -7 864.971 671.311   2
  -1   0  -7 325.599 705.798   2
  -1   0  -7 43.7943 731.077   3
   0   1  -7 209.469 696.863   1
   0   1  -7-126.101 653.389   4
   0   1  -7 214.351 651.942   2
  -1   0  -7-948.175 717.381   1
   1  -1  -7 579.976 780.822   3
   1  -1  -7 445.140 612.779   4
  -1   0  -7-629.328 696.653   4
   1  -1  -4 12362.5 813.349   2
  -1   0  -4 11149.3 903.733   3
   1  -1  -4 12961.8 802.444   4
   0   1  -4 11883.1 804.208   4
   0   1  -4 11925.5 758.273   2
   0   1  -4 11614.9 802.111   1
  -1   0  -4 11771.9 818.886   4
   0   1  -4 12344.8 977.382   3
   1  -1  -4 10836.0 848.961   3
  -1   0  -4 12561.0 846.187   2
  -1   0  -1 110.872 149.357   4
  -1   0  -1-76.2626 162.759   3
  -1   0  -1-40.1952 154.959   2
   0   1  -1 92.6849 186.121   3
   1  -1  -1-51.3156 154.590   2
   0   1  -1 9.25153 116.695   1
   1  -1  -1 11.8150 118.349   4
   0   1   2 8253.16 506.532   3
   0   1   2 7805.98 480.072   4
   1  -1   2 7429.53 582.467   3
  -1   0   2 8464.14 577.913   3
   0   1   2 8025.32 521.275   2
  -1   0   2 8815.49 454.750   2
   1  -1   2 8939.04 521.324   4
   1  -1   2 8489.54 476.709   2
  -1   0   2 8329.07 437.157   4
   1  -1   5 459.511 757.355   3
  -1   0   5-672.148 773.846   3
   1  -1   5 391.870 574.987   4
   0   1   5-511.793 675.377   2
  -1   0   5-279.636 538.548   4
   1  -1   5 552.597 632.971   2
   0   1   5 37.6797 552.099   4
  -1   0   5 340.926 661.813   2
   0   1   5 224.903 675.209   3
   0   1   8 1102.45 900.212   3
  -1   0   8 565.455 878.373   3
   1  -1   8-362.275 839.766   3
   1  -1  11 562.987 1058.92   3
   0   1  11-369.145 1014.03   3
  -1   0  11 424.418 1057.17   3
  -1   1 -11 12.9139 985.581   4
  -1   1 -11-244.393 1157.78   1
   1   0 -11 1369.26 978.003   2
   0  -1 -11 1027.07 1088.83   1
   0  -1 -11 2349.02 1113.05   2
  -1   1 -11-158.167 958.466   2
   0  -1 -11 1179.85 1077.27   4
   1   0 -11 435.957 974.215   4
   1   0 -11 248.438 1155.80   1
   1   0  -8-293.365 788.586   1
  -1   1  -8 1060.49 843.812   4
   1   0  -8 517.322 726.234   2
  -1   1  -8 297.698 834.929   1
  -1   1  -8 62.1665 748.319   2
   0  -1  -8-459.168 826.452   2
   1   0  -8 813.715 868.837   4
   0  -1  -8 822.066 893.026   4
   0  -1  -8 890.242 881.374   1
   0  -1  -5 170.932 650.614   2
   1   0  -5 247.625 694.215   1
   1   0  -5-801.489 624.569   2
  -1   1  -5 1186.08 814.452   3
   0  -1  -5 20.2943 668.752   3
   0  -1  -5 207.176 653.190   4
   1   0  -5-53.3866 759.081   3
  -1   1  -5-626.755 619.700   4
  -1   1  -5 449.822 660.368   1
   1   0  -5 282.914 593.979   4
  -1   1  -5-120.364 646.350   2
   1   0  -2 9372.75 545.121   1
  -1   1  -2 8331.80 524.915   4
   0  -1  -2 8602.08 508.925   4
  -1   1  -2 9391.49 641.870   3
  -1   1  -2 8881.20 519.012   2
   0  -1  -2 8761.38 525.869   3
   1   0  -2 7760.05 458.414   4
   1   0  -2 8641.22 578.761   3
   1   0  -2 8935.96 460.971   2
   0  -1  -2 9007.60 575.987   2
   0  -1   1-60.7617 169.668   3
   1   0   1-16.5495 133.325   4
  -1   1   1-41.4263 114.828   4
   0  -1   1-131.464 123.745   4
  -1   1   1-28.0864 143.272   2
   1   0   1 122.814 148.506   3
   0  -1   1-44.3486 133.448   1
   1   0   1-233.727 163.469   2
   0  -1   4 11096.2 755.401   4
  -1   1   4 12464.1 822.563   2
   1   0   4 12101.8 785.705   4
  -1   1   4 11626.7 841.511   3
   1   0   4 11213.2 839.438   3
   1   0   4 12071.9 805.830   2
   0  -1   4 10834.4 871.169   3
   0  -1   4 13218.3 774.961   2
  -1   1   4 11586.7 722.534   4
   0  -1   7 59.1183 636.118   2
  -1   1   7-286.820 665.294   2
  -1   1   7 148.705 677.047   3
   1   0   7-72.2440 727.414   3
   0  -1   7 127.790 763.771   3
   0  -1  10 814.568 1033.83   3
  -1   1  10 552.735 980.901   3
   1   0  10 546.883 981.642   3
   2  -2 -11 542.267 1021.05   2
  -2   0 -11 230.884 1021.26   2
   2  -2 -11 3400.97 1291.66   1
  -2   0 -11 1281.46 1068.96   1
   0   2 -11-401.401 874.158   2
  -2   0 -11 134.384 1104.44   4
   0   2 -11-206.141 1138.33   1
   2  -2 -11 135.113 1037.26   4
   2  -2  -8 3619.32 924.821   2
   2  -2  -8 4196.27 1051.60   1
   2  -2  -8 2020.29 898.955   4
  -2   0  -8 3182.49 884.028   1
   0   2  -8 3633.64 862.152   2
  -2   0  -8 3663.33 946.482   4
   0   2  -8 3883.22 896.535   4
  -2   0  -8 2769.46 956.843   2
   0   2  -8 3885.48 917.552   1
  -2   0  -5-257.909 738.371   3
   0   2  -5 1112.19 862.997   3
  -2   0  -5-124.496 660.471   4
   2  -2  -5-357.793 615.735   4
   2  -2  -5 197.765 685.213   3
   0   2  -5 246.513 626.776   4
   0   2  -5-124.893 571.571   2
  -2   0  -5-467.720 750.112   2
   2  -2  -5 383.435 702.818   2
   0   2  -5 174.815 724.644   1
   2  -2  -2 18362.7 623.603   3
   0   2  -2 17288.0 543.949   2
   2  -2  -2 18941.5 717.126   2
  -2   0  -2 18159.6 742.498   4
   0   2  -2 17133.5 832.720   3
  -2   0  -2 17256.3 719.924   2
   0   2  -2 17177.0 636.370   1
  -2   0  -2 17012.6 771.411   3
   2  -2  -2 17806.4 590.232   4
   0   2   1-32.0567 257.174   2
   0   2   1-56.1256 211.008   4
   2  -2   1 157.492 264.111   3
  -2   0   1-33.1269 194.999   1
   2  -2   1 197.998 183.447   4
   2  -2   1 39.3243 181.921   2
   0   2   4 23718.5 1021.42   4
   2  -2   4 27243.4 1079.06   2
   2  -2   4 26929.5 1289.71   3
   0   2   4 25715.8 1042.52   3
   2  -2   4 26863.7 1092.98   4
  -2   0   4 26627.0 998.438   2
  -2   0   4 25885.2 966.614   4
   0   2   4 27540.0 1174.65   2
  -2   0   4 24773.5 1193.12   3
   0   2   7 459.748 655.733   3
  -2   0   7-302.643 635.543   2
   2  -2   7 126.665 767.352   3
  -2   0   7-276.988 717.607   3
  -2   0  10 1749.01 966.171   3
   2  -2  10 1570.00 1099.71   3
   0   2  10 274.110 916.938   3
   1  -2 -12 4149.80 1200.87   2
   1   1 -12 6951.88 1597.63   1
   1  -2 -12 3674.61 1471.96   1
  -2   1 -12 5868.23 1365.87   1
  -1  -1 -12 3534.84 1273.94   2
   2  -1 -12 5413.58 1450.22   1
   1   1 -12 2853.45 1158.78   2
   1  -2 -12 5488.23 1387.59   4
  -1  -1 -12 4336.28 1429.22   1
  -1  -1 -12 5722.75 1358.61   4
  -1   2 -12 3954.75 1165.44   2
  -2   1 -12 3656.01 1239.21   2
   2  -1 -12 6038.40 1334.50   2
  -1   2 -12 4754.52 1317.94   1
  -1   2  -9 35452.2 1861.59   2
   1  -2  -9 33745.4 1948.41   4
   2  -1  -9 32864.3 1958.94   1
   2  -1  -9 31650.9 1827.16   4
   1   1  -9 34918.7 1872.80   4
  -1  -1  -9 34635.4 2078.45   4
  -2   1  -9 33414.8 1932.15   1
  -1  -1  -9 34236.1 2020.12   1
  -1  -1  -9 35586.8 2018.00   2
  -1   2  -9 33004.4 1892.75   1
   2  -1  -9 30999.5 1749.07   2
   1   1  -9 33119.8 1958.76   1
   1  -2  -9 31152.5 1843.22   2
  -2   1  -9 30754.3 1858.97   2
   1   1  -9 33365.1 1763.08   2
   1  -2  -9 32113.7 1979.88   1
  -2   1  -9 30625.0 1930.51   4
  -1   2  -9 34479.5 1928.28   4
   1  -2  -6 46538.0 1854.11   3
  -1  -1  -6 45550.2 1756.42   2
   1  -2  -6 44154.6 1679.16   2
  -1   2  -6 47043.1 1704.24   1
  -1   2  -6 45074.1 1708.11   4
   1   1  -6 46678.8 1662.45   4
  -2   1  -6 46249.4 1757.31   4
   2  -1  -6 45253.9 1908.50   3
  -2   1  -6 45918.1 1706.53   2
   1   1  -6 44720.9 1529.96   2
   1   1  -6 45307.9 2048.35   3
   2  -1  -6 46938.0 1662.41   4
  -1  -1  -6 47491.1 1964.83   3
   1   1  -6 46060.3 1745.83   1
  -1  -1  -6 46666.0 1792.31   4
   1  -2  -6 48223.0 1749.53   4
  -2   1  -6 46122.6 2031.02   3
   2  -1  -6 47683.3 1819.72   1
  -1   2  -6 46103.3 1616.74   2
  -2   1  -6 47713.5 1712.92   1
  -1   2  -6 45278.9 2073.70   3
   2  -1  -6 48220.4 1619.91   2
   2  -1  -3 100289. 1534.71   4
  -2   1  -3 96684.5 1686.59   2
   2  -1  -3 104001. 1834.64   3
  -2   1  -3 101127. 2025.09   3
   1  -2  -3 99240.9 1719.91   2
  -1  -1  -3 98949.8 1757.01   4
   1   1  -3 101444. 1439.11   2
   1   1  -3 95794.7 1699.93   1
   1   1  -3 98353.3 1972.16   3
  -1  -1  -3 97580.5 1787.88   2
  -1   2  -3 101848. 1574.87   2
  -1   2  -3 101922. 2079.18   3
  -1   2  -3 97033.4 1582.82   1
   1  -2  -3 100619. 1674.74   3
   1  -2  -3 97897.0 1633.72   4
  -2   1  -3 97261.6 1756.14   4
   2  -1  -3 103203. 1535.76   2
  -1  -1  -3 101245. 1834.39   3
  -1   2  -3 94523.9 1640.10   4
   1   1  -3 98462.9 1548.41   4
   1  -2   3 100200. 1554.86   2
   2  -1   3 99844.4 1698.28   2
  -1   2   3 101463. 1722.62   2
  -2   1   3 98633.1 1537.02   2
   1  -2   3 100989. 1691.17   4
   1  -2   3 97603.4 1961.13   3
  -2   1   3 100799. 1755.16   3
  -1   2   3 98934.7 1603.44   4
   2  -1   3 98455.8 1915.06   3
   1   1   3 99201.7 1704.25   3
   1   1   3 98000.0 1735.62   2
   1   1   3 97975.3 1677.19   4
   2  -1   3 99362.0 1726.60   4
  -1  -1   3 99404.8 1924.61   3
  -1  -1   3 99334.9 1541.53   4
  -1   2   3 97926.4 1584.97   3
  -1  -1   3 98638.7 1415.19   2
  -2   1   3 98490.2 1463.92   4
  -1   2   6 42488.0 1616.37   3
   2  -1   6 42443.6 1610.19   2
  -2   1   6 43697.2 1702.57   3
  -1  -1   6 40196.4 1458.06   4
   2  -1   6 38152.1 1690.49   3
  -2   1   6 43664.3 1485.35   4
   1  -2   6 41395.8 1511.27   2
   1   1   6 38249.7 1518.29   4
   1  -2   6 41935.7 1818.84   3
   1   1   6 41844.4 1644.18   2
  -1  -1   6 41813.6 1769.77   3
   1  -2   6 41195.2 1549.09   4
  -1   2   6 42701.4 1522.46   4
  -1  -1   6 42793.5 1471.99   2
   1   1   6 42956.5 1701.29   3
  -1   2   6 40660.5 1608.00   2
  -2   1   6 43303.1 1539.59   2
  -1  -1   9 30248.0 1949.73   3
   1   1   9 28015.5 1807.80   3
  -2   1   9 28832.1 1871.38   3
   2  -1   9 30877.7 1934.36   3
  -1   2   9 31634.8 1853.05   3
   1  -2   9 32560.7 2039.67   3
   2  -1  12 5117.34 1425.13   3
   1   1  12 6477.50 1381.53   3
   1  -2  12 4746.31 1356.95   3
  -1  -1  12 3279.39 1226.33   3
  -1   2  12 3058.36 1167.37   3
   2   0 -10 1486.94 990.906   4
   0  -2 -10 2269.14 1061.68   1
  -2   2 -10 3390.84 1148.09   2
   0  -2 -10 1931.55 1039.06   4
   0  -2 -10 1132.15 964.739   2
  -2   2 -10 2314.53 1032.01   1
  -2   2 -10 1123.77 979.050   4
   2   0 -10 2153.39 979.012   2
   2   0 -10 3045.25 1137.69   1
   2   0  -7-396.417 611.543   2
  -2   2  -7-859.191 674.130   4
   2   0  -7 452.076 640.042   4
   0  -2  -7-415.914 706.991   2
  -2   2  -7-146.803 644.203   1
   2   0  -7 441.237 748.857   1
   0  -2  -7 1268.56 811.184   3
  -2   2  -7-398.558 689.803   2
   0  -2  -7 932.687 709.575   4
   2   0  -4 26881.7 1174.54   1
   0  -2  -4 24854.9 1135.22   2
   0  -2  -4 27000.4 1129.97   3
  -2   2  -4 27436.0 1356.79   3
   2   0  -4 26574.9 1267.04   3
  -2   2  -4 26064.4 1068.92   2
   2   0  -4 25086.3 936.231   2
  -2   2  -4 25807.0 1143.18   4
   2   0  -4 28087.3 1036.86   4
  -2   2  -4 27585.5 1054.96   1
   0  -2  -4 28754.5 1180.02   4
   0  -2  -1-104.895 192.657   4
   2   0  -1-222.370 190.290   1
  -2   2  -1 447.805 276.505   3
  -2   2  -1-72.0233 172.135   2
   0  -2  -1-179.167 246.848   2
  -2   2   2 19111.6 627.270   3
   0  -2   2 17877.0 840.192   3
   2   0   2 20188.0 743.208   4
   0  -2   2 18564.4 535.966   2
   0  -2   2 20286.3 656.097   4
  -2   2   2 19893.1 715.795   2
  -2   2   2 19891.6 603.094   4
   2   0   2 19598.7 770.693   2
   2   0   2 20063.4 799.921   3
   0  -2   2 18741.0 644.841   1
  -2   2   5 30.2034 513.407   4
   2   0   5 658.321 553.373   4
   0  -2   5 746.176 614.497   2
   2   0   5-71.4651 625.630   2
  -2   2   5 452.472 658.147   3
   2   0   5-137.126 645.032   3
  -2   2   5 1.95472 672.660   2
   0  -2   5 357.727 824.059   3
   0  -2   5 123.060 540.050   4
   2   0   8 3866.02 943.717   3
   0  -2   8 3890.83 1026.46   3
  -2   2   8 3047.72 899.440   3
   0  -2  11 45.2609 1019.32   3
  -2   2  11-591.295 963.324   3
   2   0  11 705.665 987.961   3
  -3   0  -9 248.324 954.288   4
   3  -3  -9-19.7341 911.466   2
  -3   0  -9 618.015 960.746   2
   3  -3  -9-631.761 876.620   4
   3  -3  -9 840.412 934.795   1
   0   3  -9 853.498 755.355   2
   0   3  -9-1195.10 915.695   1
  -3   0  -9-72.2045 947.636   1
  -3   0  -6 187382. 3443.39   2
   3  -3  -6 194006. 3564.67   3
  -3   0  -6 180675. 3797.94   3
   0   3  -6 185987. 2939.95   2
   0   3  -6 177565. 4001.83   3
  -3   0  -6 189584. 3544.03   4
   3  -3  -6 173115. 3062.06   4
   0   3  -6 186997. 3225.28   1
   3  -3  -6 188278. 3272.22   2
  -3   0  -3 78.8703 466.707   3
  -3   0  -3-198.501 413.750   4
  -3   0  -3 93.8803 435.523   2
   0   3  -3-97.3869 373.003   1
   3  -3  -3 196.250 317.600   4
   3  -3  -3 171.248 415.736   2
   0   3  -3 208.306 525.438   3
   3  -3  -3 119.901 350.883   3
   0   3  -3 110.906 286.696   2
   3  -3   0 232757. 1933.53   3
   0   3   0 243418. 1728.81   4
   0   3   0 241053. 1749.96   1
   0   3   0 240210. 1671.77   2
  -3   0   0 239901. 1462.06   1
   0   3   0 232585. 1645.87   3
   0   3   3-282.032 315.779   3
  -3   0   3 91.2483 283.029   2
   3  -3   3 122.009 322.348   2
   3  -3   3 231.198 383.123   4
  -3   0   3-10.2157 464.571   3
  -3   0   3-46.9334 263.000   4
   0   3   3-89.3585 477.274   2
   3  -3   3-163.349 473.640   3
   0   3   3-34.9009 380.348   4
   0   3   6 98058.5 2496.63   2
  -3   0   6 97595.5 2626.78   3
  -3   0   6 98749.4 2132.83   4
   3  -3   6 103805. 2386.78   2
   3  -3   6 94926.1 2694.49   3
   0   3   6 99154.5 2310.66   3
  -3   0   6 101226. 2166.09   2
   0   3   9 1004.44 788.748   3
   3  -3   9 2002.22 1044.86   3
  -3   0   9 462.381 994.749   3
  -1   3 -10 830.424 923.773   1
   3  -2 -10 878.742 1080.29   1
   3  -2 -10 1460.20 978.638   4
  -3   1 -10 311.657 920.107   1
  -2  -1 -10 2756.63 1107.27   2
   2  -3 -10 852.770 983.636   2
  -2  -1 -10 296.623 1007.39   4
   3  -2 -10 1499.67 946.873   2
  -1   3 -10 498.085 895.058   2
  -3   1 -10 1499.61 1061.41   2
  -3   1 -10 665.485 1003.73   4
  -2  -1 -10 759.457 1008.90   1
   2  -3 -10 201.784 1004.40   4
   1   2 -10 1234.35 1033.55   1
   2  -3 -10 1369.74 1076.16   1
   1   2 -10 1569.12 934.791   2
   1   2  -7 25336.4 1477.45   1
   2  -3  -7 22832.7 1388.76   4
   2  -3  -7 23747.0 1544.96   3
  -1   3  -7 24726.5 1410.32   1
  -2  -1  -7 24783.2 1666.24   3
  -1   3  -7 28316.6 1507.85   4
   3  -2  -7 29072.5 1656.17   1
  -2  -1  -7 27017.7 1553.33   2
   3  -2  -7 26366.8 1365.27   4
  -1   3  -7 26176.8 1382.08   2
  -3   1  -7 24945.9 1439.22   1
  -3   1  -7 27422.4 1604.81   4
  -3   1  -7 27583.0 1550.68   2
   3  -2  -7 27780.8 1447.71   2
   2  -3  -7 24108.5 1499.93   2
   3  -2  -7 23576.3 1599.38   3
   1   2  -7 25929.2 1305.42   2
  -2  -1  -7 27979.3 1616.26   4
   1   2  -7 28675.4 1467.25   4
   3  -2  -4 1049.22 583.326   3
  -3   1  -4 687.266 581.260   2
   2  -3  -4 624.556 513.373   4
   1   2  -4 423.519 469.877   4
  -2  -1  -4 367.342 560.985   4
  -2  -1  -4 616.430 578.354   2
  -1   3  -4 849.569 541.270   4
   2  -3  -4 576.336 533.311   3
  -3   1  -4-59.5585 588.054   4
  -2  -1  -4 809.695 549.356   3
   1   2  -4 1312.24 554.486   1
   3  -2  -4 519.499 476.454   4
  -3   1  -4 1366.76 717.180   3
   1   2  -4 1572.18 720.738   3
   1   2  -4 121.768 394.977   2
  -1   3  -4 538.543 470.659   2
   3  -2  -4 812.108 549.858   2
   2  -3  -4 1512.68 636.567   2
  -1   3  -4 894.267 548.998   1
  -1   3  -4 138.680 734.061   3
  -1   3  -1 8813.00 383.680   1
  -2  -1  -1 8055.30 479.893   2
  -1   3  -1 8747.59 550.927   3
  -2  -1  -1 8998.35 445.403   4
   1   2  -1 8622.81 436.699   1
  -2  -1  -1 8695.50 446.528   3
  -3   1  -1 8280.27 515.475   3
  -3   1  -1 7801.25 405.628   4
   1   2  -1 7638.94 501.124   3
  -2  -1  -1 7781.68 378.950   1
   2  -3  -1 8746.45 387.358   4
   3  -2  -1 8194.54 386.210   2
   2  -3  -1 8365.21 466.123   2
  -3   1  -1 6704.58 394.932   2
  -2  -1   2 41182.2 1180.99   3
   1   2   2 43036.2 1125.25   2
   2  -3   2 41684.3 995.619   4
   3  -2   2 39972.8 1226.14   3
  -3   1   2 41906.6 775.008   2
  -3   1   2 41096.9 704.796   4
  -2  -1   2 41989.2 625.617   2
  -2  -1   2 42790.9 793.636   4
   2  -3   2 40515.5 801.602   1
   2  -3   2 40349.7 923.622   2
  -1   3   2 43337.7 977.295   4
  -2  -1   2 40545.4 988.539   1
   2  -3   2 41269.5 1226.35   3
   1   2   2 42826.8 1041.38   4
   1   2   2 41353.6 890.985   3
   3  -2   2 42790.3 1018.66   2
  -1   3   2 41130.5 688.856   3
  -1   3   2 41524.1 1080.09   2
  -1   3   5 31.0066 593.013   3
   3  -2   5 452.248 748.980   3
  -3   1   5 287.938 710.941   3
   3  -2   5 411.382 598.460   4
   1   2   5 220.635 588.066   4
   2  -3   5 824.252 592.468   4
   2  -3   5 508.907 577.955   2
   1   2   5 1124.68 651.969   3
  -2  -1   5 853.181 575.826   2
   1   2   5 533.014 709.050   2
  -3   1   5-346.967 475.677   4
   3  -2   5 566.251 698.992   2
  -2  -1   5 1181.06 852.839   3
  -3   1   5-250.845 661.823   2
  -2  -1   5 428.040 490.772   4
   2  -3   5 257.994 740.515   3
  -1   3   5 599.538 750.559   2
  -1   3   5 337.622 583.637   4
  -3   1   8-46.2303 820.972   3
   2  -3   8-146.421 866.615   3
  -2  -1   8 1024.98 878.432   3
   1   2   8-176.765 797.769   3
   3  -2   8-306.308 882.077   3
  -1   3   8-329.490 759.234   3
   1   2  11-171.369 926.036   3
  -2  -1  11-537.793 1160.38   3
  -1   3  11 2047.67 1055.69   3
   3  -2  11 885.426 1211.71   3
   2  -3  11-835.822 1127.80   3
  -2   3 -11-1074.18 1014.72   2
   3  -1 -11 1001.77 918.592   2
  -3   2 -11 615.421 1162.59   4
   3  -1 -11-53.5911 1066.01   1
  -3   2 -11-565.969 1020.28   2
  -2   3 -11 1291.32 1050.57   1
  -1  -2 -11 400.470 1023.22   2
   1  -3 -11-73.6832 1066.85   4
   2   1 -11 1078.60 849.727   2
  -1  -2 -11 376.803 1113.57   1
   1  -3 -11 465.621 1094.63   1
  -3   2 -11 680.716 1032.41   1
   1  -3 -11 43.0315 1028.05   2
   2   1 -11 1046.71 1127.18   1
  -1  -2 -11-575.870 1008.02   4
   2   1  -8 615.424 883.469   1
   1  -3  -8 377.451 915.873   1
  -1  -2  -8-501.739 829.790   2
  -1  -2  -8 721.401 929.328   4
  -3   2  -8 326.077 806.103   2
   3  -1  -8 133.415 731.041   2
   1  -3  -8-2057.36 940.219   2
  -3   2  -8 317.464 808.395   4
  -2   3  -8 229.101 759.745   1
   2   1  -8 622.030 771.981   4
   3  -1  -8 241.451 700.364   4
   3  -1  -8 902.083 874.877   1
   1  -3  -8 168.005 818.102   4
  -2   3  -8 152.213 711.554   2
  -2   3  -8 949.171 847.183   4
   2   1  -8 28.9924 670.414   2
  -3   2  -8-1030.28 853.010   1
   3  -1  -5 511.181 680.776   3
  -3   2  -5 1165.72 654.907   1
  -2   3  -5 1207.86 686.514   4
   3  -1  -5 225.667 692.926   1
   1  -3  -5 1654.60 784.635   2
   2   1  -5 1362.11 768.686   1
   1  -3  -5 396.887 616.324   3
   2   1  -5 765.352 564.493   4
  -3   2  -5 1489.58 729.599   4
   1  -3  -5 1276.82 680.578   4
  -1  -2  -5 397.681 759.634   2
   3  -1  -5 1418.47 644.142   2
  -1  -2  -5 963.437 667.152   4
  -2   3  -5-334.636 850.811   3
  -3   2  -5 822.564 837.328   3
  -2   3  -5-757.888 624.411   2
  -2   3  -5 155.518 613.125   1
   3  -1  -5 251.956 552.304   4
  -1  -2  -5 953.003 667.313   3
  -3   2  -5 667.120 660.986   2
   2   1  -5 1070.74 543.895   2
   2   1  -5 1434.61 846.105   3
   1  -3  -2 42305.7 965.366   4
  -3   2  -2 44351.3 1078.94   4
   3  -1  -2 44081.4 808.828   2
   3  -1  -2 43023.6 746.012   4
   3  -1  -2 42206.8 1076.66   3
  -2   3  -2 43460.1 938.423   2
   3  -1  -2 44424.5 1067.49   1
   2   1  -2 45159.1 1221.23   3
   1  -3  -2 44093.6 746.512   3
   2   1  -2 42347.0 630.862   2
  -3   2  -2 43533.0 1041.95   2
  -1  -2  -2 44186.8 925.818   3
   1  -3  -2 44162.1 1141.41   2
  -2   3  -2 43860.2 1305.69   3
  -1  -2  -2 42461.3 1029.54   4
  -3   2  -2 43607.6 1283.42   3
   2   1  -2 41868.0 1020.51   1
  -1  -2  -2 42821.8 1108.02   2
  -2   3  -2 43621.2 833.963   1
   3  -1   1 7801.75 504.873   3
  -1  -2   1 7985.04 514.588   3
   2   1   1 7879.89 437.183   4
   2   1   1 7759.55 385.468   1
   1  -3   1 7811.90 511.147   3
  -3   2   1 7261.54 367.554   2
   3  -1   1 7491.28 414.313   4
   3  -1   1 8134.04 430.241   2
  -2   3   1 8584.47 384.787   4
  -1  -2   1 7954.64 422.595   1
  -2   3   1 7875.37 472.009   2
   2   1   1 7081.43 451.125   2
   2   1   1 7796.78 436.484   3
   1  -3   1 7917.74 351.586   1
   3  -1   4 400.599 629.608   3
  -2   3   4 730.238 604.302   2
   1  -3   4-140.352 470.569   4
  -1  -2   4 1108.56 475.429   4
   2   1   4 462.334 517.330   4
  -1  -2   4 427.112 647.355   3
  -3   2   4 431.515 543.024   2
   2   1   4 175.941 602.895   2
  -2   3   4 469.303 455.145   4
   2   1   4 449.135 526.511   3
   3  -1   4-35.6239 492.841   4
  -3   2   4 491.176 425.852   4
   1  -3   4 720.337 464.778   2
   3  -1   4 482.998 551.087   2
   1  -3   4 799.588 690.409   3
  -1  -2   4 419.736 429.569   2
  -2   3   4 857.318 520.529   3
  -3   2   4-238.651 547.065   3
   2   1   7 24715.6 1486.54   3
   3  -1   7 25275.0 1546.06   3
  -3   2   7 25368.1 1386.71   2
  -2   3   7 23842.6 1355.98   3
  -1  -2   7 25590.4 1320.12   2
  -1  -2   7 24882.2 1546.93   3
   1  -3   7 23373.1 1278.15   2
   1  -3   7 27105.3 1665.88   3
  -3   2   7 25876.3 1460.91   3
   3  -1  10 230.593 997.129   3
   2   1  10 1371.57 983.760   3
  -2   3  10-156.171 949.824   3
  -3   2  10-193.725 927.515   3
  -1  -2  10 1327.21 1062.46   3
   1  -3  10-668.286 1073.47   3
   3   0  -9 527.071 975.133   1
  -3   3  -9 1056.67 967.089   4
   0  -3  -9-423.642 1034.04   1
   3   0  -9 348.066 785.828   2
  -3   3  -9-267.701 818.021   1
   0  -3  -9-648.263 897.666   4
   0  -3  -9-230.334 933.592   2
  -3   3  -9 614.508 843.398   2
   3   0  -9 360.324 797.226   4
   3   0  -6 99652.1 2545.65   1
   3   0  -6 101922. 2279.29   4
   3   0  -6 102097. 2162.68   2
   0  -3  -6 103088. 2623.84   2
   0  -3  -6 101470. 2541.74   4
  -3   3  -6 103382. 2573.27   4
  -3   3  -6 100483. 3084.06   3
   3   0  -6 100291. 2844.00   3
  -3   3  -6 98048.9 2402.62   2
  -3   3  -6 102989. 2352.92   1
   0  -3  -6 108075. 2697.37   3
   0  -3  -3-73.9491 363.687   4
   0  -3  -3 608.709 489.562   2
   0  -3  -3 451.185 330.887   3
  -3   3  -3-301.607 388.428   4
  -3   3  -3 243.868 381.869   2
   3   0  -3-43.0863 394.025   1
   3   0  -3-381.397 472.645   3
  -3   3  -3-423.201 302.091   1
  -3   3  -3-120.731 492.301   3
   3   0  -3-221.338 294.642   4
   3   0  -3-63.6503 272.825   2
   3   0   0 253968. 1506.66   2
   3   0   0 258315. 1533.65   1
   0  -3   0 256861. 1797.28   1
   0  -3   0 260477. 1821.59   4
   0  -3   0 252571. 1700.29   3
   0  -3   0 257296. 1745.65   2
  -3   3   0 260904. 2036.03   3
   3   0   3 110.949 417.040   2
   0  -3   3 146.022 266.352   2
   0  -3   3-170.552 330.146   1
   0  -3   3 219.022 501.660   3
   0  -3   3 428.837 313.252   4
   3   0   3 16.4438 388.017   4
   3   0   3-394.063 429.823   3
  -3   3   3 143.057 307.613   4
  -3   3   3 11.0439 382.981   2
  -3   3   6 163597. 2792.44   4
  -3   3   6 167045. 3071.27   2
   3   0   6 170519. 3382.70   3
   0  -3   6 173510. 2821.79   2
   0  -3   6 164491. 2924.96   4
   3   0   6 163848. 3176.35   2
   0  -3   6 167391. 3557.77   3
  -3   3   6 173965. 3103.63   3
   0  -3   9 283.463 946.633   3
  -3   3   9-425.522 864.751   3
   3   0   9-95.0270 979.678   3
  -4   0 -10 29600.9 1979.04   1
  -4   0 -10 24338.1 1952.36   2
   4  -4 -10 29323.3 1969.12   4
   0   4 -10 24060.9 1583.17   2
   4  -4 -10 23595.9 1772.71   2
  -4   0 -10 29728.5 2092.63   4
   4  -4 -10 30651.1 2182.34   1
   0   4 -10 31125.9 1996.22   1
   4  -4  -7 260.535 677.743   4
   4  -4  -7-334.857 676.222   2
   0   4  -7-545.844 698.841   1
   4  -4  -7 741.704 785.499   1
  -4   0  -7-585.962 754.361   4
   0   4  -7 899.001 639.812   2
   4  -4  -7 568.859 717.460   3
  -4   0  -7-83.6790 852.073   2
  -4   0  -4 5278.60 803.467   4
   4  -4  -4 4648.16 801.841   2
  -4   0  -4 5451.34 841.008   2
  -4   0  -4 3841.55 868.482   3
   0   4  -4 4095.82 709.382   1
   4  -4  -4 4864.54 632.974   4
   4  -4  -4 4608.42 696.724   3
   0   4  -4 4073.64 548.163   2
   0   4  -4 5371.15 931.839   3
   4  -4  -1 233.144 372.903   2
  -4   0  -1 172.488 313.440   4
  -4   0  -1-142.200 415.659   3
   4  -4  -1 261.793 294.327   4
   0   4  -1 422.649 448.811   3
  -4   0  -1 101.230 285.660   1
   0   4  -1 256.870 371.851   1
   4  -4  -1-149.148 308.286   3
  -4   0  -1 807.356 360.039   2
   4  -4   2 72513.5 1384.62   4
   4  -4   2 73862.9 1759.79   3
  -4   0   2 72768.6 1341.06   1
   4  -4   2 73098.9 1367.67   2
   0   4   2 74043.6 1390.60   4
  -4   0   2 71504.2 856.693   4
   4  -4   2 71295.2 919.160   1
   0   4   2 74005.6 1534.99   2
   0   4   5 289.127 764.865   2
  -4   0   5-147.650 457.150   4
  -4   0   5 241.781 526.214   2
   0   4   5 34.2901 598.303   4
   4  -4   5 349.827 615.274   2
   4  -4   5-271.611 597.366   4
   0   4   5 857.165 571.780   3
  -4   0   5-128.661 753.443   3
   4  -4   5 179.856 823.861   3
   4  -4   8 29595.0 1930.53   3
  -4   0   8 33554.6 1896.15   3
   0   4   8 32160.1 1612.03   3
  -4   0   8 30532.7 1549.82   2
   4  -4  11-570.167 1138.90   3
   0   4  11-2461.99 1041.33   3
  -3  -1 -11 538.855 1186.71   4
  -4   1 -11 497.695 1022.67   4
  -4   1 -11 881.817 1061.24   2
   3  -4 -11 2998.93 1302.90   1
   4  -3 -11 740.521 972.035   4
   3  -4 -11 1243.03 1024.52   2
  -1   4 -11 1468.81 985.888   2
  -3  -1 -11 2120.16 1222.62   2
   1   3 -11 914.702 875.563   2
   4  -3 -11-632.882 1236.42   1
   4  -3 -11 665.526 1002.25   2
  -1   4 -11 607.389 1048.97   1
   3  -4 -11 96.6509 1029.37   4
  -3  -1 -11 1618.02 1053.17   1
   1   3 -11 223.172 1095.29   1
  -4   1 -11 1488.17 1111.78   1
   3  -4  -8 7535.76 1058.29   4
   4  -3  -8 9024.64 1283.28   1
  -4   1  -8 10494.8 1206.03   1
   3  -4  -8 6946.21 1227.37   1
   4  -3  -8 8240.55 1036.45   4
  -3  -1  -8 8221.39 1176.45   4
  -3  -1  -8 9793.21 1271.87   2
   3  -4  -8 8404.00 1191.61   3
   1   3  -8 7185.73 917.643   2
  -4   1  -8 8195.94 1127.13   2
   3  -4  -8 8641.12 1114.54   2
   4  -3  -8 7886.43 1039.84   2
   1   3  -8 7548.05 1164.52   1
  -1   4  -8 7550.62 950.729   2
  -4   1  -8 7101.43 1093.62   4
  -1   4  -8 7080.76 999.906   1
   4  -3  -5 14113.1 917.606   4
  -1   4  -5 14073.8 894.354   2
  -3  -1  -5 13981.8 1103.56   4
  -4   1  -5 14330.4 1056.72   2
   3  -4  -5 14199.2 984.424   3
   3  -4  -5 13691.6 1062.43   2
  -3  -1  -5 14860.7 1119.43   2
   1   3  -5 13421.7 1014.58   1
  -1   4  -5 14359.1 991.628   1
   4  -3  -5 14866.2 1025.67   2
   3  -4  -5 14311.7 987.256   4
  -3  -1  -5 12917.2 1096.89   3
   1   3  -5 12884.7 1264.37   3
  -1   4  -5 15233.5 1300.04   3
   1   3  -5 14555.6 835.328   2
  -4   1  -5 14467.2 1235.03   3
   4  -3  -5 13834.0 1038.79   3
  -4   1  -5 14742.1 1122.35   4
   4  -3  -2 11329.7 598.901   2
   1   3  -2 12156.8 642.638   1
  -3  -1  -2 11166.9 698.040   2
  -1   4  -2 11900.8 573.528   1
  -3  -1  -2 11587.9 563.231   1
   4  -3  -2 11637.1 451.316   4
   3  -4  -2 12936.1 468.258   3
  -4   1  -2 11536.3 675.587   4
  -1   4  -2 11273.6 796.505   3
  -4   1  -2 11829.0 754.066   3
  -4   1  -2 10379.5 640.135   2
   3  -4  -2 12227.0 710.107   2
  -3  -1  -2 12366.8 680.634   3
  -3  -1  -2 12087.9 673.554   4
   1   3  -2 12318.6 785.168   3
   3  -4  -2 11841.4 540.892   4
  -1   4   1 2238.94 453.070   2
   1   3   1 1450.27 438.842   2
   1   3   1 2102.07 380.000   4
   4  -3   1 1351.80 349.198   2
  -3  -1   1 2214.11 377.439   1
   3  -4   1 2211.21 246.311   1
   3  -4   1 1926.04 458.573   3
   4  -3   1 1589.40 319.459   4
  -4   1   1 2557.38 355.123   1
  -1   4   1 2310.08 400.517   4
   4  -3   1 1760.49 490.108   3
   1   3   1 2241.96 412.077   1
   4  -3   4 1511.76 580.238   4
  -4   1   4 1791.69 438.573   4
   4  -3   4 1565.28 721.391   3
   3  -4   4 1439.34 529.679   2
   1   3   4 1724.56 572.814   4
  -4   1   4 1609.30 524.881   2
   4  -3   4 1503.20 625.669   2
  -3  -1   4 1948.55 482.473   2
   1   3   4 2016.93 549.695   3
   3  -4   4 1612.22 545.085   4
   1   3   4 798.745 674.176   2
  -1   4   4 2172.11 625.068   4
  -1   4   4 1778.60 494.500   3
  -3  -1   4 2553.02 776.135   3
   3  -4   4 1836.95 859.653   3
  -3  -1   4 1839.51 450.890   4
  -1   4   4 1317.17 736.128   2
  -4   1   7 4436.49 684.093   4
  -4   1   7 7666.83 1086.46   3
  -3  -1   7 5075.74 1057.77   3
  -1   4   7 7482.00 938.768   3
  -3  -1   7 6459.67 810.490   2
   4  -3   7 5100.89 942.402   3
   1   3   7 7869.51 944.596   3
   3  -4   7 7446.74 1137.28   3
  -4   1   7 7341.97 905.147   2
   3  -4  10 6093.19 1381.23   3
   1   3  10 5316.47 1083.07   3
   4  -3  10 5120.53 1256.44   3
  -3  -1  10 4561.03 1229.29   3
  -1   4  10 6034.76 1119.78   3
   2  -4  -9 28118.4 1850.14   2
  -2  -2  -9 27954.5 1859.07   2
  -4   2  -9 25205.0 1827.68   2
  -2  -2  -9 26872.3 1878.29   1
   2  -4  -9 30390.6 2031.51   1
   2   2  -9 28886.6 1835.21   1
  -4   2  -9 25064.6 1697.13   1
   4  -2  -9 29388.9 1711.00   2
   2   2  -9 24818.8 1502.70   2
  -2   4  -9 21571.9 1491.00   2
   4  -2  -9 29013.2 1947.51   1
  -4   2  -9 25979.1 1841.29   4
   4  -2  -9 28550.4 1734.39   4
   2  -4  -9 30108.3 1908.76   4
  -2   4  -9 26255.9 1723.31   1
  -2  -2  -9 27632.8 1893.94   4
  -4   2  -6 16860.9 1199.51   2
  -2   4  -6 16878.0 1082.31   1
  -4   2  -6 18616.4 1152.40   1
  -2  -2  -6 17271.5 1214.99   4
   2  -4  -6 17895.9 1172.80   3
   2   2  -6 17536.2 960.341   2
  -2  -2  -6 17590.9 1249.71   3
   2   2  -6 17183.3 1414.15   3
  -4   2  -6 16795.4 1433.99   3
   2  -4  -6 17014.7 1222.16   2
   4  -2  -6 16715.2 1040.77   4
  -2  -2  -6 19156.5 1257.71   2
  -2   4  -6 15769.6 1038.24   2
   2  -4  -6 15729.2 1100.77   4
   4  -2  -6 16568.6 1051.29   2
   4  -2  -6 17513.5 1247.94   1
   4  -2  -6 18571.8 1285.98   3
  -4   2  -6 19863.6 1283.90   4
   2   2  -6 16635.0 1152.48   1
   4  -2  -3 141685. 1816.56   2
  -2   4  -3 142503. 2665.79   3
  -4   2  -3 138140. 2212.35   4
  -2   4  -3 134389. 1828.82   1
  -2  -2  -3 137574. 2088.75   3
   2  -4  -3 136387. 2238.60   2
   2   2  -3 141441. 2510.78   3
   4  -2  -3 139772. 2202.55   1
   4  -2  -3 136413. 2144.70   3
  -2  -2  -3 134719. 2178.42   4
  -2  -2  -3 134998. 2264.73   2
   2   2  -3 135892. 2065.61   1
   2   2  -3 138138. 1443.12   2
  -4   2  -3 140788. 2617.74   3
   2  -4  -3 140434. 1722.60   3
  -4   2  -3 135426. 2160.91   2
   2  -4  -3 139995. 2000.10   4
  -2   4  -3 137362. 1887.45   2
   4  -2  -3 140490. 1658.59   4
  -2   4   0 78857.8 970.218   1
   4  -2   0 80510.9 803.678   4
   2   2   0 80591.2 995.569   4
  -2   4   0 80343.7 1110.49   3
   2   2   0 79610.3 963.403   2
   2  -4   0 77200.9 1088.58   3
   2  -4   0 81405.5 971.292   1
  -2  -2   0 80069.3 1115.48   1
   2   2   0 80984.8 1118.54   1
  -4   2   0 79775.1 1296.69   3
  -2  -2   0 76710.2 954.526   2
   4  -2   0 79231.7 1343.70   3
  -2  -2   0 78223.6 983.889   4
   2  -4   3 127320. 1787.33   2
  -2  -2   3 124501. 1709.52   4
   4  -2   3 130857. 2083.89   2
   2   2   3 129451. 2179.92   2
  -2  -2   3 125380. 2311.70   3
   4  -2   3 129763. 2077.61   4
  -2   4   3 128013. 1886.49   4
   2  -4   3 121675. 1711.92   1
  -2   4   3 126022. 2096.10   2
   2   2   3 130782. 2089.33   4
   2  -4   3 119013. 2386.04   3
   2  -4   3 129295. 1995.43   4
   4  -2   3 120780. 2353.66   3
  -4   2   3 127421. 1531.91   4
   2   2   3 127162. 1958.91   3
  -2  -2   3 130368. 1392.52   2
  -2   4   3 126357. 1523.68   3
  -4   2   3 130478. 1685.62   2
  -2  -2   3 127309. 1963.46   1
  -2  -2   6 17898.2 1009.02   4
  -2  -2   6 16360.9 1324.47   3
   2  -4   6 15928.1 1019.55   2
  -2  -2   6 16292.8 956.322   2
   2  -4   6 12861.8 1256.74   3
  -2   4   6 16787.5 1038.08   3
   4  -2   6 15858.2 1254.16   3
   4  -2   6 13731.9 1037.08   2
  -4   2   6 15506.3 915.269   4
   2   2   6 15860.1 1106.85   3
  -4   2   6 15502.7 1030.75   2
  -4   2   6 15642.8 1144.68   3
  -2   4   6 15841.9 1179.12   2
  -2   4   6 13430.3 986.502   4
   2   2   9 25736.2 1733.93   3
   4  -2   9 22091.5 1793.95   3
  -2   4   9 25733.3 1605.63   3
  -2  -2   9 26923.1 1896.28   3
   2  -4   9 24297.6 1961.41   3
   1  -4 -10 6065.53 1238.57   2
   4  -1 -10 6747.36 1160.45   4
  -3   4 -10 4436.79 1049.75   2
  -4   3 -10 6880.54 1270.48   4
   1  -4 -10 6147.71 1411.30   1
  -4   3 -10 6668.06 1193.47   1
   1  -4 -10 7913.76 1357.55   4
  -1  -3 -10 4082.33 1237.50   1
   3   1 -10 7265.82 1329.61   1
   3   1 -10 5273.53 999.487   2
  -3   4 -10 5032.31 1072.84   1
  -1  -3 -10 6945.46 1278.50   4
  -4   3 -10 5831.29 1189.11   2
   4  -1 -10 6026.18 1054.15   2
  -1  -3 -10 6567.14 1310.08   2
   4  -1 -10 7478.80 1436.42   1
  -3   4  -7 5968.77 937.536   4
  -1  -3  -7 8331.69 1074.39   4
  -4   3  -7 6116.57 945.679   4
  -1  -3  -7 6919.07 1044.26   3
  -4   3  -7 7074.00 884.006   1
  -3   4  -7 6381.41 854.623   2
   1  -4  -7 6394.46 1035.65   3
   3   1  -7 7337.82 1015.23   1
   1  -4  -7 7088.63 918.005   4
   3   1  -7 6770.76 796.617   2
   4  -1  -7 8329.39 1096.12   1
  -4   3  -7 6580.21 924.026   2
   1  -4  -7 5126.17 996.827   2
  -3   4  -7 7535.56 888.957   1
   4  -1  -7 8938.26 891.332   2
   4  -1  -7 6460.73 817.848   4
  -1  -3  -7 6118.85 951.439   2
   3   1  -7 7189.26 873.964   4
  -4   3  -4 3643.31 893.544   3
  -3   4  -4 3135.26 851.016   3
   3   1  -4 3222.31 469.253   2
  -3   4  -4 3067.69 542.075   1
   4  -1  -4 2701.52 706.966   3
  -4   3  -4 2786.96 730.607   4
  -4   3  -4 2204.33 547.681   1
   4  -1  -4 3366.16 562.048   2
   1  -4  -4 3959.90 683.061   4
  -1  -3  -4 2805.62 595.720   3
  -3   4  -4 2256.77 576.227   2
   4  -1  -4 3345.98 719.228   1
  -1  -3  -4 3958.99 832.612   2
   1  -4  -4 3512.81 776.097   2
  -3   4  -4 3042.47 629.328   4
   1  -4  -4 2854.88 576.618   3
  -4   3  -4 2924.46 649.545   2
   3   1  -4 2280.58 673.007   1
   3   1  -4 2950.77 795.427   3
   4  -1  -4 2992.08 510.468   4
  -1  -3  -4 1960.08 623.714   4
  -1  -3  -1 1614.22 485.006   2
   1  -4  -1 1243.18 348.371   1
  -3   4  -1 1485.39 489.821   3
   1  -4  -1 1475.75 387.448   4
  -1  -3  -1 1555.71 375.238   1
   4  -1  -1 1436.39 328.798   1
  -1  -3  -1 1091.77 400.585   4
  -3   4  -1 1504.09 260.880   1
   1  -4  -1 2007.87 513.900   2
  -4   3  -1 1221.02 449.773   3
   3   1  -1 1083.77 371.772   1
   1  -4   2 9945.99 472.317   2
   4  -1   2 10657.8 736.184   3
   4  -1   2 10188.6 600.885   4
  -4   3   2 9531.80 534.240   2
  -1  -3   2 9863.73 572.484   1
   3   1   2 9318.14 603.092   2
   3   1   2 10402.6 646.237   3
  -3   4   2 10837.6 530.490   4
   3   1   2 11289.6 616.317   4
  -1  -3   2 9946.78 759.684   3
   4  -1   2 9379.96 604.285   2
  -4   3   2 10060.7 409.218   4
  -1  -3   2 9317.77 360.862   2
   1  -4   2 10477.7 785.133   3
   1  -4   2 9194.66 495.994   1
  -3   4   2 9773.04 598.349   2
   1  -4   5 14821.5 965.928   4
   3   1   5 13060.0 1051.68   3
   1  -4   5 15119.2 903.745   2
  -1  -3   5 17046.3 956.043   4
  -3   4   5 14822.8 1079.61   2
  -1  -3   5 16019.2 830.796   2
  -3   4   5 15529.3 947.300   4
  -1  -3   5 13806.6 1245.59   3
  -3   4   5 14179.3 962.134   3
   1  -4   5 14911.0 1278.64   3
   4  -1   5 14585.6 1006.25   4
  -4   3   5 15066.2 1045.06   2
   3   1   5 14425.3 1031.58   4
   3   1   5 15422.9 1097.21   2
   4  -1   5 13206.7 1122.06   3
  -4   3   5 15725.7 880.227   4
   4  -1   5 16551.1 1124.66   2
  -1  -3   8 7593.78 1207.57   3
   1  -4   8 7090.46 1217.18   3
  -4   3   8 5632.12 991.611   3
  -3   4   8 6516.23 963.514   3
   3   1   8 6977.37 1088.21   3
  -1  -3   8 6513.61 914.983   2
   4  -1   8 5867.02 1097.91   3
   3   1  11 1412.71 1039.30   3
  -1  -3  11 788.704 1137.13   3
   1  -4  11-694.460 1053.49   3
   4  -1  11 821.384 1083.03   3
   0  -4 -11 471.604 1007.95   4
   4   0 -11 869.005 1234.20   1
  -4   4 -11 2197.17 1038.62   2
  -4   4 -11-1360.76 1041.57   1
   0  -4 -11-189.959 1126.46   2
   0  -4 -11 523.038 1187.58   1
   4   0 -11 227.399 850.267   2
   4   0  -8 34110.6 1640.30   4
   0  -4  -8 31135.9 1857.91   2
   4   0  -8 32274.2 1513.14   2
  -4   4  -8 34167.3 1710.36   1
  -4   4  -8 35284.0 1888.41   4
   4   0  -8 31161.2 1814.04   1
   0  -4  -8 29375.5 1839.10   3
  -4   4  -8 33189.6 1765.03   2
   0  -4  -8 33803.6 1862.72   4
  -4   4  -5-181.362 587.373   2
   0  -4  -5 803.000 662.274   4
  -4   4  -5 17.7121 682.499   4
   0  -4  -5-483.071 751.621   2
   4   0  -5-673.217 734.017   1
   4   0  -5-508.226 831.371   3
   0  -4  -5 161.535 537.610   3
   4   0  -5-443.380 479.212   4
  -4   4  -5-695.380 775.921   3
  -4   4  -5 156.349 558.321   1
   4   0  -5 70.8114 487.577   2
   0  -4  -2 62604.0 1309.11   4
  -4   4  -2 63989.5 861.867   1
   0  -4  -2 65371.7 1486.55   2
   4   0  -2 63962.0 1314.25   1
  -4   4   1 427.363 281.235   4
   4   0   1 257.412 382.079   2
   4   0   1 244.164 282.064   1
   0  -4   1 401.933 475.288   3
   4   0   1 117.594 431.279   3
   0  -4   1-498.719 360.025   1
   4   0   1-153.296 329.120   4
   0  -4   4 5946.11 993.117   3
   4   0   4 6184.85 834.282   2
   0  -4   4 4994.49 641.472   1
   4   0   4 5205.55 717.593   4
  -4   4   4 6879.87 668.636   4
  -4   4   4 6594.36 789.213   2
   0  -4   4 6465.32 677.519   4
   0  -4   4 5305.45 560.487   2
   4   0   4 6167.45 887.376   3
   0  -4   7-187.384 571.711   2
  -4   4   7-234.182 614.347   3
   0  -4   7-472.930 822.735   3
   4   0   7-226.324 739.792   3
   4   0  10 20383.8 1777.79   3
   0  -4  10 18377.9 1769.63   3
   5  -5 -11 1184.52 1083.37   2
  -5   0 -11 583.243 1067.15   1
   0   5 -11-88.8077 1075.95   1
   0   5 -11-45.5459 856.055   2
  -5   0 -11 389.632 1011.45   4
   5  -5 -11 640.091 958.261   4
  -5   0 -11-160.233 1009.08   2
   5  -5 -11-180.450 1262.57   1
   5  -5  -8 524.651 840.103   3
   0   5  -8 2022.04 895.239   1
  -5   0  -8 4825.32 1056.56   4
  -5   0  -8 799.007 809.799   2
   0   5  -8 1675.33 679.205   2
   5  -5  -8 2534.88 908.594   4
   5  -5  -8 2889.89 1107.55   1
   5  -5  -8 1247.39 894.307   2
   5  -5  -5-200.922 570.976   3
   0   5  -5 811.242 867.726   3
  -5   0  -5 874.543 747.752   3
   5  -5  -5 63.2676 713.433   2
  -5   0  -5-807.408 703.175   2
   5  -5  -5-222.508 530.909   4
   0   5  -5-60.9301 616.831   1
  -5   0  -5-323.815 770.883   4
  -5   0  -2 85374.8 1818.70   3
  -5   0  -2 86747.5 1630.87   4
   0   5  -2 84017.8 1470.27   1
   0   5  -2 86926.0 1963.30   3
   5  -5  -2 85206.3 1225.40   4
  -5   0  -2 82514.2 1625.34   2
  -5   0  -2 84390.3 1278.86   1
   5  -5  -2 83266.8 1569.74   2
   0   5   1-172.123 425.983   1
  -5   0   1-5.74043 334.306   1
   5  -5   1-246.357 496.722   3
   0   5   1 49.2109 227.831   3
   0   5   1 428.751 429.483   4
   0   5   1-69.2839 424.365   2
   0   5   4 25515.1 898.463   3
  -5   0   4 28000.0 846.005   2
  -5   0   4 25108.8 1175.45   1
   5  -5   4 26528.6 1186.30   2
   5  -5   4 24061.8 1467.11   3
   0   5   4 25519.7 1215.13   4
   5  -5   4 27870.6 1241.14   4
  -5   0   4 26224.8 881.487   4
   0   5   4 29279.5 1453.41   2
   0   5   7 197.976 592.137   3
  -5   0   7 185.958 592.746   2
  -5   0   7-265.346 520.386   4
   5  -5   7-478.062 883.401   3
   0   5  10 11537.1 1240.75   3
   5  -5  10 12413.8 1603.91   3
   1   4  -9 19658.1 1672.93   1
   4  -5  -9 17271.4 1529.26   2
   4  -5  -9 18594.0 1765.75   1
  -4  -1  -9 14347.4 1485.95   2
  -5   1  -9 18441.6 1701.91   4
  -4  -1  -9 16606.7 1668.86   4
  -4  -1  -9 19511.2 1628.04   1
  -5   1  -9 19499.9 1567.22   1
   1   4  -9 17050.5 1294.25   2
   5  -4  -9 19533.3 1504.01   4
  -1   5  -9 17937.6 1520.38   1
   5  -4  -9 20020.0 1541.10   2
   5  -4  -9 18983.3 1704.36   1
   4  -5  -9 16046.0 1452.38   4
  -1   5  -9 16036.4 1301.29   2
  -5   1  -9 20951.3 1691.84   2
   5  -4  -6 17052.4 1192.22   3
   5  -4  -6 18187.2 1319.80   1
   5  -4  -6 19179.2 1104.86   4
   1   4  -6 16825.5 1154.24   1
  -5   1  -6 16631.8 1232.34   4
  -5   1  -6 18346.2 1285.31   2
  -4  -1  -6 18895.1 1331.78   2
   4  -5  -6 18329.2 1147.30   4
   4  -5  -6 16162.7 1110.14   3
  -1   5  -6 18678.8 1160.73   1
   5  -4  -6 19394.3 1168.34   2
   1   4  -6 17702.8 935.873   2
  -5   1  -6 19092.3 1476.71   3
   4  -5  -6 18397.4 1227.22   2
  -4  -1  -6 19294.1 1319.30   4
  -1   5  -6 17716.8 1011.24   2
  -4  -1  -6 17429.1 1360.78   3
   5  -4  -3 46159.8 1209.71   3
  -5   1  -3 47791.9 1402.94   2
   4  -5  -3 44925.6 1368.36   2
   4  -5  -3 45375.2 1138.48   4
   5  -4  -3 48244.0 1277.17   2
   1   4  -3 49206.4 1663.33   3
   4  -5  -3 47471.8 1031.80   3
   1   4  -3 47810.7 1283.86   1
   5  -4  -3 48282.5 1031.29   4
  -5   1  -3 47035.7 1391.85   4
  -5   1  -3 46541.9 1547.29   3
  -4  -1  -3 46548.9 1407.26   2
  -1   5  -3 48528.8 1770.36   3
  -1   5  -3 48315.8 1208.13   1
  -4  -1  -3 45577.8 1412.77   3
  -1   5   0 4014.37 448.293   2
   1   4   0 3773.50 467.780   1
   5  -4   0 4687.05 557.831   3
  -5   1   0 4506.15 367.074   2
  -5   1   0 4278.86 331.641   1
  -1   5   0 4916.52 448.824   1
   4  -5   0 4775.82 500.426   3
   1   4   0 5147.99 462.264   2
  -4  -1   0 4508.28 354.040   4
  -4  -1   0 5002.84 364.624   2
   1   4   0 4643.06 445.194   4
  -4  -1   0 4650.79 456.291   1
  -1   5   0 4254.19 453.990   4
  -1   5   0 4602.29 438.078   3
   1   4   0 4614.73 476.554   3
   4  -5   0 4859.97 331.676   1
  -5   1   0 4644.63 313.229   4
   4  -5   3 126479. 1627.58   1
   5  -4   3 131912. 2140.30   2
  -5   1   3 130656. 2157.65   1
   5  -4   3 123781. 2126.65   4
  -5   1   3 125783. 1389.39   4
  -1   5   3 116798. 1293.35   3
   4  -5   3 130001. 2157.73   4
  -4  -1   3 127174. 1556.31   4
   4  -5   3 124529. 2552.77   3
  -4  -1   3 127924. 2093.56   1
  -4  -1   3 125564. 1197.96   2
  -5   1   3 128642. 1411.72   2
   4  -5   3 129289. 2016.60   2
  -1   5   3 131341. 2094.73   4
  -1   5   3 126457. 2298.85   2
   1   4   3 124514. 1677.54   3
   5  -4   3 126024. 2562.54   3
   1   4   3 127911. 2168.33   4
   1   4   3 128002. 2304.58   2
  -5   1   6 12866.6 818.019   4
   4  -5   6 13435.6 977.041   2
   5  -4   6 12514.2 1224.17   3
   4  -5   6 12528.1 1287.41   3
  -4  -1   6 12782.9 1213.69   3
  -1   5   6 11710.4 860.179   3
  -5   1   6 13502.7 919.675   2
  -4  -1   6 12594.1 857.690   4
   1   4   6 13056.3 951.291   3
  -4  -1   6 13309.4 856.596   2
   4  -5   9 28370.9 2073.66   3
  -1   5   9 28943.9 1651.34   3
   1   4   9 29992.4 1704.63   3
  -4  -1   9 27283.9 1942.83   3
   5  -4   9 27882.5 2045.53   3
   3  -5 -10 16851.5 1840.36   1
  -3  -2 -10 13857.7 1576.97   4
  -2   5 -10 16548.8 1557.09   1
  -3  -2 -10 15729.4 1660.35   2
   3  -5 -10 14487.1 1509.44   4
   2   3 -10 12234.0 1227.66   2
   5  -3 -10 15436.3 1464.46   4
  -5   2 -10 14713.6 1490.65   1
  -5   2 -10 12936.7 1576.17   2
  -2   5 -10 14565.5 1413.63   2
   3  -5 -10 14633.8 1605.26   2
   5  -3 -10 14923.6 1413.21   2
   5  -3 -10 16696.9 1760.00   1
   2   3 -10 16366.5 1647.59   1
  -5   2 -10 14449.0 1605.18   4
  -3  -2 -10 16070.2 1698.52   1
  -2   5  -7 28435.2 1398.48   2
  -2   5  -7 26079.3 1402.09   1
   5  -3  -7 26771.5 1401.42   2
   3  -5  -7 24827.3 1461.18   3
  -5   2  -7 27067.2 1607.48   2
   5  -3  -7 27564.8 1692.37   3
   5  -3  -7 28269.4 1682.31   1
  -5   2  -7 28240.2 1660.09   4
   3  -5  -7 24954.3 1451.27   4
   5  -3  -7 26434.2 1397.61   4
  -3  -2  -7 24522.1 1663.29   3
  -5   2  -7 29566.8 1483.53   1
   2   3  -7 26735.7 1215.70   2
  -3  -2  -7 28081.1 1660.94   2
   3  -5  -7 28053.2 1626.35   2
   2   3  -7 26703.0 1543.10   1
  -3  -2  -7 28993.1 1689.66   4
  -5   2  -4 8386.89 912.253   4
   3  -5  -4 7427.58 644.559   3
   3  -5  -4 8899.36 990.714   2
   5  -3  -4 8040.09 880.561   3
   5  -3  -4 7626.23 650.489   4
   2   3  -4 7204.32 539.819   2
  -3  -2  -4 5683.10 844.958   4
  -3  -2  -4 7761.13 952.456   2
   5  -3  -4 8143.09 832.620   2
   5  -3  -4 7264.95 889.906   1
  -2   5  -4 7711.68 734.173   1
  -3  -2  -4 6378.61 811.554   3
   2   3  -4 8960.96 1060.80   3
  -2   5  -4 8078.15 739.359   2
  -5   2  -4 7799.09 864.426   2
   2   3  -4 7845.59 834.537   1
  -2   5  -4 7653.51 1005.07   3
   3  -5  -4 8611.84 791.121   4
  -5   2  -4 6553.45 940.299   3
   3  -5  -1 27928.7 784.856   4
  -3  -2  -1 27366.5 827.694   4
   2   3  -1 27086.7 959.236   3
  -2   5  -1 25823.2 980.756   3
  -3  -2  -1 27259.5 800.633   1
  -5   2  -1 26671.8 807.791   2
   5  -3  -1 27056.5 733.538   1
  -2   5  -1 27186.3 724.779   1
   3  -5  -1 24220.2 559.312   3
   3  -5  -1 26398.8 931.213   2
  -5   2  -1 27880.4 766.777   4
  -3  -2  -1 27494.0 880.919   2
  -5   2  -1 25045.8 1018.00   3
   5  -3   2 53529.3 1253.05   2
  -5   2   2 48385.7 616.990   4
   3  -5   2 48271.9 1465.25   3
   5  -3   2 49229.3 1472.97   3
  -2   5   2 52451.1 1316.30   2
   2   3   2 49310.9 1044.76   3
  -5   2   2 50565.0 878.054   2
   2   3   2 52946.8 1325.34   2
   3  -5   2 50880.5 900.166   1
  -2   5   2 52784.8 1155.17   4
   2   3   2 47613.8 1179.70   4
  -3  -2   2 51481.2 1163.19   1
   5  -3   2 52721.9 1219.53   4
   3  -5   5 7620.78 761.882   2
  -2   5   5 6411.21 745.545   4
   3  -5   5 7486.71 1087.49   3
  -3  -2   5 6921.43 990.266   3
   5  -3   5 5660.65 1004.91   3
  -3  -2   5 5917.77 608.281   4
  -3  -2   5 7402.38 647.168   2
   5  -3   5 5847.19 876.295   2
   5  -3   5 7039.75 820.527   4
   2   3   5 6731.32 1000.37   2
   2   3   5 6596.16 772.716   4
  -5   2   5 6853.37 635.702   4
   3  -5   5 7735.44 788.853   4
   2   3   5 7450.22 803.641   3
  -2   5   5 5847.83 898.800   2
  -2   5   5 6553.52 679.471   3
  -5   2   5 6631.10 734.693   2
   3  -5   8 25940.5 1824.05   3
  -3  -2   8 25919.2 1403.44   2
  -2   5   8 28472.4 1535.05   3
   5  -3   8 24816.1 1790.73   3
   2   3   8 26304.7 1585.87   3
  -3  -2   8 26707.0 1846.92   3
  -5   2   8 21576.0 1362.56   2
   3  -5  11 1816.61 1166.82   3
   2   3  11 2647.44 1035.13   3
  -3  -2  11 971.849 1176.93   3
   5  -3  11 954.305 1107.47   3
  -5   3 -11 863.500 1001.36   2
  -5   3 -11 4119.99 1175.66   1
  -2  -3 -11 1516.80 1198.00   4
  -2  -3 -11 3974.02 1341.04   1
  -3   5 -11 1747.07 1124.67   1
   5  -2 -11 200.123 1160.94   1
  -3   5 -11 2551.49 1045.69   2
   2  -5 -11 2691.26 1164.94   2
   3   2 -11 1928.98 860.518   2
  -2  -3 -11 1524.04 1242.27   2
   2  -5 -11 4645.11 1417.79   1
   5  -2 -11 1692.41 872.753   2
   3   2 -11 2255.19 1239.05   1
   2  -5 -11 1118.64 1174.90   4
  -2  -3  -8 29695.5 1849.28   2
  -2  -3  -8 27085.5 1890.97   3
   5  -2  -8 29574.4 1535.73   4
   2  -5  -8 31072.8 1784.53   4
   3   2  -8 29333.2 1386.24   2
  -3   5  -8 28022.2 1572.33   2
  -5   3  -8 30678.0 1849.76   4
   5  -2  -8 29095.9 1797.63   1
  -2  -3  -8 26080.0 1733.01   4
   5  -2  -8 28833.6 1513.00   2
   3   2  -8 29930.2 1768.95   1
  -5   3  -8 32214.1 1655.81   1
   2  -5  -8 27842.2 1756.73   2
  -5   3  -8 29446.7 1773.41   2
  -3   5  -8 31392.1 1674.51   1
   2  -5  -8 25704.0 1700.70   3
   2  -5  -5 7958.73 891.539   4
  -2  -3  -5 7820.33 929.210   4
   2  -5  -5 7462.18 972.135   2
  -2  -3  -5 8251.40 1045.12   2
  -5   3  -5 8852.72 1123.63   3
   2  -5  -5 7379.08 752.744   3
  -3   5  -5 8300.03 776.845   1
   3   2  -5 7756.19 594.273   2
  -5   3  -5 8458.82 763.944   1
  -2  -3  -5 8289.03 866.121   3
   5  -2  -5 7530.01 910.227   1
   5  -2  -5 8553.09 750.268   4
   3   2  -5 7930.01 896.767   1
  -3   5  -5 8811.51 1186.06   3
   5  -2  -5 8763.28 970.277   3
  -3   5  -5 6678.77 761.579   2
  -5   3  -5 9865.55 988.990   4
   5  -2  -5 8998.33 793.801   2
   3   2  -5 7796.25 1085.82   3
  -5   3  -5 8779.76 940.602   2
   5  -2  -2 46107.7 870.921   2
  -2  -3  -2 47950.7 1011.77   3
   3   2  -2 50144.1 1409.37   3
  -3   5  -2 48182.3 869.636   1
  -2  -3  -2 45363.0 1241.63   2
   2  -5  -2 46891.3 1298.81   2
  -3   5  -2 48663.1 1472.85   3
  -2  -3  -2 47711.0 1147.03   1
  -5   3  -2 47398.2 1181.57   4
  -5   3  -2 47678.6 1493.86   3
   2  -5  -2 44479.4 1071.88   4
  -5   3  -2 47387.2 1190.70   2
  -2  -3  -2 45849.0 1179.78   4
   5  -2  -2 45237.7 1137.81   1
   5  -2  -2 44361.1 624.593   4
   3   2   1 27890.2 797.877   4
   5  -2   1 27421.8 817.248   2
  -3   5   1 25781.6 564.882   3
   3   2   1 26585.2 774.150   1
  -3   5   1 27904.3 775.401   4
  -3   5   1 27550.4 900.219   2
   2  -5   1 28407.4 720.275   1
   5  -2   1 25225.0 1021.64   3
   3   2   1 25530.1 811.777   3
  -2  -3   1 25985.4 497.429   2
   3   2   1 26408.3 830.710   2
   2  -5   1 27156.5 959.275   3
   5  -2   1 25812.9 748.258   4
  -2  -3   1 24502.1 789.808   1
   2  -5   4 5963.72 635.322   1
  -2  -3   4 6580.95 637.192   4
  -2  -3   4 6249.94 536.098   2
  -2  -3   4 6013.80 751.585   1
   5  -2   4 5795.25 910.391   3
  -3   5   4 5543.33 696.838   4
   2  -5   4 5301.77 976.542   3
   5  -2   4 5057.52 756.373   4
   2  -5   4 5471.47 629.301   2
   5  -2   4 6250.10 846.283   2
  -5   3   4 5589.72 550.753   4
   3   2   4 6655.01 883.443   2
  -2  -3   4 6258.80 994.148   3
  -3   5   4 6446.04 860.394   2
   2  -5   4 6705.64 747.908   4
   3   2   4 7063.57 817.903   4
   3   2   4 6400.77 774.806   3
  -5   3   4 6137.44 688.055   2
   2  -5   7 22930.2 1273.60   2
   3   2   7 22826.4 1441.71   3
  -5   3   7 22990.3 1340.89   2
   5  -2   7 24138.3 1608.47   3
  -5   3   7 20344.2 1132.43   4
  -3   5   7 24596.7 1318.06   3
   2  -5   7 24296.2 1680.24   3
  -2  -3   7 25837.1 1229.35   2
  -2  -3   7 24452.6 1658.32   3
   2  -5  10 13299.7 1635.43   3
  -2  -3  10 13380.1 1598.20   3
   3   2  10 12380.1 1394.58   3
   5  -2  10 12172.0 1585.52   3
   5  -1  -9 32002.4 1665.42   2
   1  -5  -9 32663.9 1997.08   4
  -5   4  -9 33126.0 1991.08   4
  -1  -4  -9 29301.2 1949.90   2
   4   1  -9 32340.4 1606.19   2
  -5   4  -9 31197.3 1913.15   2
   5  -1  -9 33202.1 2056.08   1
  -5   4  -9 31017.5 1753.70   1
  -1  -4  -9 31399.8 2018.96   4
   5  -1  -9 29171.8 1675.20   4
   4   1  -9 34498.8 2055.82   1
  -4   5  -9 35251.8 1858.35   1
   1  -5  -9 31071.5 1974.34   2
  -4   5  -9 32838.7 1842.08   2
   1  -5  -6 15769.1 1252.69   2
   5  -1  -6 15247.2 1161.78   1
   1  -5  -6 14579.2 1063.63   3
   1  -5  -6 13907.0 1113.45   4
  -5   4  -6 14580.1 1134.64   4
  -1  -4  -6 14678.9 1224.44   2
   4   1  -6 14774.9 1165.89   1
  -5   4  -6 14625.3 988.193   1
  -4   5  -6 13466.3 1002.83   2
   5  -1  -6 14606.8 919.536   2
  -5   4  -6 15647.6 1136.33   2
  -1  -4  -6 13876.8 1117.37   4
  -1  -4  -6 14593.0 1095.38   3
   5  -1  -6 15194.4 1246.48   3
  -4   5  -6 14351.5 963.039   1
   5  -1  -6 13935.0 906.661   4
   4   1  -6 14745.7 845.088   2
  -1  -4  -3 138964. 1807.18   3
   4   1  -3 121446. 2067.01   1
   4   1  -3 139332. 2555.60   3
  -4   5  -3 135048. 1665.04   1
   5  -1  -3 133926. 2180.43   1
  -5   4  -3 130796. 2198.27   4
  -5   4  -3 133967. 2187.25   2
   1  -5  -3 134309. 2400.09   2
  -4   5  -3 136772. 2819.96   3
   1  -5  -3 130617. 1432.68   3
   5  -1  -3 134622. 1466.43   4
   5  -1  -3 129481. 1543.25   2
  -1  -4  -3 132531. 2218.24   4
   5  -1  -3 136417. 2430.88   3
  -5   4  -3 137932. 2824.06   3
   4   1  -3 131543. 1217.05   2
  -1  -4  -3 134603. 2377.29   2
  -5   4  -3 136070. 1588.92   1
   1  -5  -3 133248. 2126.78   4
   5  -1   0 5348.59 392.228   2
   1  -5   0 5704.08 460.560   3
  -1  -4   0 4748.36 509.498   1
  -1  -4   0 5375.03 514.966   4
   5  -1   0 4662.09 368.709   1
   4   1   0 5269.96 362.451   4
   1  -5   0 5679.35 512.557   2
   1  -5   0 5497.43 477.076   1
  -1  -4   0 5124.78 485.444   2
   4   1   0 5826.96 398.298   2
   5  -1   0 5810.62 322.117   4
   1  -5   0 5037.74 496.063   4
  -4   5   0 5987.12 517.327   3
   4   1   0 5252.46 494.464   1
  -5   4   0 5325.04 563.522   3
   1  -5   3 47990.6 1180.15   1
   1  -5   3 52473.8 1111.47   2
   5  -1   3 53579.7 1484.14   2
  -5   4   3 51362.4 1232.17   2
  -1  -4   3 51808.7 923.796   2
   5  -1   3 48330.5 1574.31   3
   1  -5   3 53642.3 1698.75   3
   4   1   3 51069.8 1423.26   4
  -4   5   3 50828.5 1372.45   2
   5  -1   3 50511.8 1400.70   4
   4   1   3 50240.6 1445.91   3
  -4   5   3 54299.5 1198.91   4
  -5   4   3 51320.0 1025.05   4
  -1  -4   3 51298.9 1623.99   3
  -1  -4   3 49431.8 1265.56   1
   4   1   3 52768.6 1513.19   2
  -5   4   6 17360.6 1120.41   2
   4   1   6 16015.4 1174.48   3
  -4   5   6 17249.2 1047.02   4
   1  -5   6 17341.2 988.920   2
   1  -5   6 15529.1 1298.02   3
   5  -1   6 19253.4 1340.43   3
  -1  -4   6 18207.8 956.185   2
  -1  -4   6 17625.2 1385.13   3
  -1  -4   6 16983.6 1050.64   4
  -4   5   6 16532.0 1198.35   2
  -5   4   6 16776.2 961.600   4
  -1  -4   9 11993.9 1510.57   3
   4   1   9 15973.4 1494.26   3
   1  -5   9 12846.7 1568.98   3
   5  -1   9 12890.9 1481.63   3
   0  -5 -10 10838.1 1531.24   2
   0  -5 -10 14037.4 1560.41   4
   5   0 -10 12145.2 1578.22   1
  -5   5 -10 10006.0 1260.38   1
   5   0 -10 10610.5 1163.86   2
  -5   5 -10 9731.95 1285.82   2
  -5   5  -7 773.402 714.001   4
   0  -5  -7 102.353 774.731   4
   0  -5  -7-11.8191 677.790   3
  -5   5  -7-322.327 741.783   2
   5   0  -7-525.354 774.953   1
   5   0  -7 141.013 513.690   2
  -5   5  -7-105.687 645.018   1
   0  -5  -7-1037.66 790.634   2
   5   0  -4 28976.0 1440.15   3
   0  -5  -4 27035.1 1426.16   2
   0  -5  -4 28102.4 1285.73   4
   5   0  -4 28759.7 862.705   2
  -5   5  -4 24534.9 1576.41   3
   0  -5  -4 29358.1 1016.85   3
   5   0  -4 25870.2 1276.32   1
  -5   5  -4 27304.8 1245.23   2
  -5   5  -4 27902.5 996.833   1
   0  -5  -1-551.651 431.032   1
   5   0  -1-15.8636 180.830   2
   0  -5  -1 9.90605 478.693   2
  -5   5  -1-47.2829 459.276   3
   0  -5  -1 570.189 438.472   4
   5   0  -1 441.538 403.078   1
   0  -5   2 80890.1 1825.10   3
   5   0   2 78300.0 1740.69   3
  -5   5   2 82433.3 1486.51   2
   5   0   2 86276.6 1589.91   4
   0  -5   2 80599.6 1404.65   1
  -5   5   2 82275.6 1218.37   4
   5   0   2 82898.0 1642.41   2
   0  -5   5 587.775 480.261   2
  -5   5   5 13.8753 640.959   2
   5   0   5 591.509 731.496   3
   0  -5   5 1091.64 568.939   1
   0  -5   5 29.1448 531.784   4
   0  -5   5-708.014 812.517   3
  -5   5   5-44.3698 474.527   4
   5   0   5-58.4005 556.355   4
   5   0   5 1096.48 688.440   2
   5   0   8 2243.97 933.047   3
   0  -5   8 1529.48 700.220   2
   0  -5   8 1267.53 909.480   3
   5   0  11-2099.67 1093.74   3
   0  -5  11-1018.68 1172.71   3
   6  -6  -9 266.260 831.601   4
   6  -6  -9 124.561 882.534   2
   0   6  -9-1125.76 948.363   1
  -6   0  -9-1442.13 918.448   4
   6  -6  -9-472.575 1090.29   1
  -6   0  -9 132.968 963.604   2
   6  -6  -6 30316.1 1423.62   3
  -6   0  -6 28768.5 1743.89   3
  -6   0  -6 29185.9 1600.40   4
   6  -6  -6 28749.2 1320.72   4
   0   6  -6 30946.0 1417.34   1
   6  -6  -6 30101.5 1482.23   2
  -6   0  -6 29539.1 1599.80   2
   6  -6  -3-401.311 388.697   4
  -6   0  -3-158.274 568.787   2
  -6   0  -3 212.617 534.958   3
  -6   0  -3-103.223 564.180   4
   0   6  -3 224.949 506.390   1
   6  -6  -3-101.685 589.563   2
  -6   0  -3-149.262 402.269   1
   0   6  -3-153.442 660.898   3
  -6   0   0 6357.92 421.551   2
   0   6   0 6590.76 556.330   1
   6  -6   0 6627.26 619.568   3
  -6   0   0 5980.02 442.499   1
  -6   0   0 6607.04 382.837   4
   0   6   0 6462.92 545.424   4
   0   6   0 6872.26 544.852   2
   0   6   0 6633.80 527.237   3
   6  -6   3-554.462 713.596   3
  -6   0   3 420.316 247.337   4
   0   6   3-747.394 525.698   4
   0   6   3 200.915 637.663   2
   6  -6   3-99.9225 457.469   4
   0   6   3 72.4454 215.304   3
  -6   0   3 319.313 454.257   1
   6  -6   3-109.956 479.606   2
   6  -6   6 34794.8 1914.36   3
  -6   0   6 36640.3 1208.86   2
   0   6   6 38190.5 1322.54   3
  -6   0   6 33748.8 1197.25   4
   6  -6   9 1575.02 1216.43   3
   0   6   9-66.5972 737.726   3
  -6   1 -10-1375.99 957.235   1
  -5  -1 -10 641.856 1053.99   1
   6  -5 -10-911.400 1130.95   1
   5  -6 -10-571.286 991.942   4
   1   5 -10 748.051 776.449   2
   6  -5 -10 137.143 902.670   2
   1   5 -10 2113.26 1201.39   1
   6  -5 -10 2564.23 1001.10   4
  -5  -1 -10 442.836 1030.89   4
  -1   6 -10 611.174 994.928   1
   5  -6 -10 2286.47 1313.31   1
  -6   1 -10-435.522 979.579   2
   5  -6 -10 1873.88 1078.86   2
  -6   1 -10 833.160 1006.63   4
  -5  -1 -10 230.310 1118.23   2
  -6   1  -7 17920.1 1431.41   4
  -5  -1  -7 21847.2 1508.48   4
   1   5  -7 18325.3 1300.14   1
  -6   1  -7 21192.7 1497.88   2
   6  -5  -7 18916.6 1228.45   4
  -5  -1  -7 17488.0 1535.23   3
   5  -6  -7 19056.9 1383.83   2
  -5  -1  -7 19380.2 1478.93   2
   5  -6  -7 20124.6 1315.90   4
  -1   6  -7 19119.7 1297.35   1
   1   5  -7 18359.2 1048.92   2
   6  -5  -7 19406.3 1520.86   1
   5  -6  -7 19643.0 1332.95   3
   6  -5  -7 17893.4 1265.30   2
   6  -5  -7 18831.2 1399.45   3
   6  -5  -4-431.882 470.827   4
  -1   6  -4 339.943 880.402   3
  -1   6  -4 526.271 633.346   1
  -6   1  -4 61.8794 743.053   2
   1   5  -4 309.747 695.310   1
   5  -6  -4 78.7281 500.135   3
   1   5  -4-302.168 829.486   3
  -5  -1  -4 1359.71 811.606   2
   6  -5  -4 795.952 621.514   3
  -6   1  -4 137.840 714.341   3
  -6   1  -4 542.204 713.344   4
  -5  -1  -4-118.953 698.240   3
   6  -5  -4 169.713 748.687   2
   5  -6  -4 463.918 873.225   2
   5  -6  -4 388.699 594.375   4
  -5  -1  -4 1067.29 755.546   4
  -1   6  -1 90003.2 1500.73   1
  -1   6  -1 94092.3 1836.70   3
  -5  -1  -1 92966.2 1367.40   1
   1   5  -1 95619.9 1579.82   1
  -6   1  -1 90618.8 1545.75   2
   1   5  -1 93672.8 1762.49   3
  -5  -1  -1 91309.7 1532.82   2
   6  -5  -1 91895.2 1121.25   4
   5  -6  -1 91946.6 1457.33   3
  -6   1  -1 94431.5 1888.70   3
   5  -6  -1 95869.1 1645.07   2
  -6   1  -1 94743.3 1440.54   4
   6  -5  -1 91359.2 1645.96   3
  -5  -1  -1 89692.8 1459.97   4
   5  -6  -1 94879.1 1369.85   4
  -6   1  -1 94864.6 1148.85   1
  -1   6   2 1416.03 474.569   2
   6  -5   2 1940.42 379.041   4
   6  -5   2 1643.53 416.672   2
   6  -5   2 1674.02 538.471   3
  -1   6   2 1828.68 438.462   4
  -6   1   2 1741.07 396.292   1
   1   5   2 1050.45 450.916   2
  -5  -1   2 1574.83 366.687   1
   1   5   2 1804.74 455.517   4
   5  -6   2 1610.13 241.379   1
   5  -6   2 982.929 500.967   3
   1   5   2 1728.61 281.794   3
   5  -6   5 17991.6 1047.91   2
  -5  -1   5 18371.5 798.036   2
   1   5   5 16427.1 1143.88   4
   1   5   5 14999.9 1196.01   2
  -6   1   5 16903.0 807.568   4
   6  -5   5 17276.3 1115.91   4
  -1   6   5 16927.2 1308.36   2
   5  -6   5 16904.0 1115.75   4
  -1   6   5 19284.9 1127.11   4
  -1   6   5 18829.5 843.989   3
   6  -5   5 16014.8 1373.53   3
   1   5   5 16034.0 897.646   3
  -5  -1   5 16378.3 806.272   4
   5  -6   5 15242.0 1299.48   3
  -6   1   5 16329.3 811.267   2
   6  -5   5 15758.2 1067.83   2
  -5  -1   8 1130.95 752.511   2
  -1   6   8 1088.55 672.236   3
  -6   1   8 1279.90 701.125   2
   1   5   8 839.356 713.109   3
   5  -6   8 731.095 1033.22   3
   6  -5   8 736.634 1025.71   3
   6  -5  11 4123.85 1336.56   3
   5  -6  11 2469.36 1214.57   3
   1   5  11 3393.22 1036.32   3
  -1   6  11 2873.83 1022.88   3
  -6   2 -11 4578.67 1176.59   1
  -6   2 -11 4517.87 1315.50   2
  -2   6 -11 7308.83 1312.71   1
   4  -6 -11 4958.14 1392.93   1
   2   4 -11 5310.29 1354.82   1
   2   4 -11 4430.85 975.128   2
   4  -6 -11 4689.76 1249.22   2
   4  -6 -11 6522.81 1370.69   4
   6  -4 -11 5437.16 1197.61   2
  -4  -2 -11 5126.04 1354.34   2
   6  -4 -11 3483.84 1081.81   4
   6  -4 -11 5886.93 1526.71   1
  -6   2 -11 4884.13 1288.68   4
  -4  -2 -11 6522.92 1373.11   1
  -4  -2 -11 4590.26 1466.67   4
   6  -4  -8 701.018 878.835   1
  -6   2  -8 462.874 736.883   1
   2   4  -8-1096.58 890.743   1
   4  -6  -8 550.123 793.206   3
  -4  -2  -8 1045.45 920.492   2
   4  -6  -8 1329.26 797.605   4
  -6   2  -8 79.8039 794.405   2
  -2   6  -8 1808.48 889.484   1
  -4  -2  -8 706.744 861.286   4
   4  -6  -8 768.499 907.338   2
   6  -4  -8 1101.30 802.855   2
  -6   2  -8 1190.98 877.309   4
   2   4  -8 1000.20 607.384   2
   6  -4  -8 96.1788 696.285   4
  -2   6  -8 1059.00 700.414   2
   6  -4  -5 25557.7 1315.20   3
  -4  -2  -5 24783.4 1396.59   2
  -4  -2  -5 26913.2 1462.77   4
   6  -4  -5 26017.5 1247.81   2
   4  -6  -5 24601.6 1377.55   2
  -4  -2  -5 24275.0 1370.35   3
   2   4  -5 22957.7 1606.38   3
   6  -4  -5 25647.4 1066.31   4
   2   4  -5 24862.7 1266.51   1
  -2   6  -5 23837.8 1558.20   3
   4  -6  -5 27035.6 1131.13   3
   4  -6  -5 24525.3 1172.17   4
  -2   6  -5 24089.1 1150.53   1
   2   4  -5 25599.5 902.831   2
  -6   2  -5 23939.0 1531.66   3
  -6   2  -5 24216.0 1352.84   2
  -6   2  -5 25648.9 1396.00   4
   6  -4  -5 24383.6 1364.21   1
  -4  -2  -2 41537.3 1236.39   2
   6  -4  -2 39300.9 679.401   4
   2   4  -2 39003.3 1100.46   1
  -6   2  -2 39586.8 1144.22   4
   2   4  -2 40815.7 1369.87   3
   4  -6  -2 39628.2 735.551   3
  -6   2  -2 40555.9 1389.54   3
   6  -4  -2 42726.2 1040.14   2
   4  -6  -2 40090.3 1247.35   2
  -2   6  -2 41124.7 1458.35   3
  -4  -2  -2 38858.3 1144.83   3
  -4  -2  -2 40256.0 1040.03   1
  -6   2  -2 40756.9 756.924   1
   4  -6  -2 39850.6 1015.25   4
  -2   6  -2 42121.1 975.166   1
  -6   2  -2 39400.0 1191.68   2
  -4  -2  -2 40872.9 1156.93   4
  -6   2   1 32041.9 838.696   1
   6  -4   1 33734.2 945.368   2
   4  -6   1 35649.2 726.819   1
   2   4   1 35318.1 1000.20   4
  -4  -2   1 32690.7 721.061   4
   4  -6   1 31193.0 1097.07   3
  -2   6   1 31698.1 1023.38   2
  -2   6   1 31967.8 979.593   1
  -2   6   1 33341.1 976.816   4
   6  -4   1 31567.4 865.004   4
   6  -4   1 32883.7 1210.39   3
   2   4   1 31550.0 1023.93   2
   2   4   1 32248.8 959.048   1
  -4  -2   1 31619.5 924.421   1
  -4  -2   4 14051.0 635.678   2
   6  -4   4 14228.4 1018.87   4
  -2   6   4 14200.4 947.197   4
   2   4   4 14142.7 1045.89   4
  -4  -2   4 13940.4 1250.99   3
  -4  -2   4 14932.0 992.284   1
   4  -6   4 13496.3 950.969   4
   4  -6   4 13475.2 783.094   1
   4  -6   4 15087.3 910.884   2
   4  -6   4 13495.0 1230.21   3
   2   4   4 13917.6 1174.08   2
   6  -4   4 12569.8 1226.63   3
   6  -4   4 14473.2 1024.71   2
  -6   2   4 14734.4 765.193   2
  -2   6   4 14030.5 1104.14   2
  -4  -2   4 13312.7 745.661   4
  -2   6   4 14386.3 654.581   3
   2   4   4 12708.1 812.907   3
  -6   2   4 15411.0 668.144   4
  -2   6   7 29891.0 1333.35   3
  -4  -2   7 26538.1 1709.57   3
   4  -6   7 28608.8 1867.30   3
  -6   2   7 27163.9 1220.27   4
   2   4   7 29217.7 1422.50   3
   6  -4   7 32739.0 1899.03   3
  -6   2   7 28268.7 1316.68   2
  -4  -2   7 29470.2 1247.13   2
  -4  -2   7 26818.4 1279.40   4
  -2   6  10 1453.29 848.489   3
   2   4  10-146.541 851.314   3
   6  -4  10 70.1364 1118.14   3
   4  -6  10 1270.23 1176.80   3
   3   3  -9 649.773 1076.13   1
   6  -3  -9 1100.86 788.918   4
  -6   3  -9 60.4577 934.491   2
   3   3  -9 1161.70 708.812   2
   6  -3  -9-10.4068 760.547   2
   3  -6  -9-1244.59 974.046   2
  -3  -3  -9 703.842 956.076   4
  -3  -3  -9-682.088 975.330   2
  -6   3  -9-165.793 861.216   4
   3  -6  -9 234.583 909.609   4
   6  -3  -9 600.681 1049.24   1
  -3   6  -9 53.1771 814.919   2
  -3   6  -9-631.121 894.790   1
  -6   3  -9-1071.03 864.983   1
  -6   3  -6 44627.4 1818.57   2
   3   3  -6 41205.3 1260.59   2
  -3  -3  -6 45988.6 1882.12   3
  -3  -3  -6 39173.9 1802.18   4
   6  -3  -6 42954.5 1493.02   2
  -3   6  -6 43553.4 1562.73   1
   6  -3  -6 41273.6 1812.43   3
   3   3  -6 43051.5 1763.91   1
  -3   6  -6 37854.6 1471.37   2
   3  -6  -6 40884.6 1780.62   2
  -6   3  -6 44651.8 1891.81   4
   6  -3  -6 43700.3 1471.93   4
   3  -6  -6 42033.3 1685.70   4
   3  -6  -6 43531.4 1591.68   3
  -6   3  -6 41483.8 1511.54   1
  -3  -3  -6 41445.3 1832.95   2
   6  -3  -6 42387.0 1811.91   1
   3  -6  -3 6425.47 614.871   4
  -6   3  -3 6744.93 829.652   3
  -3  -3  -3 7130.07 627.354   3
   3  -6  -3 7268.01 381.159   3
  -3  -3  -3 5758.93 714.863   2
  -6   3  -3 7836.99 709.851   2
   3   3  -3 7523.24 851.377   3
  -3  -3  -3 7094.35 638.470   1
   3   3  -3 6487.18 653.078   1
  -3   6  -3 7382.74 536.364   1
   3  -6  -3 6930.26 769.523   2
  -6   3  -3 7897.98 715.030   4
  -3   6  -3 6747.76 787.630   3
   6  -3  -3 7220.49 660.963   1
  -3  -3  -3 6891.34 699.147   4
   6  -3  -3 7084.15 583.031   2
   6  -3  -3 7333.19 426.776   4
   3   3   0 195988. 1842.25   2
   3  -6   0 196269. 2186.77   2
   3  -6   0 185276. 2003.06   3
   6  -3   0 188183. 1308.68   1
  -6   3   0 185531. 1355.12   1
  -3   6   0 191672. 1849.21   1
   3  -6   0 192848. 1854.86   1
  -3  -3   0 195975. 2100.88   1
   3   3   0 193894. 1879.01   4
  -6   3   0 190883. 2467.43   3
   3   3   0 189454. 2085.46   1
  -3  -3   0 190381. 1784.25   2
  -3   6   0 193308. 2138.01   3
   3  -6   0 188555. 2014.14   4
   6  -3   0 200069. 1562.13   4
   6  -3   0 192580. 2549.04   3
  -3  -3   0 192556. 1878.00   4
   3   3   3 7225.81 739.200   2
  -3  -3   3 6611.74 324.557   2
  -3   6   3 7182.31 622.118   4
   3  -6   3 6921.65 526.150   1
  -3   6   3 5838.19 700.336   2
  -3  -3   3 7593.70 656.968   1
   6  -3   3 7165.42 674.856   2
   3  -6   3 5685.95 740.949   3
  -6   3   3 7809.03 419.591   4
   3   3   3 6652.25 630.509   3
   6  -3   3 6395.74 783.858   3
   3   3   3 7089.63 666.757   4
   6  -3   3 7499.12 675.785   4
  -3  -3   3 6877.05 808.276   3
   3  -6   3 7027.44 551.049   2
  -6   3   3 7402.74 516.193   2
  -3   6   6 31972.1 1431.36   4
  -3  -3   6 37606.7 1240.73   2
   3  -6   6 35253.2 1817.09   3
   6  -3   6 32357.5 1806.09   3
  -3  -3   6 35884.2 1340.26   4
  -6   3   6 33822.5 1353.26   2
   3   3   6 34238.3 1494.40   3
   3  -6   6 35327.1 1370.65   2
  -6   3   6 34080.3 1222.62   4
  -3   6   6 36660.2 1297.29   3
  -3  -3   6 29294.8 1715.56   3
  -3  -3   9-50.7198 970.127   3
   3   3   9-45.0930 818.634   3
   6  -3   9 325.307 939.501   3
   3  -6   9-186.820 986.389   3
   2  -6 -10 1262.16 1050.92   2
  -2  -4 -10-224.316 1107.25   2
   4   2 -10-1286.60 1225.50   1
   2  -6 -10 2710.08 1340.98   1
   2  -6 -10 1685.89 1177.15   4
  -4   6 -10 1223.00 965.734   1
  -4   6 -10 193.048 928.847   2
   4   2 -10 2751.40 849.835   2
  -6   4 -10 320.454 1002.08   2
  -2  -4 -10 1596.50 1007.07   4
   6  -2 -10 1690.89 1169.16   1
  -6   4 -10 1017.27 886.686   1
  -6   4 -10 1076.29 1074.18   4
   6  -2 -10 1021.30 812.429   2
   4   2  -7 31250.8 1659.57   1
  -2  -4  -7 31200.2 1777.69   2
  -2  -4  -7 29930.7 1676.71   3
   2  -6  -7 30419.9 1557.58   3
  -4   6  -7 31881.8 1542.02   2
   2  -6  -7 30315.9 1730.57   2
  -6   4  -7 27876.3 1637.56   4
   6  -2  -7 32242.5 1731.17   1
   6  -2  -7 31808.8 1381.32   2
  -6   4  -7 32655.2 1717.95   2
  -4   6  -7 31433.4 1481.37   1
   4   2  -7 32288.2 1259.76   2
   6  -2  -7 32984.4 1438.79   4
   2  -6  -7 30626.7 1644.30   4
  -6   4  -7 31490.9 1447.47   1
  -2  -4  -7 32227.2 1756.17   4
   4   2  -4 14883.8 1086.02   1
  -6   4  -4 13525.8 1236.08   3
   2  -6  -4 13965.6 726.453   3
   2  -6  -4 13494.6 987.606   4
  -2  -4  -4 14427.3 887.534   3
   6  -2  -4 13956.1 1121.43   3
  -6   4  -4 13320.0 763.727   1
  -6   4  -4 12978.7 1049.52   2
  -4   6  -4 13316.5 800.527   1
   4   2  -4 14115.1 587.691   2
   6  -2  -4 15373.8 727.184   4
  -6   4  -4 14913.5 1048.49   4
  -2  -4  -4 12287.7 996.278   4
  -2  -4  -4 13711.4 1148.29   2
   4   2  -4 13722.6 1217.67   3
   2  -6  -4 12714.7 1204.72   2
  -4   6  -4 15637.5 1330.11   3
   6  -2  -4 14594.0 1134.38   1
   6  -2  -4 13178.9 785.406   2
  -6   4  -1 32216.3 1232.22   3
  -4   6  -1 34806.3 1198.76   3
   2  -6  -1 33287.5 1081.63   2
  -4   6  -1 32898.2 709.268   1
  -2  -4  -1 34509.4 955.977   4
   2  -6  -1 34066.2 966.414   1
   2  -6  -1 32923.3 976.079   4
   6  -2  -1 32578.8 837.577   1
   4   2  -1 32409.4 922.549   1
  -2  -4  -1 32884.9 1036.57   2
  -2  -4  -1 32769.5 943.832   1
   4   2   2 38694.7 1167.63   3
   4   2   2 38043.0 1125.40   4
  -2  -4   2 40271.7 1086.46   1
  -2  -4   2 37772.2 1306.39   3
   6  -2   2 40207.7 1115.20   4
  -4   6   2 39883.6 1145.57   2
   4   2   2 40890.1 1204.01   2
   2  -6   2 39569.0 937.817   1
   6  -2   2 41243.3 1188.41   2
   6  -2   2 36696.6 1332.87   3
  -4   6   2 38933.6 1003.76   4
   4   2   2 38050.5 1018.19   1
  -6   4   2 37702.9 677.837   4
   2  -6   2 38119.6 1330.97   3
   6  -2   5 23743.4 1309.29   2
   2  -6   5 25123.5 1047.86   2
   2  -6   5 23516.8 1193.70   4
  -6   4   5 24619.6 1127.85   2
   4   2   5 22307.4 1340.20   2
   2  -6   5 24077.8 1529.23   3
   4   2   5 22810.4 1266.57   3
  -4   6   5 26575.0 1171.67   4
  -2  -4   5 23114.3 1073.96   4
   6  -2   5 22774.9 1452.76   3
   4   2   5 24696.1 1281.96   4
  -4   6   5 23734.9 1320.42   2
  -6   4   5 26575.1 1010.40   4
   2  -6   5 24054.4 1107.09   1
  -2  -4   5 24638.4 1579.08   3
  -2  -4   5 25309.2 925.408   2
   6  -2   5 24208.0 1292.86   4
  -2  -4   5 23604.9 1209.89   1
   6  -2   8-273.807 948.162   3
  -2  -4   8 428.689 885.361   3
   4   2   8 912.026 822.521   3
  -2  -4   8 80.4160 666.039   2
   2  -6   8-239.912 950.860   3
   6  -2  11 5187.18 1249.78   3
   2  -6  11 4725.77 1426.52   3
  -2  -4  11 2744.71 1323.71   3
   4   2  11 4468.87 1175.52   3
  -6   5 -11 1232.36 995.035   2
   6  -1 -11 1843.46 901.676   2
   5   1 -11 3757.01 1366.57   1
   5   1 -11 3080.76 924.018   2
   6  -1 -11 1332.59 1212.67   1
   1  -6 -11 1817.68 1158.25   2
  -6   5 -11 3046.68 1079.92   1
  -5   6 -11 4127.69 1206.94   2
  -1  -5 -11 4218.16 1443.32   1
  -1  -5 -11 2217.36 1233.74   4
   1  -6 -11 4412.90 1413.53   1
   1  -6 -11 2559.00 1223.43   4
  -1  -5 -11 3350.54 1346.76   2
  -5   6 -11 2760.93 1046.03   1
   6  -1  -8 338.621 656.309   2
  -6   5  -8-537.380 868.922   2
   1  -6  -8 966.092 807.351   4
   5   1  -8 25.8492 910.514   1
   1  -6  -8 1194.83 999.091   2
  -6   5  -8 1284.20 974.484   4
   5   1  -8-42.7594 583.166   2
   6  -1  -8 469.501 895.092   1
  -6   5  -8 406.124 712.709   1
  -5   6  -8 568.789 749.082   1
  -1  -5  -8 109.409 884.571   2
   1  -6  -8 243.560 814.230   3
  -1  -5  -8 468.757 799.525   3
  -1  -5  -8 576.763 860.682   4
  -5   6  -8-164.790 744.734   2
  -5   6  -5 14262.5 1409.92   3
   1  -6  -5 15378.4 1087.74   4
   5   1  -5 17931.6 753.155   2
  -6   5  -5 16660.6 1148.56   4
  -5   6  -5 16480.9 930.857   1
   1  -6  -5 16943.1 879.687   3
   1  -6  -5 15587.0 1214.00   2
  -1  -5  -5 15667.3 1236.60   2
  -5   6  -5 15548.6 1017.73   2
  -6   5  -5 15447.0 877.240   1
  -1  -5  -5 16889.1 1165.51   4
  -6   5  -5 15590.1 1389.35   3
   5   1  -5 15256.6 1101.05   1
   6  -1  -5 15092.0 799.127   4
  -6   5  -5 17204.5 1108.94   2
   5   1  -5 17176.8 1313.86   3
   6  -1  -5 15080.0 1115.72   1
   6  -1  -5 16692.4 830.142   2
  -1  -5  -5 16820.7 1001.91   3
   6  -1  -5 14480.4 1248.33   3
   1  -6  -2 1859.95 483.184   1
  -5   6  -2 2665.98 275.723   1
   1  -6  -2 2717.70 598.181   2
  -5   6  -2 2696.00 593.591   3
  -1  -5  -2 2766.05 611.164   2
  -6   5  -2 3270.26 608.922   3
  -1  -5  -2 2398.95 474.232   4
   1  -6  -2 2273.95 472.164   4
   6  -1  -2 1823.14 421.145   1
  -6   5  -2 2430.49 193.609   1
   6  -1  -2 2924.32 275.178   2
   5   1  -2 2496.46 459.856   1
  -1  -5  -2 1842.95 467.369   1
   5   1   1 95452.5 1391.33   1
   5   1   1 97836.8 1492.20   4
   1  -6   1 100198. 1533.07   1
   6  -1   1 97839.8 1593.33   2
   6  -1   1 94882.5 1152.27   1
  -1  -5   1 91435.1 1791.19   3
   5   1   1 93988.8 1804.77   3
  -5   6   1 95190.8 1405.93   3
   6  -1   1 96534.3 1433.52   4
   6  -1   1 96690.3 1943.70   3
  -1  -5   1 98137.6 1576.23   1
  -1  -5   1 91802.9 1463.72   4
  -5   6   1 96845.5 1364.40   4
  -1  -5   1 93416.6 1246.25   2
   5   1   1 95987.0 1626.31   2
   1  -6   1 91372.7 1734.32   3
   5   1   4 39.6863 676.634   3
   6  -1   4 1230.84 663.276   4
  -6   5   4 1142.01 502.148   4
   1  -6   4 680.436 448.409   2
  -1  -5   4 537.882 386.972   2
  -1  -5   4 993.331 926.468   3
  -1  -5   4-150.212 491.656   4
   1  -6   4-273.903 545.913   4
   1  -6   4 1222.80 920.949   3
  -6   5   4 523.753 617.428   2
  -5   6   4 58.6237 710.322   2
  -1  -5   4 623.140 582.997   1
  -5   6   4 134.439 519.689   4
   5   1   4 1024.40 662.615   4
   6  -1   4 232.048 657.797   2
   6  -1   4 607.481 757.068   3
   1  -6   4 866.392 577.537   1
   5   1   4 1952.86 785.949   2
  -6   5   7 15212.4 1170.27   2
   1  -6   7 15552.3 1055.76   2
   1  -6   7 20282.3 1638.32   3
   5   1   7 17400.2 1410.99   3
  -1  -5   7 17134.8 1530.75   3
   6  -1   7 18395.2 1443.57   3
  -6   5   7 17257.9 1068.79   4
  -1  -5   7 18877.3 1083.82   2
   6  -1  10 344.442 936.091   3
  -1  -5  10 321.784 1088.80   3
   1  -6  10-205.826 1066.41   3
   5   1  10-177.137 970.048   3
  -6   6  -9-217.662 775.711   1
  -6   6  -9 848.786 941.088   2
   6   0  -9 576.372 715.838   2
   0  -6  -9 1072.56 1017.73   2
   0  -6  -9 1026.55 1006.63   4
   6   0  -9 145.038 1033.51   1
   0  -6  -6 44040.9 1837.03   4
   6   0  -6 48160.8 1330.52   2
   6   0  -6 44981.2 1855.94   1
   0  -6  -6 44386.5 1604.72   3
   0  -6  -6 44064.3 1990.96   2
  -6   6  -6 45543.6 1473.05   1
  -6   6  -6 44354.0 1752.28   2
   0  -6  -3-140.076 597.697   4
   0  -6  -3-110.796 476.502   1
  -6   6  -3 634.144 672.855   3
   0  -6  -3 60.5614 211.290   3
   0  -6  -3-682.307 790.014   2
   6   0  -3-145.088 609.615   3
   6   0  -3 94.0941 203.192   2
   6   0  -3-193.027 550.911   1
  -6   6  -3 403.022 311.501   1
  -6   6   0 3975.02 539.204   3
   0  -6   0 3004.35 468.765   1
   6   0   0 3393.53 425.476   1
   0  -6   0 3113.52 452.462   3
   0  -6   0 2193.22 451.113   4
   0  -6   0 3015.88 511.796   2
   6   0   0 3143.24 327.148   4
   6   0   0 3032.09 377.909   2
   0  -6   3 333.875 684.212   3
  -6   6   3-113.345 377.723   4
   6   0   3 374.320 545.786   2
  -6   6   3-409.712 506.121   2
   0  -6   3 4.59125 309.390   2
   6   0   3 117.408 509.164   4
   6   0   3-314.193 594.931   3
   0  -6   3 288.487 418.911   1
  -6   6   6 29106.7 1225.82   4
  -6   6   6 26550.1 1350.08   2
   0  -6   6 29525.2 1710.98   3
   6   0   6 27107.4 1545.49   3
   0  -6   6 28769.2 1168.81   2
   0  -6   9-939.012 1202.75   3
   6   0   9 1106.16 1050.61   3
  -7   0 -10 35788.5 2151.79   1
   7  -7 -10 40140.8 2577.24   1
   7  -7 -10 35966.1 2128.19   2
   0   7 -10 35581.8 2158.75   1
  -7   0 -10 37613.2 2410.89   4
  -7   0 -10 35562.0 2327.88   2
   7  -7 -10 36615.4 2062.46   4
  -7   0  -7-65.8212 801.335   4
   7  -7  -7 750.293 618.417   4
   7  -7  -7 748.338 817.257   2
  -7   0  -7 718.545 873.721   2
   7  -7  -7 154.607 746.670   3
   0   7  -7-53.9361 730.443   1
  -7   0  -4 11083.8 1120.16   3
  -7   0  -4 12499.9 847.183   1
   7  -7  -4 14401.4 837.131   4
   7  -7  -4 13255.0 1111.75   2
   7  -7  -4 11314.4 796.810   3
  -7   0  -4 12533.6 1080.84   2
   0   7  -4 13034.8 1373.26   3
  -7   0  -4 12232.2 1012.46   4
   0   7  -4 12842.8 990.476   1
   7  -7  -1 261.584 316.889   4
  -7   0  -1 27.5506 327.940   1
   0   7  -1 113.800 444.589   1
  -7   0  -1 428.591 409.505   2
   0   7  -1 18.4505 464.199   3
  -7   0  -1-270.836 333.755   4
   7  -7  -1-238.867 391.480   3
   0   7   2 41682.1 1319.22   1
   7  -7   2 40107.4 605.509   1
  -7   0   2 37506.7 583.544   4
   0   7   2 39850.8 1415.28   2
   7  -7   2 38720.3 1595.34   3
   0   7   2 43338.9 1330.28   4
   0   7   2 38032.4 723.959   3
  -7   0   2 41333.6 1182.70   1
  -7   0   5 10.6070 372.723   4
   0   7   5 442.340 397.705   3
  -7   0   5 174.332 339.850   2
   7  -7   5 711.126 534.923   2
   7  -7   5 599.306 836.297   3
  -7   0   8 36876.7 1415.40   2
   7  -7   8 40012.1 2341.23   3
   7  -7  11 69.5545 1107.99   3
   0   7  11 662.002 814.288   3
   1   6 -11 9371.49 1487.61   1
  -6  -1 -11 13304.2 1599.96   1
  -7   1 -11 11254.5 1629.60   2
   7  -6 -11 10458.8 1432.03   2
  -7   1 -11 11042.7 1496.05   1
   7  -6 -11 11228.6 1443.61   4
   6  -7 -11 11938.1 1572.90   4
  -1   7 -11 9864.87 1532.07   1
   6  -7 -11 11212.4 1729.74   1
  -6  -1 -11 10284.3 1586.50   4
  -7   1 -11 11149.2 1612.91   4
   6  -7 -11 8619.41 1413.20   2
  -6  -1 -11 8156.34 1590.85   2
   7  -6 -11 10475.7 1743.81   1
   6  -7  -8 5716.46 1126.65   2
  -7   1  -8 7022.77 1206.17   2
  -6  -1  -8 4673.27 1068.26   2
   7  -6  -8 5203.16 910.810   4
  -7   1  -8 5792.89 1146.38   4
  -1   7  -8 6816.61 1150.59   1
   6  -7  -8 4046.78 928.813   3
  -6  -1  -8 4905.67 1097.00   4
   7  -6  -8 4578.63 1044.79   2
   7  -6  -8 5089.14 1207.24   1
   6  -7  -8 5133.72 964.200   4
   1   6  -8 4812.89 1067.22   1
  -6  -1  -5 11829.5 1117.44   3
   6  -7  -5 13959.1 895.493   3
  -6  -1  -5 14166.9 1167.42   4
  -6  -1  -5 12838.4 1127.68   2
  -7   1  -5 15815.3 1194.06   2
   7  -6  -5 13132.0 969.857   3
  -1   7  -5 11923.1 957.899   1
   7  -6  -5 12814.7 1064.21   2
  -7   1  -5 13092.7 1247.44   3
   6  -7  -5 16095.6 1220.46   2
   6  -7  -5 13555.0 908.841   4
   7  -6  -5 12970.7 855.700   4
   1   6  -5 14785.3 1066.85   1
  -7   1  -5 12821.3 1097.83   4
  -6  -1  -2 1406.81 406.269   4
  -7   1  -2 1155.68 504.255   3
  -7   1  -2 1635.13 477.802   4
  -1   7  -2 1450.83 574.499   3
   6  -7  -2 1724.30 421.851   4
  -1   7  -2 1958.18 463.294   1
  -7   1  -2 2301.31 361.301   1
   1   6  -2 2203.89 631.427   3
   6  -7  -2 1623.71 528.965   2
   7  -6  -2 1670.84 473.732   2
  -7   1  -2 1698.59 444.604   2
   6  -7  -2 2497.22 403.857   3
  -6  -1  -2 1549.74 384.160   1
   1   6  -2 1617.85 476.083   1
  -6  -1  -2 2273.12 570.128   2
   7  -6  -2 1606.49 320.503   4
  -6  -1  -2 2120.77 519.408   3
  -1   7   1 25194.4 980.516   1
   1   6   1 25784.9 957.082   1
  -6  -1   1 23893.9 525.286   2
   6  -7   1 23087.2 1100.63   3
   1   6   1 27358.4 987.515   4
  -6  -1   1 24557.2 579.751   4
   7  -6   1 22242.8 1141.14   3
   6  -7   1 26910.4 590.457   1
  -1   7   1 25178.6 664.135   3
  -7   1   1 25313.7 823.756   1
  -1   7   1 26977.1 956.545   4
  -6  -1   1 24460.7 846.305   1
   1   6   1 26080.0 1000.07   2
  -1   7   1 23871.8 976.529   2
  -1   7   4 10348.7 1173.55   2
   7  -6   4 9606.60 1111.62   3
   1   6   4 12928.2 1053.99   4
  -6  -1   4 10005.4 439.769   2
  -1   7   4 9796.98 492.629   3
   6  -7   4 12077.7 938.059   2
   7  -6   4 12041.4 966.435   2
  -7   1   4 12014.7 957.364   1
   7  -6   4 12237.9 955.603   4
  -7   1   4 12903.7 592.667   4
  -6  -1   4 11950.8 646.943   4
  -7   1   4 11444.0 592.610   2
  -6  -1   4 9650.07 891.778   1
   1   6   4 12572.7 682.428   3
  -1   7   4 12814.7 993.575   4
   6  -7   4 11329.9 938.379   4
   6  -7   4 10296.3 1182.26   3
   1   6   4 12491.4 1144.19   2
  -6  -1   7 8840.01 795.052   2
   6  -7   7 5540.16 1138.03   3
   1   6   7 10510.4 933.078   3
  -1   7   7 10519.3 863.081   3
  -7   1   7 7261.63 705.236   4
  -6  -1   7 8552.35 780.131   4
   7  -6   7 7785.94 1261.69   3
  -7   1   7 7981.29 749.129   2
   6  -7  10 2031.77 1168.66   3
  -1   7  10 3050.14 850.273   3
   7  -6  10 3723.18 1262.95   3
   1   6  10 2611.01 892.261   3
   5  -7  -9 10090.4 1557.22   1
  -7   2  -9 10594.5 1451.69   4
  -2   7  -9 7878.39 1175.33   1
  -7   2  -9 7242.48 1267.20   2
   7  -5  -9 9107.04 1459.12   1
   7  -5  -9 6715.11 1136.00   2
  -5  -2  -9 7724.56 1351.45   2
   2   5  -9 6907.45 1236.73   1
   5  -7  -9 7078.64 1186.83   4
  -5  -2  -9 7133.87 1285.41   4
  -7   2  -9 9394.48 1227.89   1
   5  -7  -9 8797.56 1329.11   2
   7  -5  -9 7051.47 1054.12   4
  -5  -2  -6 23135.7 1539.57   3
   7  -5  -6 27174.5 1539.27   1
   7  -5  -6 26425.6 1319.17   2
  -7   2  -6 25841.1 1495.78   4
  -5  -2  -6 27166.8 1554.15   4
  -7   2  -6 26417.7 1522.56   2
   2   5  -6 24201.2 1346.35   1
   7  -5  -6 26784.1 1203.80   4
   7  -5  -6 26801.9 1458.07   3
  -2   7  -6 25730.0 1291.77   1
   5  -7  -6 25843.8 1246.82   3
   5  -7  -6 25171.9 1319.15   4
  -5  -2  -6 24489.2 1543.97   2
   5  -7  -6 27529.6 1518.05   2
  -7   2  -3 74839.4 1877.14   2
   2   5  -3 78028.2 1758.55   1
   2   5  -3 79693.4 2201.27   3
   5  -7  -3 75412.3 1923.48   2
  -2   7  -3 75216.5 1549.51   1
  -5  -2  -3 76865.9 1938.29   2
  -7   2  -3 75075.1 2132.72   3
  -5  -2  -3 73742.9 1612.16   1
   5  -7  -3 75681.8 1215.71   3
   7  -5  -3 76014.5 1215.69   4
  -7   2  -3 75125.9 1844.00   4
   7  -5  -3 74445.0 1630.39   2
  -7   2  -3 77314.0 1331.75   1
  -5  -2  -3 73461.9 1861.31   3
  -5  -2  -3 72540.4 1832.81   4
  -2   7  -3 79506.5 2347.19   3
   5  -7  -3 73501.5 1558.89   4
  -5  -2   0 163122. 1742.23   2
   5  -7   0 156223. 2173.41   3
  -2   7   0 160284. 2019.28   1
  -5  -2   0 162658. 1959.17   1
  -5  -2   0 160138. 1695.05   4
   7  -5   0 165148. 1316.68   1
  -7   2   0 165215. 1480.11   4
  -7   2   0 166157. 1533.24   1
   2   5   0 164062. 1934.85   2
  -2   7   0 163687. 2071.82   3
   5  -7   0 167326. 1691.98   1
   2   5   0 168984. 2032.10   4
   2   5   0 164533. 2173.86   1
   7  -5   0 165140. 2538.35   3
   7  -5   3 91124.7 2390.53   3
  -2   7   3 95191.7 1941.46   4
   5  -7   3 91990.2 1843.19   2
   7  -5   3 95154.0 2025.02   2
   2   5   3 85572.5 1528.01   3
  -7   2   3 94767.8 1947.50   1
  -7   2   3 84786.8 981.041   4
  -2   7   3 88800.0 2088.85   2
   2   5   3 86972.7 2071.32   2
  -5  -2   3 76384.4 1741.56   1
   5  -7   3 93058.5 1388.37   1
   5  -7   3 91113.4 2397.55   3
   2   5   3 93868.9 1997.45   4
   7  -5   3 93411.6 1988.74   4
   5  -7   3 93934.3 1949.14   4
   7  -5   6 9039.27 1197.83   3
  -7   2   6 8450.80 695.027   4
  -5  -2   6 7939.64 696.198   4
  -2   7   6 7909.07 674.611   3
   5  -7   6 8166.06 856.621   2
  -5  -2   6 8294.11 656.509   2
   2   5   6 8648.32 807.911   3
   5  -7   6 6261.01 1078.39   3
  -7   2   6 8280.74 705.167   2
  -2   7   9 28695.5 1500.77   3
   5  -7   9 28094.7 2092.77   3
   7  -5   9 25832.8 2002.75   3
  -5  -2   9 23103.2 1369.77   2
   2   5   9 27199.8 1623.97   3
   4  -7 -10 3377.44 1368.18   1
  -7   3 -10 4358.87 1064.85   1
  -3   7 -10 4218.19 1127.52   1
   3   4 -10 4422.05 857.648   2
   4  -7 -10 4176.20 1228.92   2
  -7   3 -10 7622.61 1363.30   4
  -7   3 -10 3821.87 1141.24   2
  -4  -3 -10 3376.13 1208.46   2
   3   4 -10 8128.62 1425.81   1
   7  -4 -10 3410.64 938.555   4
   7  -4 -10 4298.19 1008.81   2
  -4  -3 -10 5135.12 1297.81   4
   4  -7 -10 2635.65 1091.15   4
   7  -4 -10 4556.68 1279.47   1
   7  -4  -7 1123.21 867.245   1
  -7   3  -7 1558.60 644.608   1
   4  -7  -7 2060.80 923.565   2
   7  -4  -7 759.240 683.549   2
   4  -7  -7 593.035 717.999   4
  -4  -3  -7 1004.16 814.078   3
   3   4  -7 1060.35 760.604   1
  -7   3  -7 1657.33 926.616   4
   4  -7  -7 664.898 650.171   3
  -7   3  -7 1305.45 729.483   2
   3   4  -7 820.796 494.780   2
   7  -4  -7 1197.50 874.776   3
  -4  -3  -7 548.577 791.001   4
  -4  -3  -7 1114.60 911.188   2
  -3   7  -7 1678.45 710.425   1
   7  -4  -7 1495.39 636.652   4
   3   4  -4 33834.5 1401.44   1
   7  -4  -4 30583.5 1412.81   3
  -3   7  -4 35416.2 1800.94   3
   4  -7  -4 31250.7 941.889   3
  -7   3  -4 32985.0 1458.40   2
  -4  -3  -4 32260.2 1546.09   2
   4  -7  -4 34148.5 1554.19   2
   4  -7  -4 32527.8 1299.92   4
   3   4  -4 31893.3 1658.36   3
  -7   3  -4 31858.3 1656.18   3
   7  -4  -4 33285.8 1455.76   1
  -4  -3  -4 32443.8 1296.99   1
   7  -4  -4 31088.4 1239.50   2
  -4  -3  -4 28868.9 1419.90   4
  -4  -3  -4 31973.2 1403.91   3
  -7   3  -4 31989.4 1467.12   4
   7  -4  -4 32683.3 970.977   4
  -3   7  -4 34342.1 1191.23   1
   3   4  -1 68737.5 1424.76   1
  -3   7  -1 69229.4 1246.10   1
   4  -7  -1 68206.2 1099.50   3
  -3   7  -1 73455.5 1682.92   3
   4  -7  -1 70197.2 1545.89   2
   4  -7  -1 72247.5 1371.96   1
  -4  -3  -1 70307.7 1440.12   2
   3   4  -1 69650.3 966.819   2
  -7   3  -1 67043.7 711.067   1
  -7   3  -1 73366.9 1805.94   3
  -7   3  -1 68047.0 1365.18   2
  -4  -3  -1 68641.8 1336.37   4
   7  -4  -1 70056.5 1171.46   1
   3   4  -1 71497.0 1620.11   3
  -4  -3  -1 70334.3 1357.42   1
   4  -7  -1 68419.7 1356.43   4
  -7   3  -1 72844.3 1298.47   4
   7  -4   2 10371.3 639.751   4
   3   4   2 9746.94 682.056   4
   4  -7   2 9068.22 818.112   3
   3   4   2 10073.0 674.253   1
  -3   7   2 10836.2 776.385   2
  -3   7   2 10286.2 685.188   4
   3   4   2 9957.67 617.288   3
   4  -7   2 9676.39 486.559   1
   3   4   2 9693.13 741.565   2
   7  -4   2 10069.3 706.664   2
  -4  -3   2 8862.52 631.275   1
   7  -4   2 10190.3 856.426   3
   4  -7   5 6202.00 1074.87   3
   4  -7   5 5166.27 769.017   4
   4  -7   5 7306.89 739.496   2
   7  -4   5 6159.13 851.522   2
  -3   7   5 6905.03 821.742   4
  -7   3   5 6205.63 636.469   2
  -4  -3   5 5219.06 982.467   3
  -7   3   5 5853.34 550.598   4
  -3   7   5 5574.29 912.180   2
   3   4   5 6836.95 752.594   3
   7  -4   5 4970.29 951.653   3
  -4  -3   5 7065.67 543.727   2
  -4  -3   5 7273.04 675.472   4
   4  -7   8 8644.14 1301.05   3
  -4  -3   8 6143.70 1174.67   3
  -4  -3   8 7086.53 866.166   2
   7  -4   8 7078.90 1298.43   3
   3   4   8 6924.01 977.159   3
  -7   3   8 6129.57 875.036   2
   3   4  11 2673.31 1046.86   3
   7  -4  11 3918.75 1306.86   3
   4  -7  11 4432.88 1341.08   3
  -3  -4 -11 3854.49 1312.88   1
   3  -7 -11 3687.56 1318.24   2
   7  -3 -11 1249.32 890.319   2
  -3  -4 -11 4295.38 1371.39   2
  -7   4 -11 2500.89 1067.24   1
   4   3 -11 2264.28 834.432   2
   3  -7 -11 2424.04 1329.54   1
   3  -7 -11 4505.63 1272.61   4
  -7   4 -11 2329.70 1107.65   2
  -4   7 -11 4214.05 1184.54   1
   4   3 -11 2410.09 1239.90   1
  -3  -4 -11 1402.64 1269.45   4
   7  -3 -11 4467.30 1416.60   1
   3  -7  -8 9094.63 1090.47   3
  -7   4  -8 9334.62 1168.79   4
  -3  -4  -8 10140.1 1304.78   4
   7  -3  -8 11306.4 1081.72   2
  -7   4  -8 10463.0 1094.60   1
   4   3  -8 8455.79 819.923   2
  -3  -4  -8 10516.1 1357.14   2
   7  -3  -8 8427.83 1241.77   1
  -4   7  -8 9036.16 1003.97   1
   3  -7  -8 10432.9 1340.87   2
   3  -7  -8 9173.23 1212.85   4
   4   3  -8 10871.2 1281.08   1
   7  -3  -8 9722.10 977.568   4
  -3  -4  -8 9945.67 1324.40   3
  -7   4  -8 10046.2 1244.93   2
   3  -7  -5 7650.68 970.280   2
   7  -3  -5 7893.21 636.164   4
  -7   4  -5 6185.43 1085.55   3
   7  -3  -5 5804.94 836.984   1
   3  -7  -5 6720.00 834.867   4
  -7   4  -5 6674.16 899.963   2
   3  -7  -5 8532.51 658.254   3
  -3  -4  -5 7281.75 1009.45   2
  -7   4  -5 6908.58 893.146   4
  -3  -4  -5 7005.80 781.394   3
   4   3  -5 6123.05 916.876   1
   4   3  -5 7678.72 1128.12   3
  -7   4  -5 7297.73 668.482   1
  -4   7  -5 7230.98 721.578   1
   7  -3  -5 8316.35 717.161   2
  -3  -4  -5 6133.04 876.940   4
   7  -3  -5 8025.21 972.491   3
   4   3  -5 6362.26 474.085   2
  -3  -4  -2 14350.4 865.438   2
   4   3  -2 14348.6 771.374   1
  -4   7  -2 14276.1 590.426   1
  -3  -4  -2 13822.7 787.359   4
  -4   7  -2 16194.7 996.548   3
  -7   4  -2 14459.6 1018.44   3
  -3  -4  -2 15326.8 775.126   1
   4   3  -2 10773.1 862.296   3
  -7   4  -2 13813.0 757.247   2
  -7   4  -2 13468.8 354.994   1
   3  -7  -2 13012.7 875.902   2
   7  -3  -2 14702.6 742.535   1
  -7   4  -2 13539.8 751.487   4
   3  -7  -2 14185.8 755.072   4
   7  -3  -2 13982.4 593.654   2
   7  -3   1 72276.2 1437.03   2
  -3  -4   1 66988.1 1227.70   4
   4   3   1 71355.1 1429.85   2
  -3  -4   1 69610.6 1393.97   1
   3  -7   1 65466.2 1556.84   3
   4   3   1 66746.8 1327.60   1
  -4   7   1 72470.5 1508.77   2
  -4   7   1 68031.9 1106.34   3
   7  -3   1 66907.7 1780.13   3
   7  -3   1 68749.3 759.412   1
  -3  -4   1 67808.8 974.095   2
   7  -3   1 71121.6 1288.99   4
   3  -7   1 67766.0 1242.06   1
   4   3   1 70685.6 1363.07   4
  -4   7   1 68208.4 1339.17   4
  -3  -4   4 25996.6 1214.10   1
   3  -7   4 28810.8 1120.61   2
  -7   4   4 27692.5 864.451   4
   4   3   4 26132.2 1235.06   3
  -7   4   4 26110.6 1047.51   2
  -3  -4   4 25712.9 1008.73   4
   3  -7   4 27938.4 1071.74   1
  -3  -4   4 28007.7 765.429   2
  -3  -4   4 27258.1 1522.18   3
  -4   7   4 25786.7 1361.48   2
   3  -7   4 26724.7 1205.87   4
  -4   7   4 25526.0 1168.05   4
   4   3   4 26926.3 1430.58   2
   4   3   4 27818.2 1303.54   4
   7  -3   4 28014.3 1530.44   3
   7  -3   4 25936.1 1294.90   2
   7  -3   4 26768.5 1287.99   4
   3  -7   4 25431.9 1563.26   3
  -7   4   7 1580.74 707.217   2
   4   3   7 814.036 725.296   3
  -7   4   7 375.991 474.757   4
   7  -3   7 161.793 749.010   3
  -3  -4   7-369.931 818.678   3
  -3  -4   7 1160.45 560.733   2
   3  -7   7 1036.34 951.504   3
   7  -3  10 4506.63 1302.03   3
   4   3  10 3435.86 1087.26   3
   3  -7  10 4496.96 1422.89   3
  -3  -4  10 2598.89 1185.01   3
  -5   7  -9 31872.1 1837.16   2
  -7   5  -9 34722.5 1784.17   1
   2  -7  -9 28584.3 1997.93   2
  -7   5  -9 29484.4 1997.89   4
   7  -2  -9 35715.9 2160.12   1
  -2  -5  -9 33029.5 2149.57   2
   7  -2  -9 30802.2 1619.92   2
   2  -7  -9 26187.3 1796.18   3
  -2  -5  -9 31150.9 2079.42   4
  -5   7  -9 34396.1 1793.27   1
   2  -7  -9 30471.7 1969.36   4
  -7   5  -9 30900.6 1928.35   2
   5   2  -9 33026.1 2069.07   1
   5   2  -9 27846.2 1392.50   2
   7  -2  -6 11721.2 833.686   2
   2  -7  -6 11467.1 1016.73   4
  -7   5  -6 12270.3 859.310   1
  -2  -5  -6 10027.2 982.984   3
   7  -2  -6 11177.4 1171.56   3
   5   2  -6 10272.4 657.823   2
   7  -2  -6 9951.09 766.770   4
  -2  -5  -6 11048.4 1158.20   2
   7  -2  -6 8955.61 1067.79   1
  -7   5  -6 11390.7 1139.86   4
  -7   5  -6 10681.1 1012.97   2
   2  -7  -6 11792.0 856.893   3
   5   2  -6 13365.6 1154.91   1
  -5   7  -6 10566.8 854.896   1
  -2  -5  -6 10937.8 1115.56   4
   2  -7  -6 8549.04 1061.97   2
   5   2  -3 100614. 2439.17   3
   7  -2  -3 98739.7 1995.21   1
   2  -7  -3 96120.3 2253.31   2
   7  -2  -3 96444.4 1422.10   2
  -7   5  -3 94890.2 2029.48   2
   2  -7  -3 98394.3 1964.95   4
  -7   5  -3 100371. 2065.54   4
  -2  -5  -3 100285. 2041.10   1
  -7   5  -3 98377.5 1224.73   1
  -7   5  -3 98166.3 2610.18   3
  -2  -5  -3 96006.4 2072.58   4
  -2  -5  -3 95657.0 2243.30   2
  -2  -5  -3 101112. 1601.56   3
   5   2  -3 97017.3 1983.57   1
  -5   7  -3 97677.1 1446.54   1
   2  -7   0 175914. 2207.37   4
   7  -2   0 178171. 1928.56   2
   7  -2   0 180066. 1535.46   4
   5   2   0 171701. 2063.95   1
   2  -7   0 168294. 2027.48   3
   5   2   0 178380. 1871.99   2
   2  -7   0 180369. 2240.16   2
  -2  -5   0 170309. 2123.45   4
  -2  -5   0 171157. 2007.13   2
  -5   7   0 176184. 2339.07   3
  -5   7   0 172572. 1774.99   1
   7  -2   0 169686. 1602.57   1
  -7   5   0 175218. 2531.61   3
   2  -7   0 175508. 2090.44   1
  -2  -5   0 175653. 2241.79   1
   5   2   0 176300. 1813.23   4
   7  -2   0 177919. 2700.27   3
   2  -7   3 74203.8 2107.12   3
   5   2   3 69430.0 1808.68   3
   7  -2   3 71929.0 1744.59   4
   7  -2   3 67228.8 1771.53   2
  -7   5   3 72704.0 1516.39   2
  -2  -5   3 72423.8 1016.07   2
   7  -2   3 66601.3 2044.10   3
   2  -7   3 71646.6 1429.26   2
   5   2   3 75220.1 1811.44   4
  -2  -5   3 71976.5 1642.01   1
   5   2   3 71498.2 1897.11   2
  -5   7   3 73200.0 1520.07   4
   2  -7   3 71994.6 1488.00   1
  -5   7   3 69550.5 1758.87   2
  -7   5   3 72752.6 1166.01   4
   5   2   6 23351.6 1382.69   3
   7  -2   6 22778.5 1563.56   3
  -2  -5   6 22693.9 1157.35   4
  -5   7   6 22428.2 1167.60   4
  -2  -5   6 22409.9 963.554   2
  -7   5   6 22034.3 1028.24   4
   2  -7   6 23229.6 1622.76   3
  -7   5   6 21774.1 1174.47   2
  -2  -5   6 21474.9 1556.45   3
   2  -7   6 22367.0 1122.24   2
   5   2   9 5837.06 1026.02   3
  -2  -5   9 7509.83 1343.35   3
   2  -7   9 5143.91 1284.39   3
   7  -2   9 4273.65 1170.24   3
  -1  -6 -10 3295.74 1173.27   4
   1  -7 -10 2470.95 1132.59   2
  -1  -6 -10 4271.94 1278.28   2
   6   1 -10 4847.28 1297.25   1
  -7   6 -10 5279.14 1102.43   1
   7  -1 -10 3461.36 893.827   2
  -6   7 -10 2392.80 946.216   2
  -6   7 -10 4612.76 1079.10   1
   7  -1 -10 6680.49 1437.78   1
   1  -7 -10 3060.64 1100.92   4
   6   1 -10 1375.38 761.967   2
  -7   6 -10 5087.11 1140.42   2
   1  -7  -7 9397.15 974.587   3
   7  -1  -7 10481.1 1217.51   1
   1  -7  -7 9024.93 1082.16   4
  -6   7  -7 10594.1 1077.13   2
  -1  -6  -7 7307.70 1042.39   4
   6   1  -7 7640.38 716.221   2
  -7   6  -7 8887.41 885.020   1
  -7   6  -7 8231.04 1085.70   2
  -6   7  -7 9514.60 886.159   1
  -1  -6  -7 8878.66 1025.29   3
   6   1  -7 10456.1 1175.63   1
   7  -1  -7 9013.21 807.372   2
   1  -7  -7 9065.60 1217.34   2
  -1  -6  -7 8507.08 1221.28   2
  -1  -6  -4 10093.1 976.488   4
   6   1  -4 9732.08 424.392   2
  -1  -6  -4 10886.3 977.386   1
  -6   7  -4 12231.7 733.591   1
  -7   6  -4 12595.4 1277.20   3
   1  -7  -4 10155.0 548.465   3
   7  -1  -4 11415.8 1123.69   3
   6   1  -4 11486.4 1148.22   3
  -7   6  -4 12069.3 675.330   1
   7  -1  -4 11632.3 621.915   2
   7  -1  -4 9987.24 1003.20   1
  -1  -6  -4 10242.0 1156.85   2
  -6   7  -4 11637.5 1292.69   3
  -7   6  -4 9323.99 906.003   2
   1  -7  -4 12140.8 1215.12   2
   6   1  -4 10515.8 979.156   1
   1  -7  -4 11024.0 951.706   4
  -1  -6  -4 13202.6 738.163   3
   6   1  -1 28145.8 614.188   2
   1  -7  -1 29201.5 1046.23   4
  -6   7  -1 30342.7 1219.84   3
  -6   7  -1 29928.6 612.957   1
   1  -7  -1 29469.8 981.721   1
  -1  -6  -1 28954.3 1006.96   4
   7  -1  -1 27541.5 861.336   1
   1  -7  -1 28748.0 1106.83   2
   6   1  -1 29055.8 633.407   4
   6   1  -1 28541.0 946.502   1
  -1  -6  -1 28849.8 1060.45   2
  -7   6  -1 31407.3 1249.20   3
   7  -1  -1 28889.7 678.459   2
  -1  -6  -1 29154.8 1018.91   1
   6   1   2 990.677 404.005   4
   7  -1   2 1622.68 642.813   3
   7  -1   2 1863.63 330.601   1
   1  -7   2 1534.76 595.850   3
   6   1   2 1969.86 405.847   1
  -1  -6   2 698.128 558.679   3
   7  -1   2 1474.73 483.636   2
   6   1   2 1401.42 483.514   2
  -1  -6   2 1510.12 407.102   1
  -6   7   2 1615.32 472.447   2
  -6   7   2 1179.83 343.180   4
   6   1   2 1258.38 538.437   3
  -7   6   2 1552.55 312.643   4
   7  -1   2 1980.11 448.285   4
   1  -7   2 2048.34 423.989   1
  -6   7   5 15026.1 907.460   4
  -7   6   5 17721.7 1071.85   2
   1  -7   5 15122.9 830.046   2
   7  -1   5 14305.0 1211.61   3
   6   1   5 15797.0 1158.02   3
  -1  -6   5 15371.1 1330.59   3
  -1  -6   5 16109.4 974.427   4
  -6   7   5 15362.8 1081.48   2
   1  -7   5 14704.4 958.657   4
   1  -7   5 16230.0 1321.08   3
  -7   6   5 16001.9 861.227   4
   1  -7   5 15651.2 966.771   1
  -1  -6   5 16620.8 776.698   2
  -1  -6   5 13642.6 1007.69   1
   7  -1   8 6071.75 1117.68   3
   1  -7   8 5368.10 1227.29   3
   6   1   8 5342.58 1041.45   3
  -1  -6   8 4904.14 1254.81   3
  -1  -6   8 5053.25 835.347   2
  -1  -6  11 10800.9 1747.26   3
   6   1  11 10543.2 1497.08   3
   1  -7  11 9517.49 1643.13   3
   7  -1  11 8040.96 1511.06   3
   7   0 -11 2513.93 1411.14   1
  -7   7 -11-599.027 995.894   1
   0  -7 -11 1361.49 1258.58   2
   7   0 -11 455.009 710.045   2
   0  -7 -11 1249.82 1210.42   4
   0  -7  -8 47282.4 2092.73   3
   7   0  -8 47415.9 1575.16   2
   7   0  -8 53606.1 2409.00   1
   0  -7  -8 50618.9 2316.47   4
  -7   7  -8 52255.2 1920.88   1
   0  -7  -8 49734.6 2450.03   2
  -7   7  -8 50816.9 2185.84   2
   0  -7  -5-159.841 401.048   3
   7   0  -5 86.8428 334.584   2
   7   0  -5 1739.99 800.171   3
   0  -7  -5 1218.35 807.505   2
   0  -7  -5-1590.64 722.596   4
   7   0  -5-1597.30 754.128   1
  -7   7  -5 169.951 444.477   1
   7   0  -2 39488.3 1203.86   1
   0  -7  -2 39038.1 1262.87   4
   0  -7  -2 39050.1 1440.20   2
  -7   7  -2 42136.3 1693.89   3
   0  -7  -2 39584.6 1283.29   1
  -7   7  -2 38307.7 636.928   1
   0  -7   1 185.318 339.814   2
   0  -7   1-0.22138 412.095   1
   0  -7   1 292.240 380.083   4
   7   0   1-58.8313 364.022   2
  -7   7   1-137.864 365.420   3
   7   0   1-47.7710 524.395   3
   7   0   1-113.722 324.615   4
   7   0   1 416.668 357.140   1
   0  -7   1 554.439 445.477   3
   7   0   4 11754.5 1120.58   3
   7   0   4 12601.3 1033.68   4
   7   0   4 13283.9 1107.18   2
   0  -7   4 12429.6 679.586   2
   0  -7   4 12143.1 1234.74   3
  -7   7   4 11958.2 956.575   2
  -7   7   4 13850.2 806.660   4
   0  -7   4 13237.2 917.957   1
   0  -7   7 225.166 556.031   2
   7   0   7 724.740 823.514   3
  -7   7   7 190.443 546.772   4
   0  -7   7 1088.29 1020.76   3
   0  -7  10 30778.2 2308.36   3
   7   0  10 31032.4 2043.39   3
   0   8 -11 1521.32 1190.89   1
   8  -8 -11-1352.69 1015.23   2
  -8   0 -11-589.514 1123.75   2
  -8   0 -11 700.525 1017.61   1
  -8   0 -11-910.860 1119.82   4
   8  -8 -11 1902.18 1326.98   1
   8  -8 -11-1079.77 1025.08   4
   8  -8  -8 23970.2 1641.95   3
   8  -8  -8 25578.3 1527.53   4
   0   8  -8 26033.2 1700.72   1
  -8   0  -8 27435.7 1873.99   4
   8  -8  -8 25678.4 1688.48   2
  -8   0  -8 27056.0 1879.43   2
   8  -8  -8 25890.5 1938.18   1
  -8   0  -5-511.118 728.980   3
  -8   0  -5-885.161 740.782   2
  -8   0  -5-800.005 596.973   1
   8  -8  -5-702.037 771.911   2
   8  -8  -5-358.011 487.431   4
  -8   0  -5 1043.92 730.226   4
   0   8  -5-52.7068 661.423   1
   8  -8  -5-410.932 521.678   3
  -8   0  -2 88702.4 2200.73   3
  -8   0  -2 94716.3 2002.49   2
  -8   0  -2 91987.9 1931.13   4
   0   8  -2 91694.7 1883.64   1
   8  -8  -2 90340.9 1872.36   3
   8  -8  -2 89818.6 1537.36   4
  -8   0  -2 90924.3 1562.06   1
   0   8  -2 97958.4 2372.62   3
   8  -8  -2 94889.3 2027.77   2
   0   8   1-380.285 484.299   4
   8  -8   1 108.805 201.211   1
   8  -8   1 56.7662 550.144   3
  -8   0   1-332.099 382.307   1
   0   8   1-328.263 484.896   1
   0   8   1-277.291 332.100   3
   0   8   1-442.172 445.794   2
  -8   0   1-26.3493 220.930   4
   8  -8   4 35548.0 1494.06   4
   8  -8   4 33521.0 1427.81   2
  -8   0   4 34202.7 1440.21   1
  -8   0   4 32083.2 819.308   4
   0   8   4 34384.9 1692.09   2
   8  -8   4 33374.7 1842.70   3
   0   8   4 34635.0 1490.62   4
   8  -8   7-85.3701 988.444   3
  -8   0   7-104.020 453.365   2
   0   8   7 54.1977 500.074   3
  -8   0   7 60.7471 449.067   4
   8  -8  10 24438.0 2144.99   3
   0   8  10 20367.7 1340.17   3
   7  -8  -9 4472.46 1037.65   4
   8  -7  -9 5291.62 1026.42   4
   8  -7  -9 7491.45 1431.95   1
   1   7  -9 6802.29 1224.13   1
  -8   1  -9 6683.53 1291.39   4
  -8   1  -9 4379.45 1107.08   2
   7  -8  -9 5354.21 1206.94   2
  -1   8  -9 5860.52 1161.89   1
  -7  -1  -9 6205.77 1261.02   4
  -7  -1  -9 5829.01 1252.48   2
   7  -8  -9 4044.85 1357.30   1
   8  -7  -9 6114.96 1165.15   2
   1   7  -6 975.953 698.544   1
   7  -8  -6 532.990 567.834   3
   7  -8  -6 435.576 733.811   2
  -1   8  -6-123.863 707.232   1
   8  -7  -6 547.290 695.804   2
   8  -7  -6 502.004 607.534   3
  -8   1  -6 21.5643 683.577   4
  -7  -1  -6 175.018 630.363   1
  -7  -1  -6 194.859 740.504   2
   8  -7  -6 677.685 532.129   4
   7  -8  -6 384.934 560.737   4
  -7  -1  -6-394.412 767.008   3
  -8   1  -6-498.771 690.889   2
  -7  -1  -6-23.0956 711.377   4
  -8   1  -3 5083.46 882.600   3
  -8   1  -3 3198.71 817.195   2
   8  -7  -3 3988.55 842.474   2
  -7  -1  -3 4365.64 810.293   2
  -1   8  -3 4503.30 780.929   1
  -1   8  -3 4523.97 979.881   3
   1   7  -3 3596.66 998.378   3
  -7  -1  -3 3810.16 623.319   1
  -8   1  -3 4020.31 545.173   1
   7  -8  -3 4237.76 636.310   4
   8  -7  -3 4592.29 535.117   4
  -7  -1  -3 3201.03 787.113   3
   7  -8  -3 4500.83 920.540   2
   1   7  -3 5533.45 818.876   1
  -8   1  -3 4304.43 802.476   4
  -7  -1  -3 4045.14 809.077   4
   1   7   0 965.091 440.523   4
  -8   1   0 989.779 267.873   4
  -7  -1   0 1228.22 394.837   1
   8  -7   0 1878.06 568.775   3
  -7  -1   0 899.757 300.920   2
   7  -8   0 1445.65 510.857   3
   1   7   0 1597.51 437.877   3
  -1   8   0 749.391 450.884   1
   7  -8   0 1147.64 271.183   1
  -8   1   0 736.823 306.457   2
   1   7   0 796.030 399.973   2
  -1   8   0 965.758 433.951   4
   1   7   0 1320.12 518.091   1
  -7  -1   0 1586.49 313.987   4
  -1   8   0 887.461 404.370   3
  -1   8   0 1359.37 436.278   2
  -8   1   0 1055.86 318.499   1
   1   7   3 39736.8 1627.77   2
  -8   1   3 41691.1 1402.98   1
   7  -8   3 42235.1 1437.37   4
   1   7   3 41612.7 1513.92   4
   8  -7   3 42957.5 1486.78   2
  -7  -1   3 43064.2 1419.01   1
   8  -7   3 43424.3 1511.83   4
  -1   8   3 44419.3 1544.21   4
   1   7   3 38311.5 934.799   3
   7  -8   3 39694.5 1384.19   2
   7  -8   3 41061.6 1841.87   3
   7  -8   3 41562.2 905.035   1
   8  -7   3 41038.8 1824.99   3
  -1   8   3 43776.7 1728.21   2
  -7  -1   3 38663.7 819.842   4
  -8   1   6 4330.40 520.893   2
  -1   8   6 5545.33 518.713   3
  -8   1   6 4962.96 549.566   4
   7  -8   6 5854.09 1131.99   3
  -7  -1   6 5288.50 503.638   2
   8  -7   6 4703.28 1005.32   3
  -7  -1   6 5279.93 583.283   4
   1   7   6 4907.76 609.099   3
   8  -7   9 29799.7 2183.14   3
   1   7   9 29198.3 1515.77   3
  -7  -1   9 24715.1 1248.83   2
   7  -8   9 29553.4 2236.82   3
  -1   8   9 29722.2 1451.43   3
   6  -8 -10 9556.86 1549.12   1
   8  -6 -10 5875.30 1169.32   2
   8  -6 -10 4548.17 1072.99   4
  -8   2 -10 6852.80 1180.32   1
  -8   2 -10 8406.18 1375.21   2
  -6  -2 -10 8222.59 1436.78   2
   6  -8 -10 6516.45 1302.28   2
  -2   8 -10 8001.03 1322.48   1
   8  -6 -10 10456.4 1590.30   1
  -6  -2 -10 7824.55 1436.81   4
   2   6 -10 8687.15 1317.07   1
   6  -8 -10 7398.26 1299.81   4
  -8   2 -10 8272.05 1440.18   4
  -6  -2  -7 45536.0 2147.91   2
   8  -6  -7 47200.1 1710.97   4
   6  -8  -7 44577.2 2021.01   2
   8  -6  -7 38952.3 1896.83   3
   6  -8  -7 44858.4 1778.41   3
   6  -8  -7 47777.5 1918.01   4
  -8   2  -7 42748.7 2027.11   2
  -6  -2  -7 41054.5 2016.80   4
  -8   2  -7 42367.0 2127.91   4
  -6  -2  -7 40003.0 2153.96   3
   8  -6  -7 45784.9 1846.46   2
   8  -6  -7 48305.8 2224.39   1
   2   6  -7 45816.9 1962.61   1
  -2   8  -7 42625.8 1833.68   1
   6  -8  -4 14218.2 740.088   3
  -2   8  -4 14062.0 964.008   1
  -8   2  -4 13042.5 1259.98   3
  -8   2  -4 13462.9 1170.92   2
  -6  -2  -4 12691.5 1162.11   2
  -6  -2  -4 14487.3 1140.89   4
  -6  -2  -4 12666.4 894.679   1
   8  -6  -4 12733.8 1009.55   2
  -8   2  -4 12362.6 1049.74   4
  -6  -2  -4 13065.1 1095.31   3
   6  -8  -4 14339.4 923.917   4
   2   6  -4 13112.1 1306.22   3
   6  -8  -4 13235.2 1151.13   2
  -8   2  -4 14636.3 792.101   1
   8  -6  -4 13468.3 737.404   4
  -2   8  -4 11762.4 1241.53   3
   8  -6  -4 12530.6 967.320   3
   2   6  -4 10782.6 946.831   1
   8  -6  -1 18546.7 1034.52   3
  -8   2  -1 20397.4 856.087   2
   6  -8  -1 19612.2 946.206   2
  -6  -2  -1 19818.7 803.011   4
  -6  -2  -1 19712.3 842.599   2
  -2   8  -1 19167.1 838.911   1
  -6  -2  -1 19399.6 794.343   1
   6  -8  -1 19234.6 795.482   3
  -8   2  -1 20029.0 771.935   4
   6  -8  -1 20733.2 816.661   4
   2   6  -1 18992.9 930.880   1
  -8   2  -1 19806.3 1087.00   3
   2   6  -1 20222.7 691.738   2
   8  -6  -1 21715.9 659.992   4
  -2   8  -1 21396.3 1005.06   3
  -8   2  -1 19805.9 582.679   1
   2   6  -1 19324.4 950.310   3
   6  -8   2 21882.1 1199.71   3
   8  -6   2 20381.8 1240.80   3
  -2   8   2 23082.3 1016.82   4
   8  -6   2 24815.0 1037.94   2
   2   6   2 21957.1 1002.87   4
   2   6   2 21846.9 1079.71   2
  -2   8   2 21495.1 1091.07   2
   8  -6   2 22667.2 963.210   4
   2   6   2 24617.6 1083.00   1
  -6  -2   2 23215.8 945.050   1
  -8   2   2 22707.7 931.512   1
  -6  -2   2 22551.2 651.317   4
   6  -8   2 24011.2 642.933   1
   2   6   2 23586.0 807.307   3
  -2   8   5 8852.51 486.828   3
  -2   8   5 8322.83 899.043   4
  -6  -2   5 9296.32 478.374   2
   6  -8   5 8355.89 1128.34   3
   6  -8   5 8160.11 820.661   2
   8  -6   5 8494.24 1170.77   3
  -8   2   5 9032.66 564.702   4
   2   6   5 10060.5 726.873   3
  -6  -2   5 9447.07 664.156   4
  -8   2   5 9541.96 634.683   2
   6  -8   8 14671.0 1664.09   3
  -8   2   8 11534.2 929.381   4
  -6  -2   8 11450.9 917.191   2
  -2   8   8 14436.1 997.218   3
  -8   2   8 13258.6 1019.27   2
   2   6   8 13127.8 1134.39   3
   8  -6   8 13616.3 1560.40   3
   2   6  11 11432.0 1322.48   3
   8  -6  11 11252.9 1717.95   3
   6  -8  11 14140.9 1851.41   3
   5  -8 -11 4468.65 1274.48   4
  -8   3 -11 4813.58 1372.89   4
  -3   8 -11 5946.06 1241.19   1
  -5  -3 -11 4840.82 1381.72   1
  -8   3 -11 6840.67 1397.76   2
  -8   3 -11 6168.04 1172.56   1
  -5  -3 -11 4076.98 1397.43   4
   8  -5 -11 5248.38 1123.43   2
   5  -8 -11 5913.85 1292.90   2
   8  -5 -11 4753.87 1157.33   4
   8  -5 -11 6031.26 1560.67   1
   5  -8 -11 6255.64 1556.65   1
  -5  -3 -11 3741.92 1284.77   2
   3   5 -11 5487.70 1342.06   1
  -3   8  -8 18734.1 1400.01   1
  -8   3  -8 17548.8 1559.70   2
  -8   3  -8 18589.9 1328.97   1
  -5  -3  -8 18457.1 1602.48   4
   5  -8  -8 17963.2 1452.35   4
  -8   3  -8 18382.7 1601.01   4
   8  -5  -8 15054.5 1505.13   1
  -5  -3  -8 18629.7 1610.82   2
   3   5  -8 20588.6 1564.55   1
   5  -8  -8 14722.9 1467.46   2
   8  -5  -8 17801.5 1308.49   2
   8  -5  -8 17922.7 1271.71   4
   5  -8  -8 16392.1 1330.13   3
  -3   8  -5 16018.4 1016.18   1
  -5  -3  -5 15044.4 1047.01   1
  -5  -3  -5 17428.9 1259.39   4
   8  -5  -5 14319.7 1084.19   3
   8  -5  -5 17284.7 1045.59   2
  -5  -3  -5 17254.4 1305.03   2
  -8   3  -5 15890.4 1185.55   4
  -8   3  -5 17464.5 1266.69   2
   3   5  -5 15191.2 1113.48   1
   5  -8  -5 16501.6 1311.04   2
  -5  -3  -5 17063.0 1189.46   3
   8  -5  -5 16341.0 843.206   4
   8  -5  -5 17599.6 1239.97   1
   5  -8  -5 15995.3 833.044   3
  -8   3  -5 13865.6 1348.15   3
   5  -8  -5 14967.7 1018.82   4
  -5  -3  -2 22601.6 927.071   1
   5  -8  -2 22590.6 661.756   3
   3   5  -2 22642.0 991.007   1
   8  -5  -2 22178.1 914.589   1
   3   5  -2 24039.7 1196.74   3
  -3   8  -2 25193.9 898.665   1
   8  -5  -2 22451.9 891.852   2
   8  -5  -2 23335.1 534.421   4
  -8   3  -2 22445.9 1242.93   3
  -5  -3  -2 22624.9 1058.47   2
   5  -8  -2 23358.5 919.726   4
   5  -8  -2 24860.2 1135.00   2
  -3   8  -2 24960.2 1286.58   3
  -8   3  -2 22531.0 996.243   2
  -5  -3  -2 23282.1 1010.52   4
  -8   3  -2 23857.1 580.252   1
  -8   3  -2 23237.1 958.477   4
   8  -5   1 85983.6 2111.14   3
  -5  -3   1 81158.9 1288.40   4
  -3   8   1 80158.3 1623.71   1
   3   5   1 85991.5 1687.69   2
  -5  -3   1 80975.3 1017.07   2
  -5  -3   1 85797.7 1570.96   1
   8  -5   1 85268.0 1522.56   4
   5  -8   1 85451.6 1293.92   1
  -8   3   1 83283.7 1370.08   1
   8  -5   1 85465.8 1639.61   2
   3   5   1 87982.5 1663.72   4
  -3   8   1 82339.2 1227.66   3
   3   5   1 80870.8 1634.34   1
  -3   8   1 86838.3 1650.61   4
  -3   8   1 86066.0 1770.88   2
   5  -8   1 79820.3 1870.88   3
   3   5   4 51874.9 1465.91   3
   5  -8   4 48448.3 1286.59   1
  -5  -3   4 51183.7 1253.21   4
   3   5   4 53686.6 1888.62   2
  -8   3   4 49471.7 1202.25   2
  -3   8   4 51648.2 1825.26   2
   8  -5   4 52897.2 1735.99   2
   8  -5   4 45925.5 2060.44   3
  -3   8   4 52486.9 1637.23   4
  -5  -3   4 49446.6 1640.74   1
   3   5   4 55517.8 1779.88   4
   5  -8   4 53293.4 1694.02   4
   5  -8   4 52433.2 1558.70   2
  -8   3   4 51447.5 981.394   4
   5  -8   4 50841.5 2092.87   3
   8  -5   4 54017.9 1754.77   4
   8  -5   7 5602.26 1106.99   3
  -5  -3   7 5456.16 697.666   4
   3   5   7 5824.76 858.537   3
   5  -8   7 6363.77 1259.33   3
  -8   3   7 6157.96 691.862   4
  -8   3   7 6287.38 771.524   2
  -5  -3   7 7237.37 713.519   2
   3   5  10 4243.98 1048.33   3
   8  -5  10 1703.45 1129.20   3
   5  -8  10 3310.11 1306.16   3
   4  -8  -9 12953.6 1500.87   2
  -8   4  -9 14136.9 1311.75   1
   4  -8  -9 10212.1 1331.18   4
  -8   4  -9 11739.1 1410.64   2
   4  -8  -9 11439.6 1318.46   3
   8  -4  -9 12323.8 1168.39   4
   4   4  -9 11683.9 976.636   2
  -4  -4  -9 12242.3 1489.74   4
   8  -4  -9 11443.9 1232.03   2
  -4  -4  -9 9969.35 1405.92   2
  -4   8  -9 12734.7 1279.92   1
   8  -4  -9 11352.2 1443.74   1
   4   4  -9 13510.4 1553.55   1
  -8   4  -9 13493.1 1470.48   4
   8  -4  -6 681.379 764.950   1
  -4  -4  -6 706.840 624.529   3
  -8   4  -6 811.027 538.781   1
   4   4  -6-357.660 700.735   1
   4  -8  -6 530.450 663.122   4
   4  -8  -6 1424.56 525.889   3
  -4   8  -6 1672.98 613.813   1
   8  -4  -6 244.196 546.170   2
   8  -4  -6 393.417 473.537   4
   4  -8  -6 2485.14 931.639   2
   8  -4  -6 536.138 717.322   3
  -8   4  -6 1441.58 837.653   2
  -4  -4  -6 1032.06 842.967   2
  -4  -4  -6 31.3551 688.990   4
  -8   4  -6 148.600 706.900   4
   8  -4  -3 33347.9 693.526   4
   8  -4  -3 35129.9 1324.58   1
   4   4  -3 33783.0 1329.90   1
  -4   8  -3 35728.3 1745.30   3
  -8   4  -3 34768.7 1389.87   2
  -8   4  -3 34853.8 1638.28   3
  -8   4  -3 34710.1 1343.40   4
   4  -8  -3 34445.1 1256.04   4
   4  -8  -3 35079.4 1530.36   2
   8  -4  -3 34872.3 1101.46   2
  -4  -4  -3 33435.4 1227.41   1
  -4  -4  -3 31666.0 1337.46   4
  -4  -4  -3 34755.7 1484.50   2
   4   4  -3 33727.0 1601.70   3
  -4   8  -3 34046.9 1060.39   1
  -4  -4  -3 33061.0 1201.59   3
   8  -4   0 874.511 533.976   3
   8  -4   0 1491.78 278.206   4
   4   4   0 1468.33 390.190   2
   4   4   0 1818.13 378.799   4
   8  -4   0 1192.95 249.713   1
  -4  -4   0 1413.91 390.287   4
  -4  -4   0 1010.52 460.136   1
   4  -8   0 1552.85 431.215   3
   4   4   0 1458.04 500.374   1
   4  -8   0 1233.67 483.840   2
   4  -8   0 1363.75 422.689   4
  -4   8   0 644.631 365.389   3
  -4  -4   0 969.470 360.382   2
  -8   4   0 1368.37 253.271   1
  -4   8   0 1339.42 391.745   1
   4  -8   0 1106.25 354.426   1
   4  -8   3 28552.1 978.130   1
   8  -4   3 30651.7 1287.48   2
   4  -8   3 31227.4 1552.06   3
  -4   8   3 31661.6 1214.60   4
   8  -4   3 29225.7 1573.72   3
   4   4   3 30477.7 1298.26   4
  -4  -4   3 31442.5 1221.69   1
   4   4   3 30860.1 1181.05   3
  -8   4   3 29730.2 634.457   4
  -4   8   3 34702.6 1407.51   2
   4   4   3 32002.2 1400.28   2
   8  -4   3 31663.3 1255.53   4
   4   4   6 718.967 641.737   3
  -4  -4   6 211.099 877.542   3
   4  -8   6-88.3527 844.357   3
  -4  -4   6 580.193 464.306   4
   4  -8   6 421.240 513.010   2
  -8   4   6 147.484 394.278   4
  -8   4   6 316.294 491.213   2
  -4  -4   6 222.798 404.900   2
   8  -4   6 2542.55 945.735   3
   4  -8   9 10583.7 1537.83   3
  -4  -4   9 12220.7 1557.59   3
  -4  -4   9 9593.61 1027.20   2
   8  -4   9 10003.5 1466.25   3
   4   4   9 10803.5 1257.86   3
   3  -8 -10 5425.22 1301.10   4
   5   3 -10 3755.93 787.934   2
  -3  -5 -10 4076.75 1325.91   2
  -5   8 -10 4914.23 1064.17   1
  -8   5 -10 2277.74 1059.24   2
  -8   5 -10 4735.34 977.789   1
   8  -3 -10 3417.86 956.464   2
  -3  -5 -10 3419.95 1195.98   4
   3  -8 -10 5697.34 1436.17   2
   8  -3 -10 4560.32 1300.06   1
   5   3 -10 5072.38 1348.27   1
  -3  -5  -7 6929.71 1049.27   4
   8  -3  -7 5979.87 1095.08   1
   8  -3  -7 6254.75 755.772   4
   5   3  -7 5995.59 613.146   2
  -8   5  -7 8870.71 1122.16   2
   3  -8  -7 8613.93 1230.82   2
   3  -8  -7 6866.07 834.404   3
   5   3  -7 6148.76 1052.31   1
  -8   5  -7 7137.55 846.261   1
  -8   5  -7 7734.07 1114.38   4
  -3  -5  -7 5064.51 890.443   3
   8  -3  -7 5528.97 780.640   2
  -5   8  -7 8329.57 956.264   1
   3  -8  -7 7517.52 1071.99   4
  -3  -5  -7 6476.18 1108.30   2
  -5   8  -4 53338.8 2275.17   3
  -3  -5  -4 54669.4 1795.33   4
  -8   5  -4 53196.9 1758.25   4
   8  -3  -4 51920.2 1754.11   1
   3  -8  -4 50837.3 1627.96   4
   8  -3  -4 51027.4 1821.23   3
  -3  -5  -4 50763.9 1899.29   2
  -3  -5  -4 51439.4 1686.68   1
  -8   5  -4 53464.7 1747.22   2
   5   3  -4 54363.8 2092.54   3
   3  -8  -4 46005.0 1891.18   2
  -3  -5  -4 52171.6 1506.87   3
   5   3  -4 53099.3 1747.35   1
  -8   5  -4 52364.3 1158.30   1
  -8   5  -4 55580.9 2222.30   3
   8  -3  -4 54395.3 1361.41   2
  -5   8  -4 50602.5 1361.98   1
   8  -3  -4 54404.1 1072.42   4
  -3  -5  -1 81957.8 1668.40   2
   3  -8  -1 86673.2 1825.03   2
  -8   5  -1 89502.7 2101.03   3
  -5   8  -1 85556.7 1292.35   1
   5   3  -1 83641.5 1634.98   1
  -3  -5  -1 82881.4 1640.39   4
   3  -8  -1 82385.3 1578.33   1
   5   3  -1 83680.6 1291.74   4
   8  -3  -1 83650.0 1362.97   1
   5   3  -1 84930.3 1099.96   2
   3  -8  -1 85754.2 1212.79   3
  -5   8  -1 87988.7 1997.64   3
  -3  -5  -1 86417.9 1684.56   1
   3  -8  -1 83381.7 1672.14   4
   3  -8   2 20978.5 794.080   1
  -3  -5   2 19279.1 522.590   2
   5   3   2 20825.5 1019.70   3
   8  -3   2 20062.5 1192.84   3
  -3  -5   2 19957.4 906.113   1
   5   3   2 21006.5 916.292   1
  -5   8   2 21618.5 881.730   4
   5   3   2 22277.4 995.845   4
   8  -3   2 21412.2 970.319   2
  -5   8   2 20974.2 1006.85   2
   3  -8   2 21004.9 1113.70   3
   5   3   2 21174.4 1019.00   2
   8  -3   2 22670.6 932.728   4
   8  -3   5 14266.1 1310.63   3
   3  -8   5 14245.1 912.297   1
   5   3   5 15686.4 1076.89   3
  -5   8   5 13914.8 1149.10   2
   3  -8   5 13603.1 1297.91   3
  -8   5   5 14909.0 730.229   4
  -3  -5   5 14335.6 1353.98   3
  -8   5   5 14986.9 925.821   2
  -5   8   5 14357.4 964.063   4
  -3  -5   5 15040.3 670.523   2
   3  -8   5 14899.5 883.321   2
  -3  -5   5 15589.3 886.130   4
   3  -8   5 14046.8 993.284   4
  -3  -5   8 19469.1 1168.43   2
  -3  -5   8 17002.8 1704.09   3
   8  -3   8 16596.3 1614.02   3
   3  -8   8 19356.8 1723.54   3
   5   3   8 18307.7 1420.52   3
   5   3  11 3329.86 1113.20   3
   8  -3  11 7438.81 1513.42   3
   3  -8  11 4601.67 1367.23   3
  -3  -5  11 3922.29 1322.93   3
  -8   6 -11 13431.8 1437.92   1
   2  -8 -11 12720.8 1718.83   2
   6   2 -11 11903.9 1153.83   2
   8  -2 -11 12167.6 1661.33   1
  -8   6 -11 13142.0 1667.76   2
  -6   8 -11 13206.4 1506.62   1
  -2  -6 -11 13423.9 1739.93   4
  -2  -6 -11 12713.1 1754.51   2
   6   2 -11 12200.5 1773.56   1
   2  -8 -11 13436.7 1711.54   4
   8  -2 -11 12116.6 1232.65   2
  -2  -6  -8 17100.5 1512.74   3
  -2  -6  -8 16400.1 1618.50   2
   8  -2  -8 14493.1 1055.24   2
   6   2  -8 15001.9 922.140   2
  -6   8  -8 17003.7 1272.36   1
  -8   6  -8 15934.7 1484.22   2
   8  -2  -8 19481.9 1622.80   1
   2  -8  -8 15863.3 1561.50   2
   2  -8  -8 14942.4 1280.96   3
  -2  -6  -8 17158.8 1516.86   4
   6   2  -8 16610.2 1543.98   1
  -8   6  -8 16783.8 1190.61   1
   2  -8  -8 15308.3 1423.24   4
   6   2  -5 8651.68 442.430   2
   8  -2  -5 11171.3 1058.13   1
  -8   6  -5 9518.08 972.879   4
  -2  -6  -5 11052.5 835.345   3
   2  -8  -5 8529.37 873.703   4
  -8   6  -5 10655.4 998.538   2
  -6   8  -5 10818.7 770.778   1
   8  -2  -5 9850.64 690.209   2
  -8   6  -5 9824.59 673.063   1
  -2  -6  -5 9613.06 936.583   4
   2  -8  -5 8831.59 1109.94   2
   6   2  -5 12225.9 1054.46   1
   2  -8  -5 10251.4 610.694   3
   8  -2  -5 8426.22 1067.56   3
  -2  -6  -5 11308.3 1167.63   2
   6   2  -2 24752.1 1022.99   1
  -8   6  -2 25701.9 1375.31   3
   2  -8  -2 25821.4 1063.58   4
   2  -8  -2 23610.8 1026.26   1
  -2  -6  -2 23080.4 1020.72   1
  -6   8  -2 25116.5 704.510   1
  -6   8  -2 25982.3 1330.50   3
   8  -2  -2 24753.8 966.415   1
   2  -8  -2 22125.3 1148.19   2
  -2  -6  -2 24222.8 1158.42   2
  -2  -6  -2 23321.8 1044.85   4
   6   2   1 24144.0 902.104   1
  -6   8   1 25999.2 877.588   3
  -2  -6   1 24953.1 970.895   1
   6   2   1 24943.8 1124.62   3
  -2  -6   1 26144.4 941.299   4
   2  -8   1 25485.1 1066.88   3
   2  -8   1 26195.2 942.280   1
   6   2   1 25199.8 895.223   4
   2  -8   1 24744.2 944.657   2
   8  -2   1 26338.6 963.523   2
   8  -2   1 25472.0 833.211   4
   8  -2   1 26272.4 1262.46   3
   8  -2   1 24583.0 673.008   1
   6   2   1 25200.6 955.437   2
  -2  -6   1 26286.6 794.209   2
  -6   8   4 13645.0 1030.04   2
   8  -2   4 16354.9 1339.78   3
   8  -2   4 14713.9 1064.02   4
   2  -8   4 14064.3 812.228   2
  -2  -6   4 14585.9 956.769   1
  -6   8   4 15116.5 908.795   4
   6   2   4 12134.9 1027.68   3
  -8   6   4 13170.8 709.197   4
   6   2   4 14362.5 1047.05   4
   8  -2   4 12257.1 1038.70   2
  -2  -6   4 13758.6 589.144   2
  -2  -6   4 12221.8 1352.79   3
   6   2   4 13955.3 1126.58   2
   2  -8   4 14582.3 1396.51   3
   2  -8   4 14010.3 886.903   1
  -8   6   4 13474.3 917.318   2
   8  -2   7 36548.0 1994.03   3
  -8   6   7 35234.7 1373.19   4
   2  -8   7 35239.7 1451.86   2
   2  -8   7 39694.9 2149.78   3
  -2  -6   7 38175.7 2128.63   3
  -8   6   7 35438.8 1573.59   2
  -2  -6   7 40310.9 1379.46   2
   6   2   7 39118.5 1878.69   3
   8  -2  10 7810.12 1424.29   3
   6   2  10 8944.97 1363.00   3
  -2  -6  10 6388.13 1407.52   3
   2  -8  10 7326.19 1448.06   3
   7   1  -9 33247.1 1421.53   2
   8  -1  -9 35505.7 2155.04   1
  -1  -7  -9 32659.1 2173.41   2
  -8   7  -9 36160.0 1765.28   1
  -8   7  -9 33519.3 2007.24   2
   7   1  -9 34862.5 2164.17   1
  -1  -7  -9 35465.8 2194.48   4
   1  -8  -9 30894.8 2109.89   2
   1  -8  -9 35897.4 2173.50   4
   8  -1  -9 30575.6 1458.38   2
  -7   8  -9 35366.0 1783.32   1
   1  -8  -6 6337.54 951.566   4
   1  -8  -6 7204.81 695.663   3
   8  -1  -6 5720.07 577.324   2
  -1  -7  -6 6046.89 752.729   3
  -7   8  -6 7203.00 727.507   1
   7   1  -6 6205.90 496.375   2
   1  -8  -6 5360.13 978.462   2
   8  -1  -6 6985.00 940.543   1
  -8   7  -6 5821.37 673.666   1
  -1  -7  -6 7363.40 1178.37   2
  -8   7  -6 5608.78 860.408   2
   7   1  -6 5759.20 920.377   1
  -1  -7  -6 5702.49 895.684   4
  -8   7  -3 43222.7 780.426   1
   8  -1  -3 44358.3 1472.63   1
   8  -1  -3 40317.6 838.135   2
  -1  -7  -3 42704.3 1497.67   1
   1  -8  -3 43887.2 1539.40   4
   7   1  -3 44922.2 1543.93   1
  -7   8  -3 45144.6 943.117   1
   1  -8  -3 48196.1 1620.88   1
   7   1  -3 44501.7 1797.85   3
  -8   7  -3 43249.7 1951.81   3
   1  -8  -3 43202.5 1780.42   2
  -1  -7  -3 46399.1 1798.34   2
  -7   8  -3 43388.7 1951.08   3
  -1  -7  -3 43254.7 1520.72   4
   1  -8   0 2212.95 449.124   3
  -8   7   0 1413.29 490.824   3
  -1  -7   0 1866.48 474.852   1
   8  -1   0 1872.77 372.602   2
  -1  -7   0 1752.72 441.489   2
   1  -8   0 1732.55 478.187   4
  -1  -7   0 1841.61 479.645   4
   7   1   0 1997.63 343.086   4
   1  -8   0 2268.03 504.087   1
   7   1   0 1392.31 460.351   1
   8  -1   0 1955.89 412.706   1
   8  -1   0 2505.20 334.737   4
   7   1   0 1936.71 368.251   2
   1  -8   0 1439.19 452.064   2
  -7   8   0 1621.97 469.674   3
   7   1   3 3911.45 836.073   3
   1  -8   3 4724.01 1048.25   3
   8  -1   3 4499.62 839.033   2
   7   1   3 4648.96 790.965   2
   8  -1   3 4558.26 913.633   3
   8  -1   3 4969.29 747.114   4
  -1  -7   3 5027.61 1004.00   3
  -8   7   3 5081.24 549.772   4
  -7   8   3 4514.10 641.410   4
  -8   7   3 3994.88 703.460   2
  -1  -7   3 4777.04 721.060   1
   1  -8   3 3938.18 671.356   1
  -7   8   3 4775.75 798.911   2
   7   1   3 3984.84 768.104   4
  -7   8   6 73.3392 538.455   4
   7   1   6 1450.55 747.481   3
  -8   7   6 338.211 470.341   4
   1  -8   6 278.966 450.472   2
  -1  -7   6 7.71072 409.832   2
   1  -8   6 77.6654 868.983   3
  -8   7   6-350.519 592.514   2
  -1  -7   6-406.608 829.453   3
   8  -1   6-440.769 712.910   3
   7   1   9 4823.67 1099.46   3
   1  -8   9 6940.61 1375.41   3
  -1  -7   9 3353.68 1240.07   3
   8  -1   9 5581.43 1187.46   3
   8   0 -10 20654.0 1282.47   2
   0  -8 -10 20642.4 1925.38   2
   0  -8 -10 21556.8 1944.95   4
  -8   8 -10 25047.8 1654.22   1
   8   0  -7-759.692 815.599   1
   0  -8  -7 395.896 590.292   3
   8   0  -7-152.877 462.752   2
   0  -8  -7 1019.30 784.034   4
  -8   8  -7-10.9715 571.801   1
   0  -8  -7 2223.00 1069.92   2
   0  -8  -4 32973.0 1512.12   1
   8   0  -4 25162.6 594.235   2
   0  -8  -4 29418.7 1415.97   4
   0  -8  -4 31779.5 1644.11   2
   8   0  -4 28961.5 1662.61   3
  -8   8  -4 29719.8 1853.95   3
   8   0  -4 31126.5 1429.30   1
  -8   8  -4 30780.9 885.307   1
   8   0  -1-48.6453 257.891   2
   0  -8  -1-20.9588 539.941   4
   8   0  -1 123.712 231.881   4
   0  -8  -1-240.138 484.115   1
   0  -8  -1-57.7182 525.616   2
   8   0  -1-617.052 473.599   1
  -8   8  -1 411.281 504.945   3
   8   0   2 95491.7 2377.82   3
   0  -8   2 96811.3 1891.48   1
   8   0   2 98159.2 1918.79   4
   0  -8   2 91413.4 2200.68   3
   0  -8   2 93002.3 1589.66   2
   8   0   2 92828.8 1589.25   1
   8   0   2 95412.6 2079.38   2
  -8   8   2 94699.3 1535.73   4
   0  -8   5-293.178 858.968   3
   8   0   5-122.699 700.121   3
  -8   8   5-429.257 612.787   2
   0  -8   5 1030.01 567.806   1
  -8   8   5 120.133 472.411   4
   0  -8   5 138.221 374.785   2
   0  -8   5-354.680 549.436   4
   8   0   8 22970.1 1755.97   3
   0  -8   8 19313.1 1212.92   2
   0  -8   8 18991.1 1734.25   3
   0  -8  11 315.015 1203.92   3
   8   0  11-1841.85 1118.58   3
  -9   0  -9-673.943 1127.85   4
   9  -9  -9-126.596 859.263   4
   9  -9  -9-109.562 1175.47   1
   0   9  -9 85.1943 1011.17   1
  -9   0  -9 153.996 1034.60   2
   9  -9  -9-231.460 974.431   2
   9  -9  -6 16631.4 1059.70   4
  -9   0  -6 15958.3 1407.40   2
   9  -9  -6 14932.7 1055.97   3
  -9   0  -6 14642.3 1060.64   1
  -9   0  -6 15908.8 1380.89   4
   9  -9  -6 14916.5 1315.95   2
   0   9  -6 14573.8 1156.86   1
  -9   0  -3 826.850 537.302   1
   9  -9  -3-192.252 532.789   4
   0   9  -3 317.018 831.419   3
  -9   0  -3 501.735 735.247   2
   9  -9  -3-161.212 583.522   3
   9  -9  -3-597.187 855.612   2
   0   9  -3 254.111 757.975   1
  -9   0  -3-546.129 778.074   3
  -9   0  -3-108.524 678.212   4
   0   9   0 20418.1 1046.93   1
   9  -9   0 18999.4 1143.86   3
   0   9   0 20966.0 1002.60   4
   0   9   0 20196.1 983.542   3
  -9   0   0 20891.8 730.973   4
  -9   0   0 20352.7 807.424   2
  -9   0   0 19733.7 821.495   1
   9  -9   0 20493.6 690.498   1
   0   9   0 21760.7 999.675   2
  -9   0   3-668.025 644.290   1
   9  -9   3-260.470 899.792   3
   9  -9   3 326.445 577.122   4
   0   9   3 1844.55 852.984   2
  -9   0   3 67.1869 187.022   4
   9  -9   3 727.411 652.700   2
  -9   0   3-176.023 232.110   4
   0   9   3 652.650 698.526   4
   0   9   6 6537.57 522.460   3
  -9   0   6 7135.02 460.509   2
   9  -9   6 6167.70 1240.16   3
  -9   0   6 7847.80 583.763   4
   0   9   9 305.040 571.669   3
   9  -9   9-208.303 1140.62   3
   8  -9 -10 8506.71 1316.02   4
  -8  -1 -10 8025.46 1413.71   2
   9  -8 -10 9359.09 1259.33   4
   9  -8 -10 11124.1 1715.72   1
  -8  -1 -10 9765.07 1592.68   4
  -9   1 -10 6307.25 1400.81   2
   8  -9 -10 8392.05 1699.98   1
  -1   9 -10 8382.81 1351.99   1
  -9   1 -10 10690.5 1554.38   4
   1   8 -10 8946.37 1472.70   1
   9  -8 -10 8832.06 1332.09   2
   8  -9 -10 8922.41 1426.89   2
  -9   1 -10 9517.56 1279.50   1
   8  -9  -7 37991.9 1703.50   4
   8  -9  -7 34363.7 1901.96   2
   9  -8  -7 33254.8 1715.56   3
  -9   1  -7 36339.7 1989.85   4
   9  -8  -7 38449.7 2092.75   1
  -8  -1  -7 37295.5 2040.05   2
  -1   9  -7 36543.4 1757.50   1
   1   8  -7 34437.4 1752.27   1
   9  -8  -7 38276.7 1812.14   2
   9  -8  -7 36594.8 1576.74   4
  -9   1  -7 38366.9 2007.21   2
   8  -9  -7 37187.2 1637.96   3
  -8  -1  -7 40154.3 2098.93   4
  -9   1  -4 18906.6 1431.75   3
  -1   9  -4 18599.5 1121.40   1
  -8  -1  -4 19714.2 1269.76   4
   8  -9  -4 20405.9 985.895   4
  -8  -1  -4 20127.6 1039.85   1
   1   8  -4 20993.1 1212.48   1
   8  -9  -4 19947.8 1368.28   2
  -9   1  -4 20532.9 962.180   1
  -1   9  -4 19989.5 1515.11   3
   9  -8  -4 18326.6 1201.55   2
  -8  -1  -4 20916.7 1384.59   3
   9  -8  -4 20464.8 906.220   4
  -9   1  -4 19451.6 1252.52   4
  -8  -1  -4 21560.1 1314.18   2
  -9   1  -4 19594.3 1273.13   2
   1   8  -4 17880.5 1476.22   3
   8  -9  -1 27303.8 1143.06   3
  -8  -1  -1 28213.2 1058.20   2
  -1   9  -1 26843.9 1129.40   1
  -9   1  -1 27581.6 844.969   1
   8  -9  -1 26040.9 1135.85   2
   9  -8  -1 28368.8 889.117   4
  -9   1  -1 26733.8 1045.78   2
   9  -8  -1 26010.1 1208.18   3
  -9   1  -1 25986.0 950.905   4
  -1   9  -1 29447.6 1261.83   3
  -8  -1  -1 28027.3 990.735   1
   8  -9  -1 27446.4 970.455   4
   1   8  -1 27765.8 1264.91   3
  -8  -1  -1 27361.2 992.989   4
   1   8  -1 28752.8 1178.43   1
   8  -9   2 10825.2 449.255   1
   8  -9   2 9239.24 1036.41   3
  -1   9   2 8515.36 397.469   3
   1   8   2 10884.9 999.217   2
   9  -8   2 10455.9 767.976   4
  -8  -1   2 9731.17 743.675   1
  -1   9   2 10189.3 906.758   1
   9  -8   2 7808.30 1034.75   3
   1   8   2 9462.34 925.779   4
  -9   1   2 10506.8 778.873   1
  -1   9   2 11166.8 975.033   2
  -8  -1   2 9881.63 459.868   4
  -1   9   2 10861.4 906.604   4
   1   8   2 11446.0 939.672   1
   8  -9   5 16432.9 1469.13   3
   1   8   5 17561.4 754.835   3
  -1   9   5 13839.5 482.168   3
   9  -8   5 17127.7 1476.35   3
  -9   1   5 18214.7 691.406   4
  -8  -1   5 17350.0 737.078   4
   8  -9   8 12552.8 1666.28   3
   1   8   8 12890.5 988.942   3
  -1   9   8 13389.6 911.787   3
  -9   1   8 9966.91 830.077   2
   9  -8   8 12201.2 1629.24   3
  -8  -1   8 10158.4 893.647   4
  -9   1   8 9951.84 852.055   4
  -8  -1   8 9744.23 753.549   2
   9  -8  11 9620.61 1721.34   3
   8  -9  11 5387.66 1607.84   3
   7  -9 -11 15152.0 1738.52   4
   2   7 -11 15293.9 1745.92   1
   9  -7 -11 14008.0 1551.92   2
   7  -9 -11 18159.8 2152.52   1
   9  -7 -11 21012.6 2210.50   1
  -9   2 -11 13063.3 1738.15   2
  -9   2 -11 14172.3 1813.47   4
  -7  -2 -11 16745.2 1861.91   1
  -9   2 -11 15061.2 1570.42   1
  -2   9 -11 13744.5 1606.56   1
  -7  -2 -11 14626.7 1771.89   2
   7  -9 -11 13151.3 1708.94   2
   9  -7 -11 12230.7 1372.33   4
  -7  -2 -11 16537.6 1907.91   4
   2   7  -8 3746.10 1023.96   1
   7  -9  -8 4775.98 971.803   3
   9  -7  -8 5680.42 1228.83   1
  -7  -2  -8 4166.89 1172.11   4
  -2   9  -8 3915.86 978.045   1
   7  -9  -8 6930.04 1066.82   4
   7  -9  -8 5193.45 1140.50   2
  -7  -2  -8 4554.79 1079.53   2
  -9   2  -8 5128.83 1174.63   2
   9  -7  -8 5668.01 909.239   4
  -9   2  -8 5432.44 1154.49   4
   9  -7  -8 5724.64 1069.22   2
  -9   2  -5 49740.5 1951.68   2
  -7  -2  -5 51600.8 2047.16   3
  -2   9  -5 49697.0 1651.55   1
   7  -9  -5 51386.2 1624.88   4
   2   7  -5 50437.2 1792.00   1
  -7  -2  -5 52694.2 2046.44   2
  -7  -2  -5 54628.7 1758.86   1
   7  -9  -5 48663.7 1352.55   3
   9  -7  -5 50936.3 1756.00   2
   9  -7  -5 51825.3 1946.14   1
  -9   2  -5 53989.6 2019.01   4
  -9   2  -5 49544.3 2238.17   3
   9  -7  -5 53276.6 1421.12   4
  -7  -2  -5 48806.2 1933.32   4
   7  -9  -5 51382.4 1977.34   2
   9  -7  -5 52393.6 1766.19   3
  -9   2  -5 50083.6 1471.46   1
   9  -7  -2 63900.4 1595.12   2
   9  -7  -2 61541.6 1708.79   3
   9  -7  -2 65352.2 1129.94   4
   7  -9  -2 64978.9 1776.78   2
  -2   9  -2 67170.4 2049.14   3
   2   7  -2 64541.5 1680.11   1
  -7  -2  -2 62132.5 1596.37   4
  -2   9  -2 62362.4 1540.21   1
   7  -9  -2 61786.3 1467.73   4
  -9   2  -2 64066.2 2008.18   3
   2   7  -2 67793.1 2033.16   3
  -9   2  -2 67013.4 1624.65   4
  -7  -2  -2 65215.4 1503.14   1
  -9   2  -2 63922.0 1153.38   1
  -7  -2  -2 62399.3 1723.18   2
  -9   2  -2 60928.7 1686.52   2
   7  -9  -2 65506.3 1422.86   3
  -9   2   1 7999.45 579.953   1
  -7  -2   1 8419.05 413.066   2
  -2   9   1 7856.71 717.570   1
  -7  -2   1 9071.84 499.255   4
   2   7   1 8399.06 727.685   4
  -2   9   1 8445.09 718.522   4
   7  -9   1 8522.02 839.841   3
   2   7   1 8212.15 737.469   1
  -2   9   1 7321.40 501.441   3
  -2   9   1 9962.72 769.191   2
  -9   2   1 7060.72 284.973   4
   7  -9   1 9253.15 508.592   1
   2   7   1 9084.01 761.094   2
   9  -7   1 8360.15 872.461   3
  -7  -2   1 8028.11 649.209   1
   9  -7   4 3175.65 682.186   2
   2   7   4 2256.42 755.903   4
   9  -7   4 2765.13 709.728   4
  -7  -2   4 3276.76 702.652   1
   9  -7   4 3613.98 1024.76   3
   7  -9   4 3519.01 691.445   2
   7  -9   4 2120.96 437.863   1
   7  -9   4 1071.48 827.431   3
  -7  -2   4 2040.65 396.127   4
   2   7   4 1956.86 846.235   2
   7  -9   4 3617.01 719.720   4
  -2   9   4 3038.55 790.735   4
  -9   2   4 2534.78 303.437   4
   2   7   4 2310.27 482.349   3
  -2   9   4 3596.77 920.640   2
   7  -9   7 7813.50 1305.27   3
  -7  -2   7 5866.97 687.380   4
  -9   2   7 4988.90 604.112   4
  -7  -2   7 4688.25 557.167   2
   9  -7   7 5997.97 1154.94   3
   2   7   7 7019.01 805.498   3
  -9   2   7 6545.13 672.134   2
   7  -9  10 4249.61 1279.11   3
   2   7  10 4084.91 879.302   3
   9  -7  10 5343.33 1407.76   3
   6  -9  -9-1407.75 888.551   4
  -9   3  -9-1348.20 997.620   2
   6  -9  -9 398.768 1008.12   2
   9  -6  -9-166.961 848.551   2
   3   6  -9 132.690 964.480   1
  -6  -3  -9-736.133 1093.28   2
   9  -6  -9 323.143 740.276   4
  -9   3  -9-264.325 783.921   1
  -3   9  -9 665.580 883.202   1
  -6  -3  -9 157.762 1085.41   4
   9  -6  -9-174.022 1022.07   1
  -9   3  -9 355.386 1014.98   4
  -6  -3  -6 21745.5 1477.84   3
  -6  -3  -6 24134.2 1592.40   2
   9  -6  -6 22846.4 1489.18   1
   6  -9  -6 22687.3 1082.13   3
  -9   3  -6 23375.7 1523.33   2
  -9   3  -6 18314.3 1351.68   4
   3   6  -6 24246.6 1452.08   1
   9  -6  -6 21535.9 1285.08   2
   9  -6  -6 21824.0 1428.36   3
  -6  -3  -6 22978.2 1498.41   4
   9  -6  -6 23788.5 1100.66   4
  -3   9  -6 23904.9 1270.30   1
   6  -9  -6 24895.9 1587.00   2
   6  -9  -6 25984.9 1390.52   4
  -9   3  -3 11693.2 603.613   1
   6  -9  -3 10733.6 844.672   4
   9  -6  -3 11472.9 555.268   4
   3   6  -3 10462.3 972.904   1
   3   6  -3 11199.7 1180.34   3
  -9   3  -3 10520.0 974.054   2
  -6  -3  -3 9915.64 830.280   1
  -6  -3  -3 11770.3 1027.38   2
  -6  -3  -3 10492.0 904.438   3
  -9   3  -3 11396.7 943.673   4
   6  -9  -3 11975.4 1187.36   2
   6  -9  -3 11225.1 572.933   3
   9  -6  -3 12014.7 913.258   2
  -6  -3  -3 12334.7 1024.03   4
   9  -6  -3 11532.5 956.803   1
  -3   9  -3 12169.3 1222.50   3
  -9   3  -3 10261.5 1185.71   3
  -3   9  -3 11670.6 894.767   1
  -6  -3   0 39140.8 1034.19   4
  -6  -3   0 43558.8 1202.25   1
   9  -6   0 39673.5 1519.25   3
   9  -6   0 38776.8 742.071   1
   6  -9   0 44297.3 1041.54   1
   6  -9   0 39197.5 1288.26   3
   3   6   0 42442.2 1328.58   1
   3   6   0 41751.6 1136.23   2
  -3   9   0 39865.7 1181.90   1
  -3   9   0 43275.2 1235.78   3
  -9   3   0 41808.5 856.290   4
  -6  -3   0 40345.2 1033.49   2
  -9   3   0 42694.0 891.299   1
   3   6   0 42272.4 1198.29   4
   3   6   3-7.89946 700.354   4
   9  -6   3 139.416 831.760   3
   6  -9   3 1302.95 897.913   3
  -3   9   3-24.0786 697.784   4
   9  -6   3 1404.29 683.464   2
  -3   9   3 163.152 745.583   2
   6  -9   3 617.813 430.089   1
  -6  -3   3 377.316 569.680   1
   3   6   3 606.910 498.126   3
   3   6   3 468.021 846.357   2
   9  -6   3 534.322 575.169   4
  -9   3   6 8258.78 612.427   4
  -6  -3   6 5996.98 484.298   2
   3   6   6 7095.28 793.980   3
   9  -6   6 7326.42 1126.70   3
  -9   3   6 7632.93 663.227   2
  -6  -3   6 7871.51 696.123   4
   9  -6   9-759.242 1107.19   3
   6  -9   9 176.662 1094.43   3
   3   6   9 1158.17 770.326   3
   9  -5 -10 3853.82 1312.14   1
  -4   9 -10 6417.13 1237.22   1
   5  -9 -10 2887.09 1128.01   4
  -9   4 -10 5104.55 1267.61   2
   9  -5 -10 3911.10 928.409   4
   5  -9 -10 4054.26 1297.89   2
  -5  -4 -10 6887.39 1421.67   4
   4   5 -10 3248.24 1229.88   1
  -9   4 -10 5669.18 1271.10   4
  -9   4 -10 4341.77 1013.56   1
  -5  -4 -10 4824.66 1453.07   2
   9  -5 -10 3793.71 987.623   2
  -5  -4  -7 42386.8 2078.72   3
   4   5  -7 37888.2 1915.14   1
  -9   4  -7 42646.2 1623.08   1
  -5  -4  -7 37950.7 2033.94   2
   9  -5  -7 37233.2 1976.62   1
   5  -9  -7 38652.8 1800.41   4
   5  -9  -7 41424.6 1585.73   3
  -5  -4  -7 41369.6 2061.14   4
   9  -5  -7 35617.2 1552.81   2
  -9   4  -7 39059.0 1965.18   2
  -4   9  -7 41422.6 1689.17   1
   5  -9  -7 42894.2 2083.12   2
   9  -5  -7 41760.7 1528.51   4
  -9   4  -7 42914.1 2057.00   4
  -5  -4  -4 1471.79 647.417   3
  -5  -4  -4 1201.02 849.891   2
   9  -5  -4 97.8148 650.809   1
  -9   4  -4 1410.50 877.036   3
   9  -5  -4 1654.42 390.961   4
  -4   9  -4 697.423 902.477   3
   4   5  -4 1500.33 759.596   1
  -4   9  -4 998.372 601.099   1
   4   5  -4 1666.05 865.545   3
   5  -9  -4 825.038 282.597   3
  -9   4  -4 686.192 692.451   4
   5  -9  -4 1671.95 908.522   2
   5  -9  -4 1571.15 656.284   4
  -5  -4  -4 837.463 660.804   4
  -5  -4  -4-189.622 622.787   1
  -9   4  -4 1323.21 688.851   2
   9  -5  -4 1217.72 663.925   2
  -5  -4  -1 58867.4 1456.76   1
  -5  -4  -1 56727.8 1440.54   2
  -9   4  -1 55998.1 730.582   1
  -4   9  -1 63092.9 1721.75   3
   5  -9  -1 59259.4 1624.90   2
  -4   9  -1 56915.1 1292.72   1
   5  -9  -1 59914.7 1387.15   1
  -9   4  -1 57637.1 1246.74   4
   9  -5  -1 56982.9 1172.61   1
   5  -9  -1 56207.5 1198.98   3
   4   5  -1 58956.9 1509.42   1
   4   5  -1 58422.4 1714.95   3
   9  -5  -1 58052.2 1758.22   3
   4   5  -1 59079.2 1055.35   2
   5  -9  -1 58921.4 1463.30   4
  -5  -4  -1 56408.7 1381.68   4
  -9   4  -1 54157.6 1717.01   3
  -5  -4   2 7094.00 687.953   1
   9  -5   2 5677.43 871.212   3
   9  -5   2 7931.36 681.374   4
   4   5   2 5543.60 671.361   1
  -5  -4   2 5780.64 512.490   4
  -4   9   2 7727.53 766.366   2
   4   5   2 6647.81 687.229   4
   9  -5   2 7319.42 707.865   2
   5  -9   2 5915.15 867.913   3
  -4   9   2 6873.57 719.492   4
   5  -9   2 7654.48 547.607   1
   4   5   2 7197.41 796.780   2
   4   5   2 5697.94 620.483   3
   4   5   5 26393.1 1213.06   3
  -5  -4   5 25667.1 1048.16   4
  -9   4   5 23932.5 965.754   2
   5  -9   5 24987.2 1195.77   2
  -9   4   5 24121.7 824.313   4
   5  -9   5 24515.7 1057.67   1
   9  -5   5 26669.1 1657.56   3
  -5  -4   5 23649.3 657.621   2
   5  -9   5 27243.5 1692.94   3
  -4   9   5 23621.7 1218.00   4
  -9   4   8 6482.07 772.595   4
   9  -5   8 8051.76 1371.12   3
   5  -9   8 6115.67 1308.46   3
  -9   4   8 5005.22 836.931   2
   4   5   8 5976.31 977.591   3
  -5  -4   8 7133.96 806.050   2
   5  -9  11 15458.5 1950.66   3
   9  -5  11 18350.5 2000.19   3
   4   5  11 12954.8 1435.57   3
   4  -9 -11 18673.3 1944.96   2
   4  -9 -11 22520.6 2318.54   1
   9  -4 -11 20826.8 2087.99   1
  -4  -5 -11 15538.5 1854.95   2
   9  -4 -11 14238.2 1383.31   2
  -9   5 -11 21460.8 1670.12   1
  -9   5 -11 16112.5 1802.59   2
   5   4 -11 20395.2 1999.96   1
  -5   9 -11 19427.7 1766.39   1
   4  -9 -11 18011.2 1912.55   4
  -4  -5 -11 18396.1 1938.24   4
  -4  -5  -8 9563.81 1265.92   4
   4  -9  -8 6238.68 1100.76   4
  -9   5  -8 7563.61 1226.94   2
  -9   5  -8 10112.9 1036.24   1
  -4  -5  -8 10118.9 1437.43   2
  -4  -5  -8 9354.23 1264.79   3
   4  -9  -8 10209.7 1324.95   2
   9  -4  -8 10566.4 1088.82   2
  -9   5  -8 11672.8 1401.48   4
   9  -4  -8 9200.65 1358.70   1
   5   4  -8 10911.4 1334.85   1
   9  -4  -8 9335.56 929.737   4
   4  -9  -8 9759.10 1034.64   3
  -5   9  -8 8642.81 1073.37   1
  -9   5  -5 30056.5 1499.23   4
   9  -4  -5 28332.2 1548.44   3
   4  -9  -5 24801.3 1594.55   2
   5   4  -5 26713.3 1425.59   1
  -4  -5  -5 28201.6 1565.51   2
   9  -4  -5 26353.4 1456.84   1
  -4  -5  -5 28491.3 1486.73   4
  -4  -5  -5 27180.1 1414.77   1
   9  -4  -5 27084.9 919.680   4
   4  -9  -5 27034.2 829.359   3
   4  -9  -5 25104.7 1285.82   4
  -9   5  -5 27806.0 1448.76   2
   9  -4  -5 27312.5 1138.34   2
  -5   9  -5 28125.2 1145.59   1
  -4  -5  -5 25776.6 1301.62   3
  -9   5  -5 27854.4 1016.26   1
  -5   9  -2 6968.01 903.232   3
  -9   5  -2 7884.38 908.164   3
  -4  -5  -2 7040.51 708.635   1
  -4  -5  -2 7139.24 809.550   2
   4  -9  -2 6781.07 693.736   1
   5   4  -2 9151.87 969.923   3
  -5   9  -2 7402.82 585.719   1
  -4  -5  -2 8080.24 770.470   4
   4  -9  -2 7464.03 871.770   2
   4  -9  -2 8371.63 733.350   4
   9  -4  -2 7880.76 654.938   1
  -9   5  -2 6949.09 644.785   4
   5   4  -2 7334.27 774.771   1
   5   4   1 65803.8 1497.46   4
   5   4   1 65917.9 1532.36   2
   5   4   1 61970.4 1505.97   1
   9  -4   1 61953.6 827.780   1
   4  -9   1 59057.4 1708.07   3
   4  -9   1 63616.2 1352.83   1
  -4  -5   1 64091.1 1376.36   4
  -4  -5   1 64007.3 1115.21   2
  -5   9   1 65024.1 1287.12   3
   9  -4   1 64617.3 1963.49   3
   9  -4   1 64293.1 1540.59   2
  -4  -5   1 64270.9 1554.37   1
  -5   9   1 65409.7 1492.60   4
   9  -4   1 63657.1 1331.86   4
   9  -4   4 357.500 670.433   2
  -5   9   4 822.171 640.032   4
  -9   5   4 932.738 515.242   2
   9  -4   4 282.179 850.933   3
   5   4   4-318.952 683.699   4
   4  -9   4 465.128 852.140   3
  -4  -5   4 667.330 236.765   2
   5   4   4 400.797 799.593   2
  -4  -5   4 81.2702 826.072   3
  -9   5   4 396.897 355.367   4
   4  -9   4 345.027 496.995   2
   4  -9   4 835.457 469.368   1
   5   4   4 135.915 637.890   3
  -5   9   4 22.7599 695.783   2
   9  -4   4 606.239 585.592   4
  -4  -5   4 406.111 619.969   1
   4  -9   7 36788.3 2147.29   3
   9  -4   7 34384.3 2013.25   3
   5   4   7 31073.6 1599.44   3
  -9   5   7 34251.8 1259.83   4
  -4  -5   7 39185.6 1279.30   2
  -9   5   7 32738.3 1451.11   2
  -4  -5   7 37437.1 2155.55   3
   5   4  10 3321.96 1012.47   3
   4  -9  10 6318.27 1614.56   3
   9  -4  10 4359.89 1345.37   3
  -9   6  -9 681.809 986.089   2
  -6   9  -9 334.332 844.030   1
   9  -3  -9 157.685 724.871   2
   6   3  -9 1107.15 1026.94   1
   6   3  -9 317.158 535.507   2
  -9   6  -9 1010.37 799.226   1
  -3  -6  -9 401.320 1196.52   2
   9  -3  -9-69.7595 1067.48   1
   3  -9  -9 63.3951 941.577   4
   3  -9  -9-1358.86 1175.22   2
  -3  -6  -9 1202.71 1026.92   4
  -3  -6  -6 8673.28 1165.96   2
  -9   6  -6 9450.03 1031.43   4
  -3  -6  -6 9829.90 1128.08   4
  -9   6  -6 10523.0 1122.09   2
  -3  -6  -6 9713.32 929.850   3
   9  -3  -6 8448.67 754.160   2
   9  -3  -6 9041.34 1072.44   1
  -9   6  -6 9751.65 783.732   1
   3  -9  -6 8951.62 1004.60   4
   3  -9  -6 7258.35 1095.15   2
  -6   9  -6 8634.49 799.932   1
   6   3  -6 8454.46 1054.96   1
   9  -3  -6 8936.51 672.162   4
   3  -9  -6 8768.42 651.267   3
  -3  -6  -3 159.078 629.994   1
   6   3  -3-332.381 714.638   1
  -9   6  -3 705.686 878.536   3
   6   3  -3-589.354 825.565   3
   9  -3  -3 289.556 647.670   1
  -3  -6  -3-511.881 675.577   4
   9  -3  -3 291.286 483.461   2
   3  -9  -3 1649.10 737.434   1
   3  -9  -3 1727.59 960.517   2
  -6   9  -3-80.8308 816.384   3
   3  -9  -3 1297.79 700.990   4
  -6   9  -3 571.827 533.400   1
  -3  -6  -3 445.361 881.283   2
  -9   6  -3 532.789 235.395   1
   6   3   0 51097.5 1166.17   4
   9  -3   0 52936.7 1742.18   3
  -3  -6   0 50919.1 1271.40   2
   3  -9   0 49683.6 1294.65   3
  -3  -6   0 53495.1 1449.22   1
   9  -3   0 51761.4 1232.75   2
  -9   6   0 49593.8 1554.71   3
  -6   9   0 50453.6 1162.38   1
   6   3   0 49170.6 1345.69   1
  -3  -6   0 48712.2 1299.66   4
   9  -3   0 53666.5 1001.79   1
   3  -9   0 53641.4 1333.77   1
   3  -9   0 49385.6 1368.83   4
   9  -3   0 52467.3 976.677   4
   3  -9   0 51678.3 1417.35   2
   6   3   0 54379.5 1214.99   2
  -6   9   0 54734.4 1496.23   3
   9  -3   3 10921.5 999.239   2
  -9   6   3 10474.5 522.257   4
   9  -3   3 10172.4 1185.01   3
  -3  -6   3 10598.4 496.232   2
  -3  -6   3 11293.7 1216.55   3
   6   3   3 9557.77 969.784   3
   6   3   3 10638.6 912.936   4
  -6   9   3 9814.35 964.130   2
  -3  -6   3 10354.1 851.340   1
  -6   9   3 10313.1 836.932   4
   6   3   3 11259.2 1035.97   2
   9  -3   3 10576.4 898.952   4
   3  -9   3 9618.57 1124.31   3
   3  -9   3 11558.4 778.786   1
  -9   6   6 19734.0 920.938   4
   3  -9   6 20208.1 1074.17   2
  -3  -6   6 22722.6 913.589   2
   6   3   6 22870.1 1372.65   3
   3  -9   6 21357.2 1672.08   3
  -9   6   6 21832.0 1170.21   2
  -3  -6   6 22764.8 1637.41   3
   9  -3   6 21870.7 1613.37   3
  -3  -6   6 21186.1 1144.64   4
  -6   9   6 23227.3 1235.85   4
  -3  -6   9 1507.15 1085.02   3
   9  -3   9-482.477 1133.11   3
   3  -9   9 1414.97 1138.11   3
   6   3   9-565.554 876.012   3
   9  -2 -10 3922.57 897.484   2
   2  -9 -10 4926.22 1436.78   2
   7   2 -10 3778.45 736.148   2
  -2  -7 -10 3874.04 1281.39   4
  -2  -7 -10 2918.85 1239.03   2
  -9   7 -10 4552.79 1234.40   2
  -7   9 -10 4482.93 1013.28   1
   2  -9 -10 4015.90 1173.30   4
   9  -2 -10 7145.65 1488.12   1
   7   2 -10 6533.27 1359.65   1
  -9   7 -10 4568.78 995.934   1
   2  -9  -7 7837.12 1243.70   2
  -2  -7  -7 7950.80 1089.17   4
   7   2  -7 7497.44 589.048   2
  -9   7  -7 7070.79 1056.01   2
  -9   7  -7 7737.37 776.478   1
   7   2  -7 7626.51 1148.72   1
   2  -9  -7 8398.76 1098.69   4
   2  -9  -7 6348.19 782.542   3
   9  -2  -7 7277.18 761.561   2
  -2  -7  -7 7347.84 926.681   3
  -2  -7  -7 8688.73 1304.05   2
  -7   9  -7 7680.16 910.578   1
   9  -2  -7 8093.82 1145.62   1
   2  -9  -4 2130.67 944.556   2
  -2  -7  -4 3643.00 838.743   4
  -7   9  -4 3111.30 502.994   1
  -2  -7  -4 1754.06 829.649   2
  -9   7  -4 1961.18 898.959   3
  -2  -7  -4 3234.29 692.451   1
  -7   9  -4 4198.32 1003.59   3
   9  -2  -4 2470.80 485.946   2
   7   2  -4 1802.90 772.296   1
   7   2  -4 2786.18 894.144   3
   2  -9  -4 3009.35 797.385   4
   9  -2  -4 2759.03 825.137   3
   2  -9  -4 2678.24 756.481   1
   9  -2  -4 2251.13 710.230   1
  -9   7  -4 2789.07 385.381   1
   2  -9  -1 8869.49 503.070   3
  -9   7  -1 9420.47 934.857   3
   9  -2  -1 7982.57 606.278   1
   2  -9  -1 7626.75 677.740   1
   7   2  -1 6605.98 678.265   1
  -7   9  -1 7769.43 448.908   1
   9  -2  -1 6420.94 285.693   4
   2  -9  -1 7302.10 778.779   2
  -2  -7  -1 7463.96 746.874   2
  -2  -7  -1 7518.27 703.633   4
   7   2  -1 8154.71 475.820   4
  -7   9  -1 6868.37 813.853   3
   9  -2  -1 7157.99 466.510   2
  -2  -7  -1 7332.11 695.419   1
   7   2  -1 7042.60 435.707   2
   2  -9  -1 5404.96 704.867   4
  -7   9   2 59502.6 1393.99   4
   2  -9   2 59683.6 1837.41   3
   9  -2   2 60262.7 1653.69   2
   9  -2   2 62010.6 2060.04   3
   2  -9   2 62388.8 1492.60   1
   7   2   2 59386.7 1711.29   2
  -2  -7   2 61563.0 1153.99   2
   9  -2   2 59872.9 1507.33   4
   7   2   2 60877.1 1601.93   4
   7   2   2 57415.8 1860.75   3
  -2  -7   2 61209.8 1569.81   1
   7   2   2 60613.1 1446.42   1
   9  -2   2 60286.1 1109.77   1
  -2  -7   2 55870.7 1886.03   3
   2  -9   5 44944.0 2060.17   3
  -2  -7   5 47472.6 1129.07   2
   7   2   5 45996.7 1869.19   3
  -9   7   5 45771.0 1541.04   2
  -9   7   5 47278.4 1281.19   4
   2  -9   5 46116.6 1406.71   2
   9  -2   5 47861.5 2094.03   3
  -2  -7   5 49348.4 2135.81   3
   2  -9   5 45978.7 1537.06   1
  -7   9   5 44546.0 1714.09   2
  -2  -7   5 44150.4 1498.09   4
  -7   9   5 47247.9 1505.73   4
   7   2   8 2930.93 919.576   3
   9  -2   8 3706.33 1048.97   3
   2  -9   8 5142.97 1281.52   3
  -2  -7   8 3493.35 698.577   2
  -2  -7   8 4585.80 1388.41   3
   7   2  11 14901.2 1621.93   3
  -2  -7  11 11935.4 1760.76   3
   2  -9  11 16096.9 1936.51   3
   9  -2  11 13042.1 1714.24   3
   9  -1 -11 12425.0 1736.60   1
  -1  -8 -11 9518.20 1713.76   2
   1  -9 -11 9075.71 1549.60   4
   8   1 -11 5732.64 1476.81   1
   1  -9 -11 10150.7 1714.10   2
  -9   8 -11 9322.00 1245.75   1
  -1  -8 -11 8256.06 1654.59   4
  -8   9 -11 9645.17 1314.59   1
   1  -9  -8 15154.8 1538.59   2
   9  -1  -8 13634.9 1522.49   1
   9  -1  -8 11578.0 882.185   2
   1  -9  -8 13210.5 1154.19   3
   8   1  -8 13342.9 1518.69   1
  -1  -8  -8 15160.3 1636.67   2
  -8   9  -8 14974.4 1215.88   1
   1  -9  -8 13223.9 1417.76   4
   8   1  -8 10771.0 766.213   2
  -9   8  -8 13471.4 1076.29   1
  -1  -8  -8 13081.0 1216.15   3
  -1  -8  -8 12567.7 1458.26   4
  -1  -8  -5 18119.1 801.300   3
   8   1  -5 18933.8 1266.25   1
   1  -9  -5 19878.6 1257.13   4
   1  -9  -5 20245.3 1490.45   2
  -1  -8  -5 17337.7 1253.06   4
  -9   8  -5 20052.9 833.422   1
  -8   9  -5 18222.2 854.119   1
   1  -9  -5 15834.6 564.150   3
   9  -1  -5 18977.3 698.562   2
  -1  -8  -5 17875.5 1403.43   2
   9  -1  -5 18696.6 1260.33   1
   8   1  -2 7446.66 333.956   2
  -8   9  -2 11115.4 1123.08   3
  -1  -8  -2 7984.35 834.990   1
  -9   8  -2 9706.64 1065.14   3
   9  -1  -2 8571.19 441.423   2
  -1  -8  -2 7921.68 843.187   4
   1  -9  -2 8842.38 925.305   4
  -1  -8  -2 9466.67 1064.81   2
  -8   9  -2 8947.00 463.468   1
   1  -9  -2 8925.13 837.877   1
   8   1  -2 9565.85 865.540   1
   9  -1  -2 7546.62 785.932   1
   1  -9  -2 9257.00 1097.52   2
   8   1   1 30691.1 1401.38   3
   9  -1   1 29768.4 983.044   4
   9  -1   1 29806.4 1107.42   2
   8   1   1 29678.9 1021.69   1
   9  -1   1 29448.3 1454.39   3
   1  -9   1 31280.0 1165.11   1
  -1  -8   1 28367.0 1144.40   1
   1  -9   1 27264.3 1240.68   3
  -1  -8   1 29957.5 1255.70   3
   1  -9   1 30409.6 1181.03   4
  -1  -8   1 30264.3 1171.29   4
  -1  -8   1 28497.7 990.808   2
   8   1   1 31144.0 1036.37   4
  -8   9   1 31481.0 1135.23   3
  -9   8   1 31167.0 1214.76   3
   9  -1   1 29354.3 918.723   1
   1  -9   1 29265.3 1060.28   2
   8   1   1 30058.4 1132.31   2
   1  -9   4 17647.8 848.371   2
  -1  -8   4 18269.0 1071.71   1
   1  -9   4 18207.6 1014.96   1
   9  -1   4 18454.9 1316.96   2
   9  -1   4 19504.3 1403.68   3
  -8   9   4 18989.7 1128.95   2
  -9   8   4 17611.9 1076.06   2
   9  -1   4 18071.5 1177.82   4
  -8   9   4 19500.5 967.316   4
  -1  -8   4 18536.4 743.938   2
   8   1   4 20502.5 1292.19   3
   8   1   4 18180.3 1132.14   4
  -9   8   4 16536.7 821.281   4
  -1  -8   4 18863.5 1424.95   3
   8   1   4 16837.8 1250.54   2
   1  -9   4 22105.6 1495.39   3
   9  -1   7 34749.5 2022.32   3
   8   1   7 34648.1 1892.92   3
  -1  -8   7 33365.2 2049.21   3
  -9   8   7 28668.1 1315.23   4
   1  -9   7 30744.1 1349.81   2
   1  -9   7 33528.6 2122.43   3
  -1  -8   7 31968.8 1279.36   2
   8   1  10 7198.33 1323.97   3
   9  -1  10 8914.70 1524.32   3
  -1  -8  10 7780.80 1550.86   3
   1  -9  10 6330.79 1413.31   3
  -9   9  -9 164.287 742.562   1
   0  -9  -9 776.841 1122.74   2
   9   0  -9-185.517 1113.11   1
   9   0  -9 328.474 547.131   2
   0  -9  -9 518.592 1015.31   4
   0  -9  -6 9462.43 671.491   3
   9   0  -6 7692.91 489.920   2
   0  -9  -6 10072.7 1274.21   2
   9   0  -6 10940.5 1129.31   1
  -9   9  -6 9830.84 801.913   1
   0  -9  -6 9215.01 1080.12   4
   0  -9  -3-258.529 678.345   1
   0  -9  -3 263.086 711.414   4
  -9   9  -3 635.280 347.948   1
  -9   9  -3 212.121 843.860   3
   9   0  -3-186.128 735.549   1
   0  -9  -3 184.470 876.138   2
   9   0   0 26321.8 809.737   4
   0  -9   0 24759.0 1113.97   1
   0  -9   0 25370.7 1125.21   2
  -9   9   0 24955.2 1223.81   3
   9   0   0 26831.7 945.956   2
   0  -9   0 25024.0 1151.57   4
   9   0   0 24648.3 963.121   1
   9   0   3-510.812 811.156   3
   0  -9   3 221.895 618.018   1
   9   0   3 466.969 763.154   2
   0  -9   3 387.319 897.817   3
   9   0   3 11.8591 624.399   4
  -9   9   3 206.723 487.746   4
   0  -9   6 9902.27 731.623   2
   9   0   6 12184.5 1303.44   3
   0  -9   6 9987.62 1327.40   3
  -9   9   6 10753.0 859.629   4
   0  -9   9-1066.31 1206.46   3
   9   0   9-1602.40 993.237   3
 -10   0 -10 20292.4 1982.55   2
 -10   0 -10 24586.4 2167.71   4
   0  10 -10 21161.0 1847.84   1
  10 -10 -10 21861.0 1713.74   4
  10 -10 -10 22329.7 1842.46   2
  10 -10  -7 1751.10 699.016   4
 -10   0  -7 315.155 907.667   2
  10 -10  -7 408.360 726.606   3
   0  10  -7-770.495 869.203   1
 -10   0  -7 226.161 850.255   4
  10 -10  -7-1251.37 966.261   2
  10 -10  -4 113495. 2064.11   4
 -10   0  -4 105103. 2962.06   3
 -10   0  -4 115052. 2718.51   4
 -10   0  -4 116289. 2143.84   1
 -10   0  -4 113282. 2738.97   2
  10 -10  -4 117182. 2718.98   2
   0  10  -4 106388. 2433.57   1
   0  10  -1 1198.42 765.662   1
 -10   0  -1 158.821 556.101   1
   0  10  -1 747.904 740.364   3
  10 -10  -1 193.874 585.470   4
  10 -10  -1 405.430 669.704   3
 -10   0  -1 226.663 505.312   4
 -10   0  -1 488.525 570.124   2
   0  10   2 105922. 2362.24   4
   0  10   2 101337. 2397.37   2
  10 -10   2 93489.8 2724.03   3
   0  10   2 94958.8 1440.58   3
 -10   0   2 101405. 2052.28   1
  10 -10   2 95470.9 946.209   1
  10 -10   5-313.693 815.047   3
 -10   0   5-10.0531 265.026   4
  10 -10   8 22378.7 1996.09   3
 -10   0   8 19098.5 1038.41   4
   0  10   8 20783.4 958.965   3
  10 -10  11 2112.76 1323.21   3
  10  -9 -11 9970.05 1413.07   4
  10  -9 -11 8892.04 1432.45   2
 -10   1 -11 8640.41 1374.82   1
  10  -9 -11 11502.1 1855.22   1
 -10   1 -11 10355.8 1582.91   2
   9 -10 -11 13522.8 1917.56   1
  -9  -1 -11 8536.69 1599.50   2
   1   9 -11 11251.3 1629.62   1
   9 -10 -11 8589.51 1454.89   2
  -1  10 -11 11461.9 1579.44   1
   9 -10 -11 8561.75 1396.47   4
 -10   1 -11 7820.34 1576.84   4
  -9  -1 -11 9632.29 1480.57   1
  -9  -1 -11 7698.26 1508.86   4
  10  -9  -8 1352.92 859.787   3
  -9  -1  -8 1600.06 1025.51   4
 -10   1  -8 954.959 1003.32   2
  -9  -1  -8 1455.32 979.350   2
   9 -10  -8 1154.78 876.516   4
   1   9  -8 706.612 968.283   1
  -1  10  -8 886.792 895.738   1
   9 -10  -8 2064.90 887.514   3
  10  -9  -8-1047.37 1027.35   1
  10  -9  -8 1879.74 769.306   4
 -10   1  -8 2946.37 1000.76   4
   9 -10  -8 1162.38 1016.68   2
  10  -9  -8 2282.50 988.823   2
   1   9  -5 7105.15 953.714   1
  -9  -1  -5 7035.60 752.146   1
  10  -9  -5 8712.23 1034.12   2
  -1  10  -5 7299.91 896.087   1
  10  -9  -5 7153.89 832.776   3
 -10   1  -5 7111.42 973.255   2
  -9  -1  -5 5781.75 964.961   2
  -9  -1  -5 7605.00 1040.67   3
   9 -10  -5 7099.07 720.263   3
   9 -10  -5 8661.05 1106.35   2
   9 -10  -5 8303.98 782.423   4
  10  -9  -5 6015.63 652.997   4
 -10   1  -5 6751.98 691.365   1
 -10   1  -5 6639.79 1060.92   3
 -10   1  -5 6688.92 920.774   4
  -9  -1  -5 5952.12 935.064   4
  -9  -1  -2 4747.31 803.278   2
 -10   1  -2 4118.26 857.330   3
  10  -9  -2 5362.53 860.696   2
  -1  10  -2 3891.14 945.696   3
   1   9  -2 4448.12 888.021   1
   9 -10  -2 4864.95 684.764   4
  10  -9  -2 6479.50 880.427   3
 -10   1  -2 3838.55 761.261   2
   1   9  -2 3015.48 863.985   3
 -10   1  -2 4711.21 744.568   4
  -9  -1  -2 5955.70 757.833   1
 -10   1  -2 4653.20 634.730   1
  -9  -1  -2 4385.58 750.394   4
   9 -10  -2 4569.01 931.841   2
  -1  10  -2 4389.76 861.913   1
  10  -9  -2 4930.67 637.981   4
   9 -10  -2 5044.83 750.126   3
  10  -9   1 7492.50 347.051   1
  10  -9   1 8202.97 1046.94   3
   9 -10   1 8052.97 984.100   3
   1   9   1 6959.96 865.861   1
  -1  10   1 10090.7 692.119   3
   9 -10   1 9308.04 525.462   1
   1   9   1 7599.20 668.129   3
   1   9   1 7046.25 818.218   4
  -9  -1   1 7890.26 503.668   2
  -1  10   1 8188.30 944.690   2
  -9  -1   1 9075.55 520.025   4
 -10   1   1 8175.71 411.747   4
  -1  10   1 7275.27 834.979   4
  -9  -1   1 7545.22 724.532   1
  -1  10   1 7540.33 829.500   1
 -10   1   1 7006.39 641.972   1
   1   9   1 7004.98 847.701   2
   9 -10   4 16264.5 1425.85   3
   9 -10   4 16652.0 1099.53   2
  10  -9   4 13897.2 1346.74   3
 -10   1   4 13792.7 444.594   4
  -9  -1   4 16097.3 598.218   4
   1   9   4 14757.7 605.789   3
  -9  -1   7 12304.2 589.990   2
  -9  -1   7 13574.9 837.313   4
   1   9   7 14919.9 876.531   3
  -1  10   7 13406.5 670.792   3
 -10   1   7 13649.2 815.512   4
 -10   1   7 13402.9 732.522   2
  10  -9  10 3228.85 1340.31   3
   9 -10  10 4180.76 1538.39   3
   1   9  10 1595.00 655.840   3
 -10   2  -9 4826.17 1201.16   2
   8 -10  -9 3002.58 1116.28   2
  10  -8  -9 4565.07 1095.26   2
   2   8  -9 7530.56 1304.65   1
  -2  10  -9 5977.51 1170.61   1
  -8  -2  -9 3217.35 1130.32   2
  10  -8  -9 4565.05 960.812   4
   8 -10  -9 4058.39 1087.02   4
  10  -8  -9 3924.87 1225.18   1
  -8  -2  -9 3368.36 1163.39   4
 -10   2  -9 5001.23 981.027   1
 -10   2  -9 6858.72 1390.73   4
   2   8  -6 7959.30 1022.82   1
   8 -10  -6 9801.55 1195.48   2
  -2  10  -6 10914.5 1012.65   1
  -8  -2  -6 8887.54 1180.16   2
 -10   2  -6 10693.4 1220.65   2
   8 -10  -6 8462.59 775.467   3
  10  -8  -6 9152.14 1113.86   1
 -10   2  -6 9989.40 862.694   1
   8 -10  -6 10881.7 989.026   4
  10  -8  -6 9527.88 995.504   3
  10  -8  -6 11307.0 1116.74   2
  -8  -2  -6 7411.93 1098.57   4
  -8  -2  -6 9825.97 1175.36   3
  10  -8  -6 10450.9 842.878   4
 -10   2  -6 10362.2 1215.86   4
  -2  10  -3 14126.1 990.679   1
  -8  -2  -3 10206.5 1042.52   2
  -8  -2  -3 11448.9 854.580   1
   2   8  -3 10609.0 1078.62   1
  -2  10  -3 13396.4 1289.87   3
 -10   2  -3 11990.4 970.604   4
  10  -8  -3 10623.8 959.865   2
   2   8  -3 11081.3 1241.51   3
  10  -8  -3 12669.7 678.970   4
  -8  -2  -3 11436.0 1020.90   3
   8 -10  -3 13465.4 1256.19   2
   8 -10  -3 13369.5 807.462   3
 -10   2  -3 10890.5 1025.89   2
  -8  -2  -3 10676.0 1001.77   4
   8 -10  -3 10875.9 839.730   4
 -10   2  -3 9448.95 1082.12   3
 -10   2  -3 13198.0 725.458   1
  10  -8   0 4881.96 832.499   3
   2   8   0 6577.07 715.077   3
   2   8   0 6673.65 664.059   2
   8 -10   0 5608.74 771.634   3
  -2  10   0 6150.32 701.312   3
  -2  10   0 5464.72 701.779   1
   8 -10   0 6041.15 510.850   1
  -8  -2   0 5773.54 656.010   1
   2   8   0 6221.85 738.525   4
   2   8   0 6585.50 785.555   1
  -8  -2   0 6008.90 566.822   4
 -10   2   0 5797.61 521.362   1
 -10   2   0 5653.29 451.324   4
  -2  10   0 6695.56 765.377   2
  -8  -2   0 5523.21 544.442   2
  10  -8   3 26340.6 1634.12   3
  -2  10   3 23888.1 1412.02   2
   2   8   3 24943.8 1332.25   4
  -8  -2   3 28387.0 809.728   4
  -8  -2   3 25372.1 1202.00   1
   2   8   3 26932.9 957.379   3
  10  -8   3 28311.1 1339.85   2
   2   8   3 26154.9 1483.39   2
   8 -10   3 27748.2 793.326   1
   8 -10   3 27731.8 1621.68   3
  -2  10   3 27046.7 1354.54   4
 -10   2   3 27391.3 1228.72   1
  10  -8   3 28228.6 1294.13   4
  -8  -2   6 1549.47 444.326   4
 -10   2   6 778.103 355.548   4
   2   8   6-48.9818 446.352   3
  10  -8   6 532.466 965.641   3
   8 -10   6 1751.93 974.725   3
  -8  -2   6 543.401 204.407   2
   2   8   9 4456.92 823.020   3
   8 -10   9 3315.90 1216.81   3
  10  -8   9 5377.47 1451.27   3
 -10   3 -10 15935.0 1422.68   1
   7 -10 -10 14359.9 1678.33   2
 -10   3 -10 15276.4 1744.69   4
  10  -7 -10 13075.7 1269.38   4
  -7  -3 -10 14442.7 1782.23   2
  -3  10 -10 21214.6 1759.40   1
  10  -7 -10 13712.8 1431.17   2
   7 -10 -10 16583.6 1665.22   4
  10  -7 -10 18038.0 2054.11   1
   7 -10 -10 18933.7 2161.66   1
 -10   3 -10 14539.5 1662.46   2
   3   7 -10 12935.7 1616.85   1
  -7  -3 -10 16223.8 1904.48   4
   7 -10  -7-381.326 933.767   2
  -7  -3  -7-1208.97 965.362   2
   3   7  -7 300.177 873.438   1
  10  -7  -7-190.366 752.779   2
  -7  -3  -7-733.795 859.113   3
  10  -7  -7 66.4901 575.192   4
  10  -7  -7 625.050 799.837   3
  -3  10  -7-1300.24 762.062   1
  10  -7  -7 350.760 901.116   1
 -10   3  -7-40.2019 874.024   2
  -7  -3  -7 176.888 861.357   4
   7 -10  -7 351.013 596.532   3
   7 -10  -7 394.815 781.133   4
 -10   3  -7 438.827 878.144   4
  -7  -3  -4 88423.1 2340.23   4
  -7  -3  -4 81381.5 2270.43   3
   3   7  -4 82425.0 2157.73   1
 -10   3  -4 85030.8 2304.89   4
   7 -10  -4 86244.8 2438.69   2
   7 -10  -4 85795.5 1970.16   4
 -10   3  -4 82892.0 2306.98   2
  -7  -3  -4 82228.9 2009.24   1
   7 -10  -4 80817.9 1436.57   3
  10  -7  -4 88130.4 2267.01   1
  -3  10  -4 84629.1 1927.83   1
  10  -7  -4 87757.7 1494.97   4
 -10   3  -4 86698.3 1589.26   1
   7 -10  -4 79806.2 1384.31   3
 -10   3  -4 81814.9 2752.17   3
  10  -7  -4 81557.3 2021.74   2
  -7  -3  -4 84488.0 2435.02   2
   7 -10  -1 12116.2 939.827   2
   7 -10  -1 12399.4 789.168   3
  10  -7  -1 12467.2 640.169   1
  -3  10  -1 11062.2 914.041   3
   3   7  -1 13099.0 685.980   2
  10  -7  -1 12044.0 998.128   3
  -7  -3  -1 12699.8 828.623   2
   3   7  -1 12832.2 944.184   3
 -10   3  -1 13294.3 523.875   1
 -10   3  -1 12453.7 734.002   4
  -7  -3  -1 12232.9 834.635   1
 -10   3  -1 13704.0 825.855   2
  -7  -3  -1 11074.4 780.267   4
   3   7  -1 12194.0 899.210   1
 -10   3  -1 11111.6 1034.13   3
   7 -10  -1 12535.7 740.287   1
   7 -10  -1 14133.6 859.943   4
  -3  10  -1 13118.0 840.407   1
 -10   3   2 48707.2 1393.32   1
  10  -7   2 49181.8 2048.19   3
  10  -7   2 51069.2 1592.34   2
   7 -10   2 49096.7 1863.62   3
  -3  10   2 49927.7 1708.77   2
   7 -10   2 52106.6 1099.37   1
   3   7   2 49999.7 1616.71   4
  -3  10   2 50603.8 1599.93   4
  -7  -3   2 49599.3 1120.56   4
   3   7   2 52248.4 1727.19   2
   3   7   2 50858.3 1613.60   1
  10  -7   2 52203.7 1517.93   4
  -7  -3   2 50774.0 1512.72   1
   7 -10   5 4991.82 701.027   2
   7 -10   5 3930.26 540.741   1
 -10   3   5 4316.47 390.413   4
  -7  -3   5 3512.75 491.523   4
   3   7   5 5265.25 616.509   3
  10  -7   5 5513.15 1038.53   3
   7 -10   5 3807.56 1040.90   3
   3   7   8 31938.3 1514.44   3
  -7  -3   8 24444.2 981.815   2
 -10   3   8 27123.8 1191.68   4
   7 -10   8 29763.1 2257.06   3
  10  -7   8 30686.8 2222.27   3
 -10   3   8 23539.7 1185.36   2
  10  -7  11 118.313 1267.87   3
   3   7  11 1731.69 880.584   3
   7 -10  11 2998.61 1486.13   3
  10  -6 -11 6122.31 1562.99   1
  -4  10 -11 3577.87 1173.33   1
   6 -10 -11 6219.58 1629.67   1
  10  -6 -11 2625.15 1029.16   2
  -6  -4 -11 2917.21 1293.46   2
 -10   4 -11 4907.47 1419.05   2
 -10   4 -11 295.096 1171.68   4
  -6  -4 -11 4317.33 1395.18   4
   6 -10 -11 2519.37 1252.32   2
 -10   4 -11 2970.54 1005.88   1
   6 -10 -11 2756.69 1202.25   4
   4   6 -11 3941.06 1372.98   1
  10  -6  -8 9940.79 1134.45   2
 -10   4  -8 13555.2 1405.92   2
  10  -6  -8 11772.6 1046.37   4
   6 -10  -8 10328.9 1034.76   3
  10  -6  -8 10383.3 1388.89   1
  -6  -4  -8 10798.0 1370.53   4
 -10   4  -8 12646.6 1128.10   1
   6 -10  -8 10659.7 1365.18   2
   4   6  -8 11522.7 1370.44   1
  -4  10  -8 11266.2 1230.73   1
   6 -10  -8 10989.5 1324.49   4
  -6  -4  -8 11577.3 1469.20   2
 -10   4  -8 12327.4 1370.55   4
  -4  10  -5 25883.7 1194.34   1
  -6  -4  -5 24968.7 1330.60   1
  -6  -4  -5 26981.5 1558.49   2
  -6  -4  -5 26618.9 1419.49   3
   4   6  -5 26610.9 1413.99   1
  10  -6  -5 26005.9 1411.86   3
 -10   4  -5 30699.6 1570.63   4
  10  -6  -5 28814.4 965.389   4
  10  -6  -5 29805.1 1538.46   1
  10  -6  -5 26206.8 1247.92   2
 -10   4  -5 27719.5 1497.95   2
   6 -10  -5 24656.9 844.235   3
   6 -10  -5 27036.1 1312.61   4
  -6  -4  -5 23138.4 1435.96   4
   6 -10  -5 26327.9 1552.12   2
  -6  -4  -2 30471.5 1356.49   2
   6 -10  -2 32492.8 1485.70   2
   6 -10  -2 29949.3 876.464   3
   4   6  -2 28939.5 1292.84   1
 -10   4  -2 29583.8 1271.86   2
   6 -10  -2 29479.1 1203.56   4
 -10   4  -2 29768.7 666.012   1
   4   6  -2 29077.7 1487.93   3
  -4  10  -2 31540.0 1612.15   3
  -4  10  -2 29788.3 1147.05   1
  -6  -4  -2 30604.6 1293.11   4
  10  -6  -2 30131.0 649.829   4
   6 -10  -2 30526.1 1211.54   1
 -10   4  -2 29413.6 1534.62   3
  10  -6  -2 30063.3 1101.66   1
 -10   4  -2 32815.9 1251.57   4
  -6  -4  -2 27918.0 1209.39   1
  10  -6   1 1390.92 413.105   4
  -4  10   1 1349.88 542.189   4
  -6  -4   1 1319.78 329.960   2
  -4  10   1 1252.49 375.998   3
   6 -10   1 1226.26 438.960   1
   4   6   1 1494.54 559.718   1
   4   6   1 1608.69 523.068   4
   6 -10   1 628.509 552.084   3
  10  -6   1 1659.32 520.712   2
  -6  -4   1 1399.72 434.051   4
 -10   4   1 1785.01 425.683   1
  -4  10   1 2515.12 664.324   2
   4   6   1 1500.16 600.552   2
  -4  10   1 1383.67 534.210   1
  -6  -4   1 1263.76 516.765   1
  10  -6   1 1621.81 720.986   3
   4   6   4 13127.3 901.638   3
 -10   4   4 11395.8 448.112   4
  -4  10   4 14376.6 1159.82   2
  10  -6   4 13500.2 1044.75   2
   4   6   4 11790.7 997.335   4
   6 -10   4 14512.0 954.088   2
   6 -10   4 15652.1 1338.00   3
   4   6   4 14447.5 1247.20   2
   6 -10   4 13822.8 768.207   1
  -6  -4   4 12874.7 973.210   1
  10  -6   4 12640.1 1246.63   3
  -4  10   4 14852.5 1060.32   4
  10  -6   4 12876.7 1017.84   4
  10  -6   7 8804.62 1340.18   3
 -10   4   7 7733.24 680.161   4
 -10   4   7 7365.29 786.004   2
  -6  -4   7 5458.16 567.039   2
   6 -10   7 8304.97 1384.65   3
  -6  -4   7 7785.16 810.442   4
   4   6   7 8272.92 908.130   3
   4   6  10 12977.1 1284.87   3
   6 -10  10 13193.1 1916.75   3
  10  -6  10 14941.6 1851.71   3
 -10   5  -9 13088.2 1191.70   1
  10  -5  -9 13991.5 1674.30   1
 -10   5  -9 13223.0 1534.61   2
  -5  -5  -9 11453.7 1576.16   2
  10  -5  -9 10047.7 1186.79   2
  10  -5  -9 11146.2 1067.84   4
   5 -10  -9 11829.9 1530.66   2
 -10   5  -9 12900.3 1539.96   4
  -5  -5  -9 12176.4 1566.02   4
   5 -10  -9 10268.3 1375.67   4
  -5  10  -9 11472.0 1314.52   1
   5   5  -9 11511.1 1444.50   1
  -5  -5  -6 8069.33 1009.91   3
   5 -10  -6 7418.72 592.595   3
  -5  -5  -6 8466.46 1088.40   4
 -10   5  -6 8729.91 760.484   1
  -5  10  -6 8651.29 865.402   1
  10  -5  -6 9227.93 1067.27   1
 -10   5  -6 9559.92 1111.71   2
  10  -5  -6 8049.91 1076.57   3
   5 -10  -6 6191.80 911.253   4
  -5  -5  -6 7123.98 1074.18   2
  10  -5  -6 8335.71 682.775   4
  10  -5  -6 8261.08 858.440   2
   5 -10  -6 9596.31 1227.92   2
 -10   5  -6 5672.12 1001.45   4
   5   5  -6 8088.51 1049.76   1
 -10   5  -3 17636.6 1378.55   3
  10  -5  -3 14350.4 395.827   4
   5   5  -3 16409.5 1162.89   1
 -10   5  -3 18561.7 560.830   1
  -5  -5  -3 19266.2 1262.93   2
  -5  -5  -3 16444.2 1075.12   1
  -5  10  -3 18325.7 936.372   1
  10  -5  -3 18001.4 1059.84   1
   5   5  -3 17200.9 1333.02   3
  10  -5  -3 18801.0 979.433   2
  -5  10  -3 22610.0 1523.59   3
   5 -10  -3 22153.5 1475.87   2
  -5  -5  -3 17216.7 1146.20   4
   5 -10  -3 18091.9 1092.39   4
 -10   5  -3 16193.1 1091.76   2
 -10   5  -3 17784.0 1109.51   4
  10  -5   0 56079.2 1852.21   3
   5 -10   0 56937.8 1510.03   4
  -5  10   0 60822.2 1595.99   3
   5   5   0 57462.2 1564.44   1
   5 -10   0 60104.6 1626.15   2
   5   5   0 61000.6 1424.90   4
  -5  -5   0 58381.5 1536.71   1
   5   5   0 56645.8 1358.54   2
   5 -10   0 54233.4 1488.14   3
   5 -10   0 60490.2 1396.12   1
  -5  -5   0 56508.5 1395.50   4
  10  -5   0 58562.0 1136.38   4
  -5  10   0 58000.1 1410.13   1
  10  -5   0 60447.6 990.422   1
  -5  -5   0 55440.0 1314.04   2
 -10   5   0 58085.1 1008.39   1
   5 -10   3 17224.7 846.314   1
   5   5   3 16370.2 1062.49   3
  10  -5   3 16176.8 1403.79   3
   5   5   3 18183.9 1148.39   4
  10  -5   3 16718.4 1062.32   4
  10  -5   3 17232.2 1136.70   2
   5 -10   3 17651.8 1384.84   3
  -5  10   3 15812.7 1029.78   4
  -5  10   3 15934.6 1135.30   2
  -5  -5   3 17797.3 1056.64   1
   5   5   3 16400.8 1251.55   2
  10  -5   6 7188.35 1104.38   3
  -5  -5   6 6910.49 484.172   2
   5 -10   6 8530.23 1228.11   3
 -10   5   6 7686.31 607.494   4
   5 -10   6 6594.40 741.951   1
   5 -10   6 8447.42 859.244   2
  -5  -5   6 7767.21 724.677   4
 -10   5   6 7561.51 738.070   2
   5   5   6 9189.88 947.321   3
  10  -5   9 11007.6 1505.18   3
   5   5   9 10454.3 1165.58   3
   5 -10   9 9769.37 1565.88   3
  10  -4 -10 17033.8 1900.15   1
  -4  -6 -10 13602.4 1778.12   2
 -10   6 -10 14711.4 1330.92   1
  10  -4 -10 11110.9 1206.22   2
   4 -10 -10 13912.9 1776.61   2
  -6  10 -10 17441.1 1539.95   1
 -10   6 -10 11691.5 1539.97   2
   4 -10 -10 13205.6 1588.91   4
  -4  -6 -10 12773.9 1627.92   4
   6   4 -10 14543.1 1685.88   1
  -4  -6  -7 9101.54 1131.86   3
 -10   6  -7 8381.14 843.405   1
  -4  -6  -7 7919.87 1292.86   2
  10  -4  -7 8831.89 757.304   4
   6   4  -7 10179.7 1279.21   1
  10  -4  -7 8770.44 1156.69   1
   4 -10  -7 10473.5 1368.30   2
  -4  -6  -7 8875.42 1221.18   4
  -6  10  -7 9351.06 949.048   1
   4 -10  -7 9291.98 795.829   3
 -10   6  -7 8834.51 1224.01   4
  10  -4  -7 8810.63 896.452   2
 -10   6  -7 10115.3 1154.04   2
   4 -10  -7 9233.47 1145.52   4
   6   4  -4 13404.2 1069.74   1
 -10   6  -4 12847.7 1347.33   3
  -4  -6  -4 13881.7 1207.98   2
  -6  10  -4 13490.6 1418.85   3
 -10   6  -4 12994.2 1072.06   2
  10  -4  -4 13845.2 827.042   2
   4 -10  -4 13830.8 1014.44   4
  -6  10  -4 13757.2 825.049   1
 -10   6  -4 13693.5 1085.77   4
 -10   6  -4 14227.8 603.986   1
  10  -4  -4 11537.5 444.625   4
   6   4  -4 10856.0 1227.68   3
  -4  -6  -4 13262.6 1127.32   4
  -4  -6  -4 13064.4 1022.64   1
   4 -10  -4 12564.2 1250.91   2
  10  -4  -4 15304.2 1092.59   1
   4 -10  -1 1387.47 458.792   1
  -4  -6  -1 1105.85 579.594   2
 -10   6  -1 1639.83 690.638   3
  -4  -6  -1 866.674 537.295   1
   4 -10  -1 259.704 684.445   2
  -6  10  -1 2723.52 693.070   3
   4 -10  -1 1317.30 385.226   3
  -6  10  -1 1308.07 401.731   1
   4 -10  -1 1898.82 634.081   4
   6   4  -1 2115.04 444.663   4
  10  -4  -1 1606.11 219.640   4
  -4  -6  -1 1382.18 579.251   4
  10  -4  -1 703.473 362.975   1
   6   4  -1 1615.89 387.929   2
   6   4  -1 1501.54 624.715   1
  10  -4   2 29156.1 1649.25   3
  10  -4   2 30183.7 1164.01   4
  -6  10   2 30098.3 1167.31   4
   4 -10   2 30788.7 1080.00   1
   6   4   2 29896.1 1268.72   4
  -4  -6   2 30522.5 1106.78   4
   6   4   2 29523.4 1204.81   1
   4 -10   2 28094.4 1490.19   3
  -6  10   2 29544.0 1330.36   2
  -4  -6   2 29585.7 1213.94   1
   6   4   2 30737.7 1363.39   3
  10  -4   2 30669.2 1305.37   2
   6   4   2 31145.6 1344.43   2
  -4  -6   2 29419.7 781.512   2
  -4  -6   5 22366.9 695.145   2
  -6  10   5 25362.9 1234.95   4
   6   4   5 23875.8 1340.41   3
 -10   6   5 23676.8 845.962   4
  -4  -6   5 25364.5 1647.18   3
   4 -10   5 20783.8 1504.24   3
   4 -10   5 24496.1 1156.41   2
  10  -4   5 21988.5 1629.73   3
 -10   6   5 24106.0 1097.40   2
  -4  -6   5 24228.4 1093.57   4
   4 -10   5 24301.6 1116.82   1
  -4  -6   8 9244.35 833.186   2
 -10   6   8 8743.38 840.580   4
   4 -10   8 8672.69 1450.92   3
  -4  -6   8 10505.5 1570.61   3
   6   4   8 10604.3 1157.82   3
  10  -4   8 10538.3 1471.65   3
   4 -10  11 3244.46 1340.02   3
  10  -4  11 2592.30 1299.00   3
   6   4  11 3831.06 1145.35   3
 -10   7 -11 1764.77 898.794   1
  10  -3 -11 19.9264 764.310   2
  -7  10 -11 2052.44 1042.12   1
   3 -10 -11-683.859 1134.44   2
  -3  -7 -11 2180.43 1369.84   2
   3 -10 -11-102.919 1188.03   4
  10  -3 -11 3633.80 1323.44   1
 -10   7 -11 1848.58 1130.72   2
   7   3 -11 150.704 1293.47   1
  -3  -7 -11 500.076 1276.86   4
   3 -10  -8 27748.7 1838.77   4
   7   3  -8 29309.9 1936.54   1
 -10   7  -8 30196.4 1900.17   2
  -3  -7  -8 25306.5 1971.88   2
   3 -10  -8 28746.2 1988.21   2
 -10   7  -8 33494.0 1504.91   1
  -3  -7  -8 31649.1 2013.94   4
  10  -3  -8 30977.4 2001.04   1
  -3  -7  -8 31319.7 1817.82   3
  10  -3  -8 28846.0 1358.37   2
   3 -10  -8 29545.3 1407.93   3
  -7  10  -8 32953.5 1590.31   1
  -3  -7  -5 5458.29 657.128   3
  -7  10  -5 4515.73 610.118   1
  10  -3  -5 5002.21 987.508   3
   3 -10  -5 6143.81 1051.61   2
  -3  -7  -5 4076.74 954.195   2
 -10   7  -5 5862.52 898.454   2
 -10   7  -5 5947.90 518.869   1
  10  -3  -5 5651.32 925.379   1
  -3  -7  -5 4299.88 850.887   4
   3 -10  -5 4289.96 792.354   4
  10  -3  -5 5750.09 603.904   2
   7   3  -5 5819.70 954.219   1
   3 -10  -2 45387.8 1804.52   2
  -7  10  -2 51505.2 1998.27   3
   7   3  -2 45403.4 1527.61   1
   3 -10  -2 44786.2 1508.76   1
  -3  -7  -2 45295.9 1527.83   4
  -3  -7  -2 49221.4 1723.78   2
 -10   7  -2 47734.3 1954.70   3
   3 -10  -2 44563.4 1546.38   4
  -7  10  -2 45231.9 1094.88   1
  -3  -7  -2 43200.9 1528.20   1
  10  -3  -2 44150.1 1340.41   1
  -3  -7   1 14675.7 965.437   1
  -7  10   1 13001.3 783.175   3
   7   3   1 13418.6 896.349   2
   3 -10   1 11195.9 948.085   3
  10  -3   1 15658.9 1205.85   3
  10  -3   1 13543.3 728.180   4
  -3  -7   1 14450.6 884.757   4
   3 -10   1 13449.7 903.437   2
  10  -3   1 12559.1 847.647   2
  10  -3   1 12918.2 610.123   1
  -3  -7   1 13272.7 750.897   2
   3 -10   1 13653.2 871.531   1
   7   3   1 14100.3 888.221   1
   7   3   1 13628.4 824.244   4
   3 -10   4 84251.8 2607.42   3
  -7  10   4 85295.8 1961.35   4
   7   3   4 79767.2 2187.70   4
  -3  -7   4 83044.6 2597.06   3
   3 -10   4 81707.8 1878.03   1
  -3  -7   4 80039.7 2090.13   1
  10  -3   4 82827.9 2205.61   4
  -3  -7   4 82682.5 1210.08   2
   7   3   4 82680.0 2310.05   3
  10  -3   4 84218.1 2685.41   3
  -7  10   4 82767.8 2213.30   2
   3 -10   4 87210.7 1881.98   2
 -10   7   4 83323.5 1400.78   4
  10  -3   7 722.409 971.548   3
   3 -10   7 1402.82 1067.49   3
  -3  -7   7-1174.18 1013.09   3
   7   3   7-502.665 742.594   3
  -3  -7   7 750.285 524.722   2
 -10   7   7-16.3782 508.974   4
 -10   7   7 655.072 712.940   2
   7   3  10 8202.18 1218.91   3
   3 -10  10 8601.96 1667.27   3
  -3  -7  10 9418.12 1573.10   3
  10  -3  10 10670.8 1613.89   3
  10  -2  -9 5750.81 1268.78   1
   8   2  -9 4717.71 1309.79   1
   2 -10  -9 4992.69 1186.81   4
   2 -10  -9 6174.49 1288.49   2
 -10   8  -9 5456.57 950.644   1
  -2  -8  -9 7396.71 1249.83   4
  10  -2  -9 3523.78 734.241   2
  -2  -8  -9 6213.58 1427.64   2
  -8  10  -9 7408.42 1118.09   1
  -2  -8  -6 1710.45 562.301   3
  10  -2  -6 1343.68 445.616   2
   2 -10  -6 1139.32 284.605   3
  -8  10  -6 1654.36 574.152   1
   8   2  -6 274.972 785.894   1
  10  -2  -6 475.499 814.081   1
   2 -10  -6 259.213 909.093   2
 -10   8  -6 768.936 482.588   1
  -2  -8  -6 995.272 949.877   2
   2 -10  -6 518.418 732.059   4
  -2  -8  -6 669.423 755.136   4
 -10   8  -3 27183.9 1663.85   3
  10  -2  -3 29449.3 833.023   2
  -2  -8  -3 26644.4 1306.20   1
  10  -2  -3 27582.2 1272.29   1
  -8  10  -3 27246.0 1650.50   3
  -8  10  -3 30613.3 899.367   1
   8   2  -3 28962.4 1630.30   3
  -2  -8  -3 29882.7 1446.61   4
  -2  -8  -3 31359.6 1607.49   2
   2 -10  -3 24101.7 1258.22   4
   2 -10  -3 29779.2 1396.29   1
   8   2  -3 30942.5 1353.75   1
   2 -10  -3 29416.2 1619.59   2
  -8  10   0 7160.76 796.753   3
   8   2   0 7909.38 634.170   2
  -2  -8   0 7755.42 808.281   2
  10  -2   0 6318.12 584.518   1
   2 -10   0 8184.72 742.898   3
  -2  -8   0 7560.75 823.726   1
  10  -2   0 6259.08 908.615   3
   2 -10   0 5994.39 810.244   4
  10  -2   0 7162.81 504.890   4
   8   2   0 7102.93 757.341   1
  -2  -8   0 6626.78 777.226   4
 -10   8   0 7381.20 828.261   3
   2 -10   0 7093.58 781.807   1
   8   2   0 6507.72 582.159   4
  10  -2   0 6128.26 609.811   2
   2 -10   0 7381.32 809.634   2
  -8  10   3 13503.5 901.890   4
 -10   8   3 13678.5 657.890   4
   8   2   3 14475.1 909.819   1
   8   2   3 12650.5 1143.70   3
  10  -2   3 16534.5 1120.78   2
   2 -10   3 12560.8 1200.92   3
   8   2   3 11694.9 1123.50   2
  -2  -8   3 14182.2 1286.40   3
  10  -2   3 12578.3 960.630   4
  -8  10   3 14358.7 1089.34   2
   2 -10   3 14193.3 915.313   1
  -2  -8   3 15520.5 718.970   2
  10  -2   3 13659.1 1285.57   3
   8   2   3 13135.4 1018.98   4
  -2  -8   3 12062.2 929.890   1
  -2  -8   6 8955.64 659.946   2
   8   2   6 8584.22 1085.65   3
  10  -2   6 9348.99 1198.67   3
 -10   8   6 8652.99 732.952   4
   2 -10   6 6903.09 1195.93   3
   2 -10   6 7982.08 758.510   2
 -10   8   6 6922.27 846.542   2
  -8  10   6 9322.11 899.284   4
  -2  -8   6 7846.15 1276.10   3
  10  -2   9 3957.27 1202.93   3
   8   2   9 3422.99 1078.04   3
   2 -10   9 5008.73 1311.06   3
  -2  -8   9 3789.95 1328.59   3
  -1  -9 -10 3717.35 1337.86   2
   1 -10 -10 3476.42 1375.88   2
  10  -1 -10 1722.38 645.893   2
 -10   9 -10 2644.49 935.786   1
  -1  -9 -10 3044.84 1222.13   4
  10  -1 -10 2736.58 1286.81   1
  -9  10 -10 3514.08 951.970   1
   9   1 -10 3565.90 1334.64   1
   1 -10 -10 2944.78 1169.31   4
  -1  -9  -7 21240.3 1590.01   4
  -9  10  -7 18902.2 1118.61   1
 -10   9  -7 20593.4 1094.26   1
   9   1  -7 13969.3 610.791   2
  -1  -9  -7 19038.5 1079.04   3
  10  -1  -7 15952.1 803.698   2
   1 -10  -7 17914.7 898.604   3
   1 -10  -7 16854.0 1422.22   4
  10  -1  -7 18021.1 1517.32   1
   9   1  -7 19061.9 1530.88   1
  -1  -9  -7 20766.8 1754.98   2
   1 -10  -7 19502.0 1717.26   2
  10  -1  -4 16448.6 1148.65   1
  10  -1  -4 15030.2 1302.66   3
  -9  10  -4 19026.1 731.068   1
   1 -10  -4 17771.6 1169.92   4
  -1  -9  -4 16426.2 1338.45   2
   9   1  -4 19761.0 1256.53   1
   1 -10  -4 19236.7 1415.33   2
  -1  -9  -4 16330.6 1219.68   4
 -10   9  -4 18016.9 614.767   1
  10  -1  -4 15694.0 547.991   2
  10  -1  -1 8424.95 569.441   2
  10  -1  -1 9862.47 807.882   1
  -1  -9  -1 7942.27 945.290   4
  -1  -9  -1 8500.23 898.960   1
   1 -10  -1 7935.90 834.018   1
  -1  -9  -1 8342.30 1006.06   2
  10  -1  -1 8561.93 451.639   4
   9   1  -1 10169.9 567.345   4
  -9  10  -1 8317.70 1043.33   3
   1 -10  -1 7815.68 890.920   4
   1 -10  -1 9706.34 1089.03   2
   9   1  -1 8924.33 861.551   1
   9   1  -1 7601.43 561.224   2
 -10   9  -1 9173.61 1032.66   3
  10  -1   2 4721.39 569.029   1
   9   1   2 4726.24 677.783   1
  -1  -9   2 4581.90 799.162   4
  -1  -9   2 5406.76 843.828   1
   1 -10   2 4615.82 840.938   1
   9   1   2 5026.28 965.344   3
  10  -1   2 4192.35 783.547   2
   1 -10   2 3776.56 977.258   3
   9   1   2 4523.50 706.270   4
  -1  -9   2 4021.40 936.158   3
   9   1   2 4041.61 775.663   2
   1 -10   2 4482.62 703.984   2
  10  -1   2 4978.41 709.510   4
  10  -1   2 4399.69 993.828   3
  -1  -9   2 4024.55 628.832   2
  -9  10   5 4518.35 825.734   2
   9   1   5 5671.08 1004.93   3
  10  -1   5 5187.35 947.397   3
 -10   9   5 6212.13 638.893   4
  -1  -9   5 5324.82 512.644   2
   1 -10   5 5527.41 595.505   2
   1 -10   5 6168.77 1035.67   3
 -10   9   5 4768.05 736.436   2
  -1  -9   5 3933.57 995.019   3
  -9  10   5 5091.75 714.492   4
  -1  -9   8 516.589 624.915   2
  10  -1   8 584.693 924.659   3
   9   1   8 1167.45 911.973   3
   1 -10   8 488.155 1072.68   3
  -1  -9   8 1579.14 1060.29   3
  10  -1  11 4433.21 1324.02   3
   9   1  11 6606.37 1339.22   3
   1 -10  11 7022.51 1664.13   3
  -1  -9  11 6470.74 1643.22   3
  10   0 -11 1194.76 1318.85   1
 -10  10 -11 1271.80 957.740   1
   0 -10 -11 2213.84 1320.56   2
   0 -10 -11-1484.25 1265.08   4
   0 -10  -8 23789.6 1208.82   3
   0 -10  -8 23339.3 1905.47   2
  10   0  -8 24388.7 1844.34   1
   0 -10  -8 26420.1 1885.22   4
 -10  10  -8 26619.5 1386.50   1
   0 -10  -5-592.638 825.377   2
  10   0  -5 60.1221 660.502   1
 -10  10  -5-139.972 375.085   1
  10   0  -5 98.3604 123.099   2
   0 -10  -5 9.17071 656.423   4
   0 -10  -2 108653. 2631.45   2
 -10  10  -2 106724. 2928.32   3
  10   0  -2 107451. 2140.83   1
   0 -10  -2 89895.4 2220.04   4
 -10  10  -2 95787.4 1038.50   1
   0 -10  -2 100993. 2299.71   1
  10   0  -2 100647. 1298.68   2
  10   0   1 848.663 601.150   2
  10   0   1 958.859 905.503   3
   0 -10   1 869.196 681.050   2
   0 -10   1-190.116 701.395   1
  10   0   1 900.644 544.681   4
   0 -10   1-31.5434 724.742   3
   0 -10   1 905.517 796.876   4
 -10  10   1 25.7031 612.729   3
  10   0   1 490.887 597.102   1
  10   0   4 103707. 2934.23   3
 -10  10   4 103084. 2372.74   2
   0 -10   4 107002. 2972.77   3
   0 -10   4 100280. 2295.40   1
 -10  10   4 102982. 1918.51   4
   0 -10   7 609.451 510.674   2
  10   0   7 648.412 936.919   3
   0 -10   7 277.679 1103.88   3
 -10  10   7-317.141 604.261   4
  10   0  10 21946.2 1881.45   3
   0 -10  10 19346.3 2093.45   3
   0  11 -11 289.409 1179.65   1
  11 -11 -11-869.302 1063.54   2
 -11   0 -11-604.085 1373.04   2
 -11   0 -11 319.384 983.772   1
  11 -11 -11 1858.25 1118.33   4
  11 -11 -11-103.006 1456.80   1
 -11   0 -11 457.673 1222.12   4
   0  11  -8 15050.6 1442.83   1
 -11   0  -8 14131.4 1580.96   2
  11 -11  -8 17897.4 1749.85   1
  11 -11  -8 15066.0 1479.67   2
  11 -11  -8 12893.5 1286.31   4
 -11   0  -8 13111.1 1578.98   4
 -11   0  -5-329.182 537.922   1
  11 -11  -5-1.61740 787.451   2
 -11   0  -5-870.110 801.917   2
  11 -11  -5-365.967 526.898   3
  11 -11  -5 217.877 526.590   4
   0  11  -5-103.693 728.288   1
 -11   0  -5 186.618 732.529   4
   0  11  -2 16415.3 1190.47   1
  11 -11  -2 16753.4 1130.74   3
 -11   0  -2 16214.8 931.461   1
  11 -11  -2 14085.3 909.924   4
   0  11  -2 17606.6 1313.53   3
 -11   0  -2 15931.8 1094.55   2
  11 -11  -2 15189.1 1194.79   2
 -11   0  -2 15944.3 1021.00   4
 -11   0   1-74.2013 543.850   1
   0  11   1 1101.68 715.657   2
   0  11   1 456.619 529.085   3
 -11   0   1 195.716 338.092   4
  11 -11   1 351.416 363.229   1
  11 -11   1 546.087 884.072   3
   0  11   1-1078.90 783.963   4
   0  11   1-360.059 755.985   1
 -11   0   4 17963.1 510.641   4
 -11   0   4 17724.4 496.512   4
   0  11   7-39.7867 250.711   3
  11 -11   7 398.709 1112.37   3
 -11   0   7 351.892 396.567   4
  11 -11  10 13023.6 1824.58   3
   1  10  -9 9128.94 1361.13   1
  -1  11  -9 8941.58 1303.05   1
  11 -10  -9 9214.83 1583.88   1
  10 -11  -9 9137.61 1627.29   1
 -11   1  -9 7664.48 1356.94   2
 -10  -1  -9 6730.04 1432.31   2
  10 -11  -9 8350.95 1214.92   4
  11 -10  -9 9469.13 1385.23   2
  10 -11  -9 7226.04 1301.52   2
 -11   1  -9 10947.7 1484.46   4
  11 -10  -9 7313.53 1124.27   4
 -10  -1  -9 9249.78 1487.54   4
 -11   1  -6 3171.68 677.683   1
 -11   1  -6 3676.71 958.242   2
 -11   1  -6 3550.10 933.054   4
  11 -10  -6 2501.78 747.914   3
   1  10  -6 1546.83 849.914   1
  -1  11  -6 2221.56 857.558   1
  11 -10  -6 3139.43 687.459   4
  10 -11  -6 2304.39 628.001   3
  10 -11  -6 3507.54 719.559   4
 -10  -1  -6 4880.45 1038.37   2
  11 -10  -6 3350.75 1013.88   2
 -10  -1  -6 2645.35 920.270   4
 -11   1  -3 7481.37 966.084   3
  10 -11  -3 7937.75 812.182   3
 -10  -1  -3 8277.33 973.141   2
 -11   1  -3 8348.91 970.326   2
   1  10  -3 8206.22 1143.06   3
   1  10  -3 8555.51 968.737   1
  10 -11  -3 7090.09 1026.52   2
 -10  -1  -3 7476.49 757.602   1
  -1  11  -3 7201.47 922.868   1
  -1  11  -3 8640.88 1204.62   3
 -11   1  -3 8309.16 693.321   1
  11 -10  -3 9107.37 991.740   2
  10 -11  -3 9023.00 757.459   4
  11 -10  -3 7878.24 668.819   4
  11 -10  -3 7518.31 903.683   3
 -10  -1  -3 7436.66 887.148   4
 -11   1  -3 8650.85 885.867   4
   1  10   0 3440.27 719.573   4
 -10  -1   0 2910.18 650.455   1
  11 -10   0 2112.79 871.146   3
  10 -11   0 3206.61 475.510   1
  10 -11   0 2657.71 802.434   3
  -1  11   0 3297.61 729.316   3
 -11   1   0 2863.54 581.948   1
   1  10   0 4191.93 861.079   1
 -10  -1   0 3213.86 550.497   4
   1  10   0 2636.87 673.547   3
  -1  11   0 1680.00 781.334   1
  11 -10   0 3055.74 434.897   1
   1  10   0 3990.63 737.600   2
 -11   1   0 3098.36 489.071   4
  -1  11   0 3612.14 787.032   2
 -10  -1   0 2712.34 550.178   2
 -11   1   0 2732.34 545.721   2
   1  10   3 9344.54 1040.60   4
   1  10   3 9365.20 563.544   3
   1  10   3 9375.12 1063.28   2
 -10  -1   3 9707.41 854.518   1
  11 -10   3 9344.34 913.762   2
  -1  11   3 8759.02 945.439   4
 -11   1   3 10744.8 944.262   1
  10 -11   3 12158.3 1282.46   3
  10 -11   3 10133.5 894.456   2
 -10  -1   3 9340.38 459.991   4
  10 -11   3 10673.8 470.751   1
  -1  11   3 11734.3 1124.77   2
  11 -10   3 9731.51 1173.85   3
  11 -10   3 9380.68 887.340   4
   1  10   6 3742.39 443.222   3
  11 -10   6 4701.77 1111.34   3
  10 -11   6 3601.56 1110.24   3
 -10  -1   6 4977.48 512.389   4
 -11   1   6 4281.33 452.491   4
  11 -10   9 5104.45 1521.95   3
  10 -11   9 5322.52 1436.05   3
   1  10   9 4518.82 672.471   3
 -11   2 -10 3755.96 1357.92   2
  11  -9 -10 8338.76 1583.63   1
   9 -11 -10 7016.07 1369.82   2
   2   9 -10 5993.12 1402.30   1
  -2  11 -10 6348.07 1266.89   1
  -9  -2 -10 4407.30 1282.86   2
 -11   2 -10 6470.43 1121.20   1
   9 -11 -10 4354.24 1138.80   4
   9 -11 -10 5808.28 1607.90   1
 -11   2 -10 6078.87 1434.87   4
  11  -9 -10 8172.92 1183.76   4
  11  -9 -10 4854.20 1096.59   2
  -9  -2 -10 4947.75 1304.56   4
 -11   2  -7 25581.7 1776.68   4
  11  -9  -7 22103.5 1251.50   4
  -9  -2  -7 21762.0 1685.80   2
  11  -9  -7 22956.1 1737.99   1
 -11   2  -7 21452.2 1677.68   2
  -9  -2  -7 22032.9 1666.69   4
  -2  11  -7 25675.3 1518.41   1
  11  -9  -7 20811.1 1464.34   3
   9 -11  -7 19128.2 1218.53   3
   9 -11  -7 20952.0 1397.55   4
  11  -9  -7 21576.5 1538.31   2
   9 -11  -7 22337.2 1753.50   2
   2   9  -7 20589.6 1491.51   1
   9 -11  -4 20048.3 950.757   3
  -2  11  -4 19709.5 1135.44   1
 -11   2  -4 21292.0 1350.97   2
   9 -11  -4 19489.3 1042.46   4
  -9  -2  -4 19768.3 1347.93   3
   9 -11  -4 19875.3 1401.74   2
   2   9  -4 18393.9 1224.20   1
  11  -9  -4 18039.9 1207.45   2
  -9  -2  -4 19570.7 1077.72   1
  -9  -2  -4 19917.8 1309.46   4
  11  -9  -4 20861.4 876.620   4
 -11   2  -4 19134.0 883.799   1
 -11   2  -4 18765.3 1236.02   4
  -9  -2  -4 20103.4 1317.52   2
 -11   2  -4 18326.9 1465.91   3
   9 -11  -1 45898.5 1401.85   4
   2   9  -1 43481.4 1644.01   1
  -2  11  -1 42859.5 1744.10   3
   9 -11  -1 44184.0 1556.46   3
  -9  -2  -1 41986.6 1401.96   2
  -9  -2  -1 43476.5 1336.78   4
   2   9  -1 42295.6 1646.34   3
  -9  -2  -1 42016.8 1413.49   1
 -11   2  -1 42245.6 1258.11   4
   9 -11  -1 41761.9 1276.88   1
   9 -11  -1 41861.2 1607.48   2
  11  -9  -1 46089.2 1805.96   3
 -11   2  -1 42644.0 1064.48   1
   2   9  -1 42357.1 1270.98   2
 -11   2  -1 44291.6 1418.91   2
  -2  11  -1 44872.5 1542.24   1
  11  -9   2 25215.5 1593.82   3
   9 -11   2 27324.2 789.914   1
   2   9   2 26477.8 1354.46   1
  -9  -2   2 27145.9 794.156   4
   9 -11   2 29435.5 1604.59   3
  -2  11   2 23463.0 679.296   3
  11  -9   2 28717.1 1324.12   2
  -2  11   2 28943.8 1397.43   4
  -9  -2   2 24357.4 1134.29   1
 -11   2   2 26464.5 1133.33   1
   2   9   2 27976.6 1370.32   4
   2   9   2 27765.5 1471.98   2
  -2  11   2 24890.7 1385.86   2
  11  -9   2 27319.7 1177.71   4
  -2  11   2 25966.7 1323.46   1
   9 -11   5 11622.1 1433.01   3
   2   9   5 12579.7 695.697   3
  11  -9   5 10913.9 1276.11   3
 -11   2   5 11225.3 467.531   4
  -9  -2   5 13587.3 673.524   4
 -11   2   8 16561.6 956.187   4
  11  -9   8 22137.5 1979.36   3
   9 -11   8 20840.4 1953.53   3
  -9  -2   8 11793.6 590.638   2
 -11   2   8 15625.6 867.420   2
   2   9   8 20305.7 1115.10   3
  -9  -2   8 16749.3 1029.04   4
  11  -9  11 10674.2 1747.99   3
   9 -11  11 10841.5 1747.94   3
   8 -11 -11 3241.36 1298.63   4
   8 -11 -11 5372.54 1403.82   2
  11  -8 -11 2484.58 1102.03   2
   3   8 -11 1939.76 1222.33   1
  11  -8 -11 4068.78 1492.67   1
 -11   3 -11 3461.69 1036.36   1
  -8  -3 -11 5221.86 1438.20   2
  -8  -3 -11 3087.41 1331.41   4
 -11   3 -11 5469.12 1429.03   2
   8 -11 -11 4500.19 1659.92   1
  -3  11 -11 7046.49 1452.53   1
  11  -8 -11 3817.19 1024.59   4
 -11   3 -11 699.808 1155.05   4
  11  -8  -8 4504.98 998.425   2
   3   8  -8 6566.62 1246.49   1
  11  -8  -8 2692.71 754.197   4
  11  -8  -8 3756.71 1163.60   1
   8 -11  -8 4222.67 1189.54   2
   8 -11  -8 4831.11 1008.96   4
   8 -11  -8 4422.76 881.208   3
  -8  -3  -8 5267.66 1197.70   2
 -11   3  -8 4697.04 1035.38   2
  -3  11  -8 6292.55 1099.38   1
  -8  -3  -8 2861.03 1118.93   4
 -11   3  -8 6175.58 1334.92   4
  -8  -3  -5 22226.4 1458.09   3
  -8  -3  -5 19233.3 1160.65   1
   3   8  -5 21727.7 1343.62   1
  -8  -3  -5 21448.9 1456.84   2
  11  -8  -5 22789.1 939.723   4
  11  -8  -5 23228.1 1377.57   1
  11  -8  -5 18975.4 1226.37   3
   8 -11  -5 20311.9 853.625   3
 -11   3  -5 22380.0 1469.80   2
   8 -11  -5 20003.0 1450.55   2
  11  -8  -5 19521.8 1224.58   2
  -8  -3  -5 21999.5 1421.29   4
   8 -11  -5 21390.5 1156.60   4
 -11   3  -5 22345.8 990.264   1
  -3  11  -5 20949.4 1205.82   1
 -11   3  -5 23149.6 1435.02   4
   8 -11  -2 59395.2 1505.40   3
 -11   3  -2 54577.8 2037.16   3
  11  -8  -2 60342.9 1986.58   3
  -3  11  -2 62219.3 2136.35   3
  -3  11  -2 59140.4 1674.30   1
  11  -8  -2 57902.1 1689.83   2
  11  -8  -2 59632.7 1527.64   1
 -11   3  -2 60026.1 1143.92   1
 -11   3  -2 58822.8 1748.78   2
   3   8  -2 58447.7 1863.82   1
  -8  -3  -2 57573.6 1695.73   4
   8 -11  -2 59893.4 1951.21   2
  -8  -3  -2 58724.2 1791.37   2
  -8  -3  -2 58912.3 1643.48   1
 -11   3  -2 60468.4 1657.74   4
  11  -8  -2 57437.3 1129.80   4
   3   8  -2 58037.3 2025.01   3
   8 -11  -2 59726.3 1656.41   4
   3   8   1 12527.6 986.397   2
   8 -11   1 11800.2 1087.11   3
  -8  -3   1 10942.1 568.299   2
  -3  11   1 11882.0 719.256   3
  -3  11   1 11771.3 962.862   1
  -3  11   1 12085.5 958.533   4
 -11   3   1 11003.6 734.312   1
  -8  -3   1 12647.7 702.532   4
   3   8   1 13043.6 998.734   4
   8 -11   1 12762.1 718.997   1
  11  -8   1 11965.0 1229.27   3
   3   8   1 11883.2 1015.64   1
  -8  -3   1 10838.0 865.273   1
  11  -8   1 13409.3 829.537   4
  -3  11   1 12460.3 1028.59   2
   3   8   4 27929.6 1078.19   3
   8 -11   4 27678.9 1722.88   3
   8 -11   4 27151.4 1330.91   2
   8 -11   4 27414.7 942.599   1
  11  -8   4 30883.6 1856.70   3
 -11   3   7 4138.07 548.471   4
   3   8   7 4974.03 733.442   3
  -8  -3   7 4707.08 680.609   4
   8 -11   7 2930.78 1155.31   3
 -11   3   7 4257.76 612.523   2
  -8  -3   7 3060.42 303.562   2
  11  -8   7 6294.48 1370.13   3
   8 -11  10 9794.63 1729.35   3
  11  -8  10 8009.19 1587.88   3
   3   8  10 7354.36 985.387   3
  -7  -4  -9 1903.98 1113.99   4
 -11   4  -9 1728.84 792.116   1
  11  -7  -9 2291.36 885.644   2
   4   7  -9 1364.23 1119.51   1
  -4  11  -9 2609.15 991.630   1
  11  -7  -9 1804.45 1231.36   1
 -11   4  -9-207.658 953.103   2
  -7  -4  -9 664.231 1101.59   2
 -11   4  -9 516.746 1061.10   4
   7 -11  -9 861.719 878.218   4
   7 -11  -9 2636.39 1109.03   2
  11  -7  -9 1910.48 736.279   4
  11  -7  -6 1258.59 751.067   2
   7 -11  -6 1984.90 964.378   2
  -7  -4  -6-869.340 741.005   3
   7 -11  -6 702.792 696.897   4
   4   7  -6 559.359 760.900   1
  -4  11  -6 711.225 700.221   1
 -11   4  -6-286.513 794.564   2
  -7  -4  -6-98.0757 800.455   2
  11  -7  -6 684.750 741.615   3
 -11   4  -6 688.189 501.822   1
  11  -7  -6 1425.74 809.112   1
   7 -11  -6 504.500 410.161   3
  11  -7  -6 587.384 477.544   4
  -7  -4  -6 1325.75 791.565   4
 -11   4  -6 44.0482 828.012   4
  -4  11  -3 20333.1 1495.55   3
   4   7  -3 17909.6 1363.16   3
   7 -11  -3 21338.9 1395.13   2
   7 -11  -3 17448.9 698.578   3
  -7  -4  -3 16576.8 1052.54   1
 -11   4  -3 18853.3 1426.45   3
   7 -11  -3 18877.8 1102.66   4
 -11   4  -3 17380.4 1191.15   2
  11  -7  -3 19545.5 1102.39   2
  -4  11  -3 18796.7 1065.49   1
  -7  -4  -3 18542.4 1286.71   2
   4   7  -3 17165.7 1216.31   1
  11  -7  -3 17975.3 597.264   4
  -7  -4  -3 18330.3 1195.64   4
 -11   4  -3 18782.9 682.078   1
  11  -7  -3 19185.9 1103.74   1
 -11   4  -3 18991.8 1172.00   4
 -11   4   0 6506.27 480.003   4
  11  -7   0 6214.30 437.679   1
  -4  11   0 6394.80 736.021   3
  -7  -4   0 6714.75 837.423   1
  -4  11   0 4985.15 676.809   1
  -7  -4   0 5717.27 618.291   2
   7 -11   0 6250.95 758.338   4
   4   7   0 6800.16 771.494   4
   7 -11   0 6759.59 622.268   1
   4   7   0 5006.34 690.413   2
   4   7   0 5926.82 891.077   1
  -7  -4   0 6584.38 661.619   4
  11  -7   0 6828.52 523.284   4
  11  -7   0 5872.65 978.221   3
   7 -11   0 7095.77 803.314   3
 -11   4   0 6033.02 487.308   1
  11  -7   3 7851.01 874.398   2
   4   7   3 9788.09 829.800   3
   4   7   3 9552.60 938.733   1
  11  -7   3 8557.48 1185.00   3
   7 -11   3 10685.7 1173.80   3
  -4  11   3 9702.03 927.068   4
  -4  11   3 8658.08 1027.35   2
   4   7   3 10706.1 1105.28   2
  -7  -4   3 10341.9 698.114   4
  -7  -4   3 8929.70 859.845   1
   4   7   3 9234.70 976.174   4
  11  -7   3 10014.1 873.603   4
   7 -11   3 9681.00 643.319   1
  11  -7   6 1234.92 944.012   3
   4   7   6 1406.01 579.951   3
   7 -11   6 1546.79 951.304   3
  -7  -4   6 2020.36 534.350   4
 -11   4   6 900.635 370.659   4
   4   7   9 10158.8 1100.75   3
   7 -11   9 7945.46 1508.25   3
  11  -7   9 11538.7 1592.17   3
   5   6 -10 5959.87 1377.10   1
  -6  -5 -10 5071.30 1304.47   4
  -5  11 -10 8264.60 1224.04   1
 -11   5 -10 4385.47 1229.61   2
  11  -6 -10 5905.66 1085.33   2
 -11   5 -10 6906.31 1493.98   4
 -11   5 -10 5082.71 992.903   1
   6 -11 -10 6301.68 1281.59   4
  11  -6 -10 6188.43 1461.71   1
  -6  -5 -10 5595.32 1394.34   2
   6 -11 -10 6689.03 1423.24   2
  -6  -5  -7 23972.4 1645.04   3
   5   6  -7 21791.2 1604.91   1
 -11   5  -7 21891.5 1166.43   1
   6 -11  -7 20349.4 1012.03   3
 -11   5  -7 21575.3 1654.13   2
  -6  -5  -7 22284.9 1754.70   2
  11  -6  -7 22320.8 1131.24   4
  -5  11  -7 20958.1 1361.98   1
  11  -6  -7 18170.2 1558.51   1
  -6  -5  -7 20014.4 1662.12   4
   6 -11  -7 20728.9 1477.09   4
  11  -6  -7 20891.7 1303.84   2
   6 -11  -7 24008.8 1730.76   2
 -11   5  -7 19256.3 1513.18   4
 -11   5  -4 6774.96 477.538   1
  -6  -5  -4 5302.51 777.880   1
  -5  11  -4 7391.67 745.698   1
   5   6  -4 5761.09 924.472   1
 -11   5  -4 6908.26 965.573   2
   6 -11  -4 5684.25 775.776   4
  11  -6  -4 6214.91 767.861   2
  11  -6  -4 5509.32 802.185   1
   6 -11  -4 5455.23 1046.22   2
  -6  -5  -4 5849.15 900.906   4
  11  -6  -4 6381.18 407.289   4
 -11   5  -4 6577.02 863.500   4
  -6  -5  -4 6314.02 977.109   2
  11  -6  -1 72447.2 2217.59   3
   5   6  -1 69505.9 1331.20   2
  -5  11  -1 67984.2 1541.08   1
  -5  11  -1 68600.7 2038.69   3
  -6  -5  -1 65761.0 1637.47   4
   6 -11  -1 65849.4 1740.62   4
   6 -11  -1 65610.5 1480.25   3
  11  -6  -1 63510.6 1335.59   1
 -11   5  -1 63623.2 893.031   1
   5   6  -1 64982.3 1772.96   1
   6 -11  -1 65762.0 1599.73   1
   5   6  -1 64256.2 1546.34   4
  -6  -5  -1 66350.2 1700.38   2
  11  -6  -1 63551.1 1021.27   4
  -6  -5  -1 66045.6 1770.36   1
 -11   5  -1 63847.9 2132.20   3
 -11   5  -1 65594.9 1450.84   4
  -6  -5   2 22282.5 580.100   2
  11  -6   2 25128.2 1126.73   4
  -5  11   2 24371.7 1190.33   4
   6 -11   2 25490.9 1011.86   1
  11  -6   2 25063.3 1234.77   2
  -6  -5   2 25491.2 1020.65   4
   5   6   2 25968.0 1284.76   4
   6 -11   2 23288.6 1407.32   3
  -5  11   2 26915.5 1383.08   2
  11  -6   2 19257.7 1526.23   3
  -5  11   2 23760.6 681.798   3
   5   6   2 27144.8 1382.09   2
   5   6   2 28664.3 1306.68   1
   5   6   2 24151.3 1177.95   3
  -6  -5   2 25419.9 1208.65   1
   6 -11   5 22188.4 1024.65   1
   6 -11   5 20321.5 1151.27   2
   6 -11   5 22659.2 1674.14   3
 -11   5   5 19591.3 678.623   4
   5   6   5 21894.2 1200.43   3
  11  -6   5 23094.2 1686.81   3
  -6  -5   5 19412.2 945.233   4
  11  -6   8 14357.5 1708.25   3
 -11   5   8 13017.1 1017.29   2
   5   6   8 15761.7 1282.33   3
  -6  -5   8 13947.0 783.527   2
 -11   5   8 15560.3 945.044   4
  11  -6  11 15951.5 1892.42   3
   5   6  11 11839.1 1344.51   3
   6 -11  11 16754.8 1998.70   3
 -11   6 -11 12046.1 1639.08   2
  -6  11 -11 14023.5 1519.45   1
  11  -5 -11 14785.2 2042.28   1
  -5  -6 -11 17950.3 2155.19   2
  11  -5 -11 12432.1 1332.89   2
 -11   6 -11 17708.5 1521.74   1
   5 -11 -11 15900.6 1811.50   4
   6   5 -11 19523.1 2025.78   1
   5 -11 -11 15911.1 1874.01   2
  -5  -6 -11 17665.5 1936.10   4
  11  -5  -8 20814.7 1309.65   2
  -5  -6  -8 18642.0 1603.92   3
   5 -11  -8 21401.7 1795.86   2
   6   5  -8 19420.1 1697.20   1
  -6  11  -8 20038.6 1387.29   1
 -11   6  -8 20285.7 1261.89   1
 -11   6  -8 20593.4 1714.32   2
  -5  -6  -8 22162.1 1849.19   2
   5 -11  -8 19691.3 1621.58   4
 -11   6  -8 20952.9 1669.64   4
  11  -5  -8 20815.6 1724.94   1
   5 -11  -8 19847.0 1132.16   3
  -5  -6  -8 20190.7 1750.30   4
  11  -5  -8 17603.2 1109.09   4
  -5  -6  -5 22875.2 1217.67   3
   5 -11  -5 23158.0 1344.41   4
 -11   6  -5 27021.2 1514.52   2
  11  -5  -5 21203.4 1419.21   3
  11  -5  -5 23027.1 1104.55   2
   6   5  -5 23654.6 1411.08   1
  -5  -6  -5 24354.6 1588.18   2
 -11   6  -5 25946.9 906.333   1
   5 -11  -5 23475.7 1636.64   2
  11  -5  -5 24396.3 1408.63   1
  -5  -6  -5 21815.2 1404.10   4
  -6  11  -5 24271.4 1114.86   1
  11  -5  -5 21844.2 717.467   4
 -11   6  -5 23679.5 1370.29   4
  -5  -6  -2 22464.6 1219.65   4
   5 -11  -2 21507.1 646.742   3
   6   5  -2 21998.4 1488.97   3
   6   5  -2 19526.4 556.827   2
  -6  11  -2 22912.5 1018.17   1
   5 -11  -2 24676.3 1268.19   4
  -6  11  -2 25550.6 1510.59   3
  11  -5  -2 24821.6 1072.63   1
   5 -11  -2 26742.9 1245.03   1
   5 -11  -2 22404.0 1461.37   2
  -5  -6  -2 24255.0 1336.16   2
   6   5  -2 24212.1 1309.58   1
 -11   6  -2 23769.2 1574.88   3
  -5  -6  -2 24840.9 1240.72   1
  -6  11   1 76048.1 1598.08   3
   6   5   1 72094.5 1838.56   1
  -5  -6   1 71156.9 1810.10   1
   5 -11   1 68675.7 2002.99   3
   6   5   1 72613.2 1839.12   2
  11  -5   1 71962.3 1013.98   1
  -5  -6   1 67889.6 1612.56   4
   5 -11   1 69871.6 1628.10   1
  11  -5   1 71139.1 2304.68   3
  11  -5   1 71291.4 1768.23   2
   6   5   1 73681.5 1756.22   4
  11  -5   1 73164.1 1551.45   4
  -5  -6   1 72864.5 1381.34   2
  11  -5   4 7150.17 1113.58   3
   6   5   4 7163.41 853.559   3
   5 -11   4 8473.09 735.951   1
   5 -11   4 8959.90 1124.85   3
   5 -11   4 8320.60 763.908   2
  -6  11   4 6808.68 816.389   4
 -11   6   4 7273.96 402.487   4
 -11   6   7 14555.7 1025.69   2
   6   5   7 16862.2 1256.42   3
  -5  -6   7 17186.9 779.350   2
  11  -5   7 18389.0 1670.56   3
   5 -11   7 15242.9 1667.78   3
 -11   6   7 15126.3 867.812   4
  11  -5  10 7058.22 1495.52   3
   5 -11  10 3212.48 1378.06   3
   6   5  10 5488.46 1164.96   3
  11  -4  -9 7558.76 1369.67   1
   4 -11  -9 7777.32 1283.75   4
  11  -4  -9 9097.65 1016.93   2
 -11   7  -9 8853.54 1432.16   2
  -7  11  -9 11474.4 1236.03   1
   4 -11  -9 11982.6 1613.26   2
   7   4  -9 10437.3 1496.11   1
  -4  -7  -9 10107.5 1463.87   4
  -4  -7  -9 10804.2 1599.07   2
 -11   7  -9 10059.0 1064.95   1
 -11   7  -6 1369.91 826.479   4
  11  -4  -6 1063.54 582.316   2
  -7  11  -6 2311.29 658.316   1
  -4  -7  -6 2220.75 694.614   3
   4 -11  -6 1669.91 833.763   4
  -4  -7  -6 2494.83 995.055   2
   7   4  -6 81.3912 848.513   1
  -4  -7  -6 1230.79 806.235   4
 -11   7  -6 1498.55 753.511   2
   4 -11  -6 949.358 943.464   2
 -11   7  -6 1992.95 501.442   1
  11  -4  -6 783.141 757.661   1
 -11   7  -3 8461.75 1211.97   3
   4 -11  -3 11573.0 985.366   4
  -7  11  -3 10721.7 1228.01   3
  -4  -7  -3 9979.40 998.245   1
  11  -4  -3 12324.2 971.267   1
   4 -11  -3 11155.7 960.654   1
   7   4  -3 10245.5 1237.76   3
  -7  11  -3 10935.7 757.653   1
   7   4  -3 10412.9 1026.91   1
  -4  -7  -3 10535.8 1148.52   2
  -4  -7  -3 10543.9 1046.58   4
   4 -11  -3 12541.7 1318.25   2
  11  -4  -3 10655.5 734.109   2
  11  -4   0 5647.36 966.630   3
  -4  -7   0 6028.25 772.254   4
  11  -4   0 5876.62 528.973   1
  11  -4   0 6448.65 495.520   4
   7   4   0 5412.76 661.580   4
  -7  11   0 5335.11 782.056   3
  11  -4   0 5087.63 607.344   2
   4 -11   0 5491.20 692.507   3
 -11   7   0 4627.07 789.540   3
  -4  -7   0 5488.45 810.051   1
   4 -11   0 5128.86 830.973   2
  -4  -7   0 5776.46 736.041   2
  -7  11   0 5569.04 611.687   1
   4 -11   0 5189.70 790.547   4
   4 -11   0 6104.57 769.517   1
   7   4   0 5701.36 829.958   1
   7   4   0 5970.37 685.434   2
   4 -11   3 21197.6 991.482   1
   7   4   3 22389.5 1302.99   3
  11  -4   3 19992.5 1441.48   3
  11  -4   3 21030.4 1228.84   2
  -7  11   3 19229.8 1084.27   4
  11  -4   3 20021.4 1102.63   4
   7   4   3 18542.7 1194.92   4
  -4  -7   3 18445.7 615.513   2
  -4  -7   3 19087.2 1127.45   1
   7   4   3 22486.9 1163.28   1
   4 -11   3 23222.7 1499.83   3
   7   4   3 19396.5 1322.66   2
  -7  11   3 18622.5 1195.90   2
   7   4   6 1036.67 704.541   3
  11  -4   6 1590.79 919.672   3
   4 -11   6 2171.42 1018.79   3
  -4  -7   6 704.537 344.509   2
  -4  -7   6 444.558 922.333   3
 -11   7   6 1298.04 586.343   2
   4 -11   6 787.942 538.208   2
 -11   7   6 1214.55 464.315   4
  -4  -7   6-58.3314 503.005   4
   7   4   9 280.665 872.070   3
  11  -4   9 2541.44 1214.65   3
   4 -11   9 1810.33 1306.05   3
  -4  -7   9 1039.59 1116.68   3
  -3  -8 -10 7698.44 1445.48   2
   8   3 -10 6839.89 1549.72   1
  11  -3 -10 6726.19 1491.83   1
   3 -11 -10 4301.49 1175.45   4
  -8  11 -10 9469.65 1201.37   1
 -11   8 -10 5716.70 1012.38   1
  11  -3 -10 7095.98 975.983   2
  -3  -8 -10 5666.21 1279.55   4
   3 -11 -10 7902.32 1620.93   2
   8   3  -7 2553.64 978.626   1
 -11   8  -7 5452.00 735.908   1
  -8  11  -7 3755.19 761.067   1
  11  -3  -7 3922.44 659.098   2
  -3  -8  -7 5878.80 1233.88   2
   3 -11  -7 4615.12 1225.50   2
  -3  -8  -7 4277.55 804.097   3
  11  -3  -7 3824.14 1089.72   1
  -3  -8  -7 2399.67 903.088   4
   3 -11  -7 3778.07 429.397   3
   3 -11  -7 5180.03 986.620   4
   8   3  -4 31960.4 1508.49   1
 -11   8  -4 28841.1 681.974   1
   3 -11  -4 30793.8 1717.23   2
  11  -3  -4 31631.1 1005.73   2
   3 -11  -4 27961.8 1416.11   4
  -8  11  -4 32291.2 1037.69   1
  -3  -8  -4 29052.5 1485.60   4
  11  -3  -4 29220.9 1384.28   1
  -3  -8  -4 32082.6 1672.51   2
 -11   8  -1 10158.0 1079.90   3
  11  -3  -1 10534.2 762.055   1
   3 -11  -1 11249.6 875.285   1
  -8  11  -1 11348.0 1097.07   3
  11  -3  -1 10189.2 414.292   4
   8   3  -1 10898.5 677.560   4
   3 -11  -1 10033.5 1128.21   2
  -3  -8  -1 11248.1 984.922   1
  11  -3  -1 11840.3 685.112   2
   8   3  -1 10830.7 1010.00   1
   3 -11  -1 11679.8 1074.70   4
   3 -11  -1 10559.9 666.210   3
   8   3  -1 11301.2 654.461   2
  -3  -8  -1 11507.3 1058.98   2
  -8  11  -1 10680.3 657.518   1
  -3  -8  -1 10972.0 1024.43   4
   8   3   2 55485.8 1967.93   3
  11  -3   2 55194.9 1102.04   1
  11  -3   2 59087.6 2264.01   3
  -3  -8   2 53898.3 1594.90   4
  -3  -8   2 52973.1 1665.94   1
  -3  -8   2 53362.7 1219.53   2
  11  -3   2 55884.0 1727.49   2
   8   3   2 55497.2 1643.87   4
   3 -11   2 51782.0 1879.83   3
   3 -11   2 56151.1 1595.18   1
  -8  11   2 57025.6 1548.20   4
   8   3   2 53639.2 1588.68   1
  11  -3   2 55228.9 1541.67   4
   8   3   2 55393.9 1794.01   2
  11  -3   5 18639.3 1527.19   3
  -3  -8   5 20497.8 718.125   2
   8   3   5 19800.5 1338.98   3
   3 -11   5 19866.2 1104.88   1
   3 -11   5 21628.4 1084.18   2
  -8  11   5 20316.1 1121.40   4
  -3  -8   5 19281.5 1598.74   3
 -11   8   5 19769.8 850.571   4
  -3  -8   8 3684.23 660.917   2
  11  -3   8 3120.30 1052.64   3
   3 -11   8 6678.63 1348.72   3
  -3  -8   8 4427.65 1317.82   3
 -11   8   8 2734.43 663.792   4
   8   3   8 4975.20 1032.15   3
  11  -3  11 3895.74 1291.69   3
   8   3  11 3691.18 1130.73   3
   3 -11  11 3579.38 1401.54   3
  -2  -9 -11 13596.1 1889.83   4
 -11   9 -11 12074.7 1314.18   1
   9   2 -11 11608.1 1817.28   1
   2 -11 -11 11145.1 1840.86   2
  -9  11 -11 10147.5 1322.28   1
  -2  -9 -11 10667.0 1770.11   2
   2 -11 -11 12081.9 1735.20   4
  -9  11  -8 22487.0 1317.27   1
  -2  -9  -8 20309.5 1297.90   3
  -2  -9  -8 20272.2 1906.94   2
   2 -11  -8 18014.7 920.285   3
   2 -11  -8 20638.1 1652.12   4
 -11   9  -8 23306.5 1248.64   1
   9   2  -8 21916.7 1758.56   1
  11  -2  -8 17989.4 981.670   2
  -2  -9  -8 23204.9 1814.06   4
  11  -2  -8 22501.1 1868.61   1
   2 -11  -8 22393.2 1839.56   2
   9   2  -5 13111.2 1133.79   1
 -11   9  -5 12605.1 640.555   1
  11  -2  -5 13562.6 1129.68   1
  -2  -9  -5 12090.6 1278.99   2
  -2  -9  -5 11046.0 1095.14   4
   2 -11  -5 12746.0 1372.20   2
  -9  11  -5 11366.1 712.389   1
  11  -2  -5 11633.7 598.837   2
   2 -11  -5 11827.9 1077.65   4
  11  -2  -2 29530.4 858.497   2
 -11   9  -2 29630.3 1704.70   3
  -2  -9  -2 28330.0 1360.34   1
  -2  -9  -2 28058.8 1362.98   4
   2 -11  -2 26231.5 1594.61   2
   2 -11  -2 26488.9 1400.43   4
  -9  11  -2 31590.8 836.402   1
   9   2  -2 26814.4 642.961   2
   2 -11  -2 29638.7 1339.89   1
  11  -2  -2 29630.2 1237.35   1
  -9  11  -2 32135.5 1779.96   3
   9   2  -2 29710.7 1369.99   1
  -2  -9  -2 29172.4 1582.18   2
   9   2   1 41332.2 1408.46   1
   9   2   1 41381.5 1807.35   3
  -9  11   1 43837.4 1468.57   3
  -2  -9   1 44791.7 1531.25   4
  11  -2   1 43180.9 1472.23   2
  11  -2   1 44742.0 2029.63   3
   9   2   1 45160.1 1360.32   4
  -2  -9   1 41640.8 1545.30   1
   2 -11   1 45372.7 1629.00   3
   2 -11   1 44016.4 1519.30   1
   2 -11   1 40931.2 1507.32   4
  -2  -9   1 41000.1 1314.00   2
   9   2   1 43207.5 1464.17   2
  11  -2   1 44795.7 1304.56   4
   2 -11   1 46148.0 1510.11   2
  11  -2   1 42002.9 1173.26   1
  -9  11   4 19135.9 1018.71   4
   9   2   4 19804.7 1367.84   3
  -9  11   4 19358.8 1216.91   2
  -2  -9   4 20433.7 748.230   2
   2 -11   4 20477.0 1465.53   3
  -2  -9   4 18731.2 1501.45   3
 -11   9   4 20147.3 817.727   4
   2 -11   4 17909.4 1050.87   1
  11  -2   4 21884.6 1532.90   3
   2 -11   7 17609.5 1110.59   2
   9   2   7 18678.0 1513.39   3
   2 -11   7 19720.2 1737.70   3
  -2  -9   7 21940.2 1832.58   3
  11  -2   7 16284.2 1580.06   3
  -2  -9   7 18916.5 981.126   2
 -11   9   7 18567.3 1090.64   4
  11  -2  10 5094.92 1365.61   3
   9   2  10 3103.89 1122.72   3
   2 -11  10 4379.76 1423.55   3
  -2  -9  10 5808.45 1497.65   3
  11  -1  -9 4963.92 660.391   2
   1 -11  -9 3670.62 1112.86   4
  -1 -10  -9 6546.30 1365.86   4
  10   1  -9 4957.12 1249.86   1
   1 -11  -9 5455.06 1448.04   2
  -1 -10  -9 5575.03 1387.39   2
 -10  11  -9 10188.6 1125.08   1
 -11  10  -9 5939.40 932.572   1
  11  -1  -9 4672.27 1350.47   1
  10   1  -6 4609.43 1050.01   1
 -10  11  -6 5450.36 668.897   1
   1 -11  -6 5737.87 1237.88   2
 -11  10  -6 5397.79 612.100   1
   1 -11  -6 4271.60 1004.31   4
  -1 -10  -6 6293.28 1013.70   4
  -1 -10  -6 5387.16 1183.43   2
  11  -1  -6 5685.00 1027.54   1
  11  -1  -6 3513.46 373.174   2
   1 -11  -3 9789.03 1264.09   2
 -10  11  -3 10135.5 1238.10   3
 -11  10  -3 11893.7 1365.02   3
  -1 -10  -3 7575.99 893.515   1
  11  -1  -3 7565.52 401.787   2
  10   1  -3 11955.1 1058.13   1
  11  -1  -3 8847.15 458.625   2
 -10  11  -3 9286.19 516.629   1
   1 -11  -3 8214.15 932.258   1
   1 -11  -3 9830.89 994.103   4
  -1 -10  -3 9548.67 1215.33   2
  11  -1  -3 9708.69 974.314   1
  -1 -10  -3 8389.79 937.152   4
 -11  10   0 3625.76 839.337   3
   1 -11   0 1509.85 821.411   2
  -1 -10   0 2625.72 882.371   4
  10   1   0 2707.54 631.779   2
  -1 -10   0 1816.42 761.469   1
  11  -1   0 2178.09 578.981   2
   1 -11   0 1960.15 793.484   1
  11  -1   0 2902.12 520.986   4
   1 -11   0 2145.73 647.003   3
   1 -11   0 3197.93 889.368   4
  10   1   0 3927.64 605.104   4
  10   1   0 1990.73 775.866   1
  11  -1   0 1992.86 693.313   1
  -1 -10   0 2012.72 825.299   2
 -10  11   0 969.505 702.601   3
   1 -11   3 5932.52 750.339   1
  -1 -10   3 7662.71 662.654   2
 -10  11   3 6753.60 669.098   4
  11  -1   3 5978.98 1004.62   3
  10   1   3 7501.15 735.621   1
  -1 -10   3 8549.78 1087.99   3
   1 -11   3 5889.71 936.415   3
  10   1   3 6287.90 987.483   3
  11  -1   3 6691.53 916.019   2
  10   1   3 7567.47 920.931   2
  11  -1   3 6899.82 789.745   4
  -1 -10   3 7975.41 855.696   1
  10   1   3 6298.59 820.389   4
 -11  10   6 1877.57 558.472   4
  11  -1   6 2410.83 1000.89   3
 -10  11   6 1889.64 681.120   4
   1 -11   6 2221.21 522.162   2
  -1 -10   6 2514.36 1061.33   3
  -1 -10   6 1901.18 495.601   2
  10   1   6 1295.11 800.451   3
   1 -11   6 2502.93 1030.47   3
  10   1   9 6497.24 1280.28   3
  11  -1   9 7567.34 1412.41   3
   1 -11   9 7341.37 1557.17   3
  -1 -10   9 8197.41 1471.43   3
   0 -11 -10 11563.1 1704.09   2
  11   0 -10 10060.3 1657.39   1
   0 -11 -10 11599.2 1649.31   4
 -11  11 -10 13119.0 1263.73   1
 -11  11  -7-691.689 612.208   1
  11   0  -7 144.928 210.702   2
   0 -11  -7-300.509 1052.50   2
  11   0  -7 246.245 949.695   1
   0 -11  -7 203.271 845.577   4
 -11  11  -4 27770.9 768.639   1
   0 -11  -4 26539.6 1444.27   4
   0 -11  -4 30089.6 1697.55   2
  11   0  -4 27538.1 1445.89   1
   0 -11  -1 366.001 833.795   4
  11   0  -1 921.400 413.636   4
   0 -11  -1-276.812 938.596   2
  11   0  -1-56.2123 698.225   1
 -11  11  -1-53.6782 823.202   3
  11   0  -1 203.634 437.591   2
   0 -11  -1-1050.96 712.441   1
   0 -11   2 17677.7 1120.79   4
   0 -11   2 17063.1 978.114   2
  11   0   2 17583.5 923.610   1
   0 -11   2 17377.8 1296.78   3
  11   0   2 15231.3 1131.23   2
  11   0   2 15525.9 1321.28   3
  11   0   2 17551.8 1058.23   4
   0 -11   2 15734.4 1090.60   1
  11   0   5 149.993 827.170   3
 -11  11   5 104.737 490.553   4
   0 -11   5-353.101 378.164   2
   0 -11   5 68.7789 866.839   3
   0 -11   8 10505.4 941.717   2
   0 -11   8 12151.9 1676.47   3
  11   0   8 11058.2 1457.67   3
   0 -11  11-190.659 1329.09   3
  11   0  11 549.572 1106.36   3
 -12   0  -9-301.035 1017.79   2
  12 -12  -9 1371.40 1126.37   2
  12 -12  -9 517.417 863.690   4
   0  12  -9 1024.40 1097.64   1
  12 -12  -9-602.625 1232.01   1
 -12   0  -9-871.542 1082.25   4
  12 -12  -6 14494.0 1451.33   2
   0  12  -6 14064.3 1308.92   1
 -12   0  -6 12578.0 1318.67   2
 -12   0  -6 9129.98 995.536   1
  12 -12  -6 10827.6 1011.23   3
  12 -12  -6 12505.1 1041.32   4
 -12   0  -6 12774.6 1368.92   4
  12 -12  -3 643.240 575.183   4
  12 -12  -3 374.230 843.315   2
 -12   0  -3-331.153 538.850   1
 -12   0  -3-305.165 610.677   2
 -12   0  -3-207.113 605.408   4
   0  12  -3-78.1511 706.767   1
  12 -12  -3 139.824 712.927   3
   0  12   0 468.998 757.976   1
  12 -12   0 880.500 798.873   3
 -12   0   0 365.621 533.523   1
   0  12   0 1288.42 696.499   4
   0  12   0 512.624 653.008   3
 -12   0   0 148.991 473.836   2
   0  12   0 994.464 659.548   2
  12 -12   0 1492.72 410.051   1
 -12   0   0 463.954 404.069   4
  12 -12   3 549.263 856.083   3
  12 -12   3 53.5350 146.394   1
   0  12   3-295.851 245.461   3
   0  12   3-115.367 263.723   3
  12 -12   6 16365.5 1680.64   3
 -12   0   6 16358.8 667.035   4
  12 -12   9-1161.89 1306.28   3
  12 -11 -10 11062.9 1346.69   4
   1  11 -10 12457.3 1624.43   1
  -1  12 -10 14741.8 1619.45   1
 -11  -1 -10 16323.4 1894.04   2
  12 -11 -10 15242.4 1652.47   2
 -12   1 -10 8692.11 1543.26   2
  11 -12 -10 11530.6 1455.35   4
 -11  -1 -10 13525.3 1779.26   4
 -12   1 -10 19493.3 2077.86   4
  12 -11 -10 14735.6 1904.20   1
  11 -12 -10 16708.2 2062.05   1
  11 -12 -10 13409.2 1641.77   2
 -12   1  -7 26847.8 1892.58   4
  12 -11  -7 28719.2 1990.83   1
 -12   1  -7 26538.4 1918.61   2
  11 -12  -7 22462.5 1336.47   3
  12 -11  -7 22132.4 1472.03   3
 -11  -1  -7 26063.3 1869.01   2
  12 -11  -7 26467.0 1742.26   2
  12 -11  -7 26711.7 1416.77   4
   1  11  -7 25253.1 1715.76   1
  11 -12  -7 28471.1 1514.18   4
  11 -12  -7 24580.7 1808.19   2
 -11  -1  -7 24521.4 1880.41   4
  -1  12  -7 27917.9 1772.06   1
  12 -11  -4 23251.3 1299.96   3
  11 -12  -4 23584.4 1196.39   3
  11 -12  -4 21715.0 1417.17   2
 -12   1  -4 21865.2 1431.57   2
  -1  12  -4 22793.1 1300.34   1
   1  11  -4 22980.9 1328.24   1
 -11  -1  -4 20730.1 1118.61   1
 -12   1  -4 23566.9 1052.70   1
  12 -11  -4 22973.3 1391.73   2
  11 -12  -4 21293.9 1080.76   4
  12 -11  -4 20791.6 976.594   4
 -11  -1  -4 21654.9 1361.31   4
 -12   1  -4 20539.6 1354.28   4
 -11  -1  -4 20366.9 1468.09   3
 -11  -1  -4 23729.4 1422.92   2
   1  11  -1 57788.0 1875.81   1
  12 -11  -1 57157.9 2067.19   3
  12 -11  -1 57106.8 1470.31   4
  11 -12  -1 54346.1 1901.51   3
 -12   1  -1 55647.0 1381.01   1
 -12   1  -1 55664.6 1639.53   2
 -11  -1  -1 59788.7 1684.17   2
 -11  -1  -1 56576.7 1556.78   1
  -1  12  -1 56504.3 2007.50   3
   1  11  -1 58175.3 2010.17   3
  11 -12  -1 57034.6 1564.02   4
 -11  -1  -1 55316.8 1519.19   4
 -12   1  -1 59405.4 1524.28   4
  11 -12  -1 59135.8 1496.89   1
  -1  12  -1 53436.1 1771.32   1
   1  11   2 28736.1 1458.84   2
   1  11   2 31836.7 1507.29   1
  11 -12   2 30408.8 1701.34   3
  11 -12   2 30183.1 728.820   1
  -1  12   2 30242.8 931.976   3
 -11  -1   2 30523.5 1263.45   1
   1  11   2 30130.8 1474.50   4
   1  11   2 29351.9 994.184   3
 -12   1   2 31464.4 1259.13   1
  -1  12   2 32891.5 1502.34   1
  12 -11   2 27435.7 1746.04   3
  -1  12   2 27777.0 1456.03   2
 -11  -1   2 30231.0 746.751   4
  -1  12   2 31311.7 1462.18   4
  12 -11   5 5937.24 1138.27   3
 -12   1   5 5491.95 320.524   4
 -11  -1   5 7383.47 468.014   4
 -12   1   8 2619.96 538.461   4
  12 -11   8 1867.14 1266.49   3
  11 -12   8 3343.73 1433.85   3
   1  11   8 2277.93 437.039   3
 -11  -1   8 3521.03 621.090   4
  10 -12  -8 4397.65 1241.30   2
  -2  12  -8 4554.67 1095.46   1
  10 -12  -8 3833.86 876.605   3
 -10  -2  -8 3579.35 1069.00   2
 -10  -2  -8 2377.04 1063.13   4
   2  10  -8 5270.57 1230.65   1
 -12   2  -8 2888.03 1188.38   2
 -12   2  -8 3064.44 1077.73   4
  10 -12  -8 5572.50 1101.34   4
  12 -10  -8 3349.36 1171.72   1
  12 -10  -8 2887.24 1000.21   2
  12 -10  -8 3208.96 786.397   4
 -10  -2  -5 13290.2 1300.42   3
 -12   2  -5 16120.0 1270.46   4
   2  10  -5 14903.6 1225.26   1
  -2  12  -5 17360.6 1233.88   1
  10 -12  -5 14826.8 1028.71   4
 -10  -2  -5 14389.8 1054.78   1
 -12   2  -5 14147.8 1274.63   2
  10 -12  -5 15211.1 1395.28   2
 -12   2  -5 14673.6 908.306   1
  12 -10  -5 17820.2 935.774   4
 -10  -2  -5 16248.5 1311.18   4
  12 -10  -5 16041.2 1242.00   2
  10 -12  -5 16817.3 948.760   3
 -10  -2  -5 16092.7 1355.75   2
  10 -12  -5 13966.9 854.524   3
  12 -10  -2 14101.0 1177.11   3
 -10  -2  -2 13515.0 1046.57   2
  -2  12  -2 11971.2 1218.42   3
  10 -12  -2 14044.6 964.584   4
 -12   2  -2 11312.5 952.218   2
   2  10  -2 12806.0 1174.97   3
  -2  12  -2 14381.2 1041.89   1
  12 -10  -2 11661.7 1021.41   2
   2  10  -2 15391.9 1182.31   1
  10 -12  -2 11573.0 1118.12   2
 -10  -2  -2 11504.3 920.885   1
 -12   2  -2 11471.6 899.987   4
 -10  -2  -2 13944.3 963.448   4
  12 -10  -2 12254.6 775.579   4
 -12   2  -2 12471.7 747.122   1
  10 -12  -2 13922.2 1000.21   3
   2  10   1 24655.5 1304.52   2
  10 -12   1 26001.0 864.308   1
 -10  -2   1 23826.0 836.706   4
 -12   2   1 24137.5 651.179   4
 -12   2   1 25599.0 1055.38   1
  10 -12   1 25860.0 1567.56   3
  12 -10   1 21068.8 462.497   1
   2  10   1 25560.6 1298.93   4
 -10  -2   1 24353.1 820.954   2
   2  10   1 22956.4 1085.67   3
  -2  12   1 25735.5 1318.12   2
  12 -10   1 23852.2 1520.08   3
 -10  -2   1 25241.1 1174.63   1
   2  10   1 26159.5 1371.48   1
  -2  12   1 25861.0 1300.25   4
  -2  12   1 21881.1 1230.74   1
  12 -10   1 23983.1 521.792   1
  -2  12   1 24105.9 1015.65   3
  10 -12   4 7305.11 512.113   1
   2  10   4 7630.39 558.915   3
 -10  -2   4 7782.18 513.095   4
 -10  -2   4 7396.00 466.262   4
  12 -10   4 6553.78 1168.45   3
  10 -12   4 7762.45 1186.14   3
 -10  -2   7 2422.61 543.835   4
  12 -10   7 2644.92 1231.20   3
  10 -12   7 468.997 1092.26   3
   2  10   7 977.210 477.035   3
 -12   2   7 1747.28 440.845   4
  12 -10  10 7405.30 1585.43   3
  10 -12  10 6141.03 1475.44   3
   9 -12  -9 166.597 1039.22   2
  -9  -3  -9 2042.88 1198.73   2
 -12   3  -9 860.612 831.776   1
  -3  12  -9 177.826 962.153   1
 -12   3  -9 1051.20 1079.67   2
 -12   3  -9 600.303 1099.45   4
   3   9  -9 52.3984 1108.84   1
  -9  -3  -9 2652.45 1171.91   4
   9 -12  -9 334.102 921.222   4
  12  -9  -9 948.663 793.351   4
  12  -9  -9 1334.68 1251.47   1
  12  -9  -9-119.524 922.723   2
 -12   3  -6 3103.07 629.964   1
  -3  12  -6 4277.51 931.935   1
  -9  -3  -6 2292.41 869.693   3
   9 -12  -6 3494.10 580.672   3
  -9  -3  -6 2885.34 930.688   2
 -12   3  -6 3329.62 969.681   2
   3   9  -6 3297.18 973.132   1
  12  -9  -6 2440.96 951.137   1
  12  -9  -6 2115.80 793.452   3
  12  -9  -6 3630.90 606.065   4
   9 -12  -6 4514.66 847.785   4
   9 -12  -6 2253.38 995.913   2
  -9  -3  -6 2819.58 851.520   4
  12  -9  -6 4561.48 950.020   2
 -12   3  -6 3306.43 943.751   4
   3   9  -3 172.734 760.002   3
 -12   3  -3 1358.15 895.776   3
  -3  12  -3 230.765 761.374   3
   9 -12  -3 1773.26 645.277   4
  -3  12  -3 1535.92 695.764   1
   9 -12  -3 1020.22 505.020   3
   9 -12  -3 1703.53 886.030   2
  12  -9  -3 1076.45 683.215   2
  -9  -3  -3 931.316 658.687   2
 -12   3  -3 1699.17 471.938   1
  12  -9  -3 1589.91 704.225   3
 -12   3  -3 680.379 593.062   4
 -12   3  -3 1528.68 675.106   2
  12  -9  -3 1181.43 426.284   4
  12  -9  -3 1955.10 628.024   1
   3   9  -3 1031.69 784.604   1
  -9  -3  -3 1108.02 658.537   4
  -9  -3  -3 1527.26 626.610   1
   3   9   0 33021.7 1367.67   4
   3   9   0 34217.6 1517.50   1
  -3  12   0 32874.0 1373.67   1
 -12   3   0 33496.6 948.497   4
  -9  -3   0 33444.8 1136.60   4
  -9  -3   0 35001.2 1328.00   1
  12  -9   0 32990.7 1722.52   3
  -3  12   0 33572.2 1362.33   3
   9 -12   0 33540.5 1077.22   1
   3   9   0 33762.6 1411.41   3
 -12   3   0 32664.9 1012.09   1
  12  -9   0 35444.5 834.608   1
   3   9   0 33227.2 1301.59   2
   9 -12   0 32519.8 1481.57   3
  -9  -3   0 34388.8 1158.09   2
  -3  12   3 1091.36 713.188   4
  -9  -3   3 2503.41 448.027   4
   3   9   3 1509.23 518.498   3
  12  -9   3 797.634 888.742   3
   9 -12   3 973.276 878.320   3
   3   9   3 1618.90 693.082   1
   3   9   3 1474.21 790.770   2
   9 -12   3 2022.10 404.709   1
 -12   3   3 1671.91 568.105   1
  -9  -3   3 1822.36 621.915   1
  12  -9   3 2220.38 631.109   4
  12  -9   6 13071.7 1506.84   3
   9 -12   6 10196.7 1470.08   3
  -9  -3   6 11265.5 757.100   4
   3   9   6 12164.4 831.078   3
 -12   3   6 10179.1 526.630   4
   9 -12   9 2382.08 1295.40   3
   3   9   9 2027.27 750.078   3
  12  -9   9 2154.79 1188.95   3
 -12   4 -10 2327.91 892.205   1
   8 -12 -10 2808.68 1269.19   2
   4   8 -10 4554.99 1395.74   1
  -8  -4 -10 3580.04 1290.70   2
  -4  12 -10 4360.51 1146.20   1
 -12   4 -10 3704.10 1305.32   2
  12  -8 -10 2470.27 862.326   4
  12  -8 -10 4752.49 1354.61   1
  -8  -4 -10 2968.57 1246.14   4
   8 -12 -10 4946.26 1174.09   4
 -12   4 -10 3410.22 1306.21   4
  12  -8 -10 2009.14 1019.47   2
 -12   4  -7 20315.8 1705.94   2
  -4  12  -7 25563.4 1505.37   1
   8 -12  -7 21490.0 1064.67   3
  -8  -4  -7 22280.1 1838.13   2
   8 -12  -7 25033.1 1538.64   4
 -12   4  -7 21327.3 1225.40   1
 -12   4  -7 25127.8 1783.62   4
   8 -12  -7 24859.9 1797.98   2
  12  -8  -7 25011.8 1741.31   1
  12  -8  -7 21810.8 1142.47   4
  -8  -4  -7 23740.7 1729.89   4
  12  -8  -7 21589.4 1474.15   2
   4   8  -7 20401.6 1587.80   1
  -8  -4  -4 27706.9 1539.00   2
 -12   4  -4 26351.3 885.223   1
   4   8  -4 27850.2 1455.06   1
  -4  12  -4 26842.3 1255.21   1
 -12   4  -4 25369.8 1429.67   2
  12  -8  -4 26724.5 1279.37   2
   8 -12  -4 24092.7 750.660   3
  -8  -4  -4 26558.4 1291.52   1
   8 -12  -4 27118.4 1607.17   2
   8 -12  -4 24535.6 833.356   3
  -8  -4  -4 25316.8 1429.96   4
   8 -12  -4 26719.0 1240.49   4
  12  -8  -4 26718.8 814.307   4
 -12   4  -4 29182.6 1444.12   4
  12  -8  -4 28369.2 1389.61   1
   4   8  -1 53138.1 1335.80   2
  -8  -4  -1 55676.6 1626.08   2
  -4  12  -1 54564.6 1604.25   1
  12  -8  -1 53265.0 2029.18   3
   8 -12  -1 51593.9 1559.01   3
   4   8  -1 51574.8 1786.86   1
  -4  12  -1 52942.3 1892.08   3
  12  -8  -1 56205.5 1279.51   1
 -12   4  -1 52266.9 1018.93   1
   4   8  -1 53558.5 1926.35   3
  -8  -4  -1 56737.1 1672.90   1
   8 -12  -1 54431.0 1653.18   4
  -8  -4  -1 53005.5 1554.38   4
   8 -12  -1 53861.4 1835.06   2
   8 -12  -1 54940.0 1483.67   1
 -12   4  -1 54553.2 1412.21   4
  -4  12   2 3016.92 345.868   3
  -8  -4   2 3025.39 758.766   1
  12  -8   2 2198.51 948.034   3
   8 -12   2 3749.67 562.422   1
  -8  -4   2 2912.19 272.109   2
   8 -12   2 3043.10 939.222   3
  -4  12   2 2443.10 805.000   2
  -4  12   2 4314.05 789.701   4
  -8  -4   2 3387.53 583.767   4
   4   8   2 3324.82 781.365   1
 -12   4   2 2490.89 581.455   1
  12  -8   2 4724.45 832.670   2
   4   8   2 4961.70 986.216   2
   4   8   2 3222.94 760.705   4
  12  -8   2 4328.67 660.786   4
   4   8   5 38743.3 1363.53   3
   8 -12   5 34690.4 2012.05   3
   8 -12   5 37727.4 1240.31   1
  12  -8   5 34822.0 2024.92   3
  -8  -4   5 35500.5 1133.94   4
   8 -12   8 795.829 1192.96   3
 -12   4   8-87.2927 472.864   4
  -8  -4   8-177.245 222.975   2
  12  -8   8-396.124 1050.29   3
   4   8   8 337.564 633.261   3
  12  -8  11 11435.3 1788.37   3
   8 -12  11 11849.1 1735.33   3
 -12   5 -11 14663.3 1837.29   4
 -12   5 -11 19725.6 1582.40   1
  -7  -5 -11 17189.2 2061.11   2
  12  -7 -11 19658.6 2098.11   1
 -12   5 -11 15521.3 1833.58   2
   7 -12 -11 14689.8 1891.12   2
  -5  12 -11 17167.6 1698.94   1
  -7  -5 -11 18527.0 2054.00   4
   7 -12 -11 17185.2 1918.13   4
  12  -7 -11 13710.7 1456.96   2
   5   7 -11 16868.5 1949.30   1
 -12   5  -8 6347.56 867.328   1
   7 -12  -8 4831.59 1311.53   2
   7 -12  -8 6386.63 1124.78   4
  12  -7  -8 4693.24 943.072   2
  -7  -5  -8 4338.07 1289.79   2
   5   7  -8 4309.04 1211.66   1
 -12   5  -8 5796.03 1154.49   2
 -12   5  -8 6176.61 1233.02   4
   7 -12  -8 4900.42 717.559   3
  12  -7  -8 6182.64 1198.06   1
  12  -7  -8 5424.83 772.009   4
  -7  -5  -8 7259.29 1276.88   4
  -5  12  -8 6424.94 1060.28   1
   5   7  -5 61011.3 2138.18   1
  -7  -5  -5 58428.7 2266.11   2
 -12   5  -5 61811.2 2203.19   2
  12  -7  -5 67655.5 2203.91   1
   7 -12  -5 64830.4 2013.30   4
  -7  -5  -5 60532.2 2211.86   4
 -12   5  -5 64125.5 1425.96   1
   7 -12  -5 66807.8 2473.84   2
  -5  12  -5 62489.9 1821.90   1
  12  -7  -5 61970.1 1852.20   2
  -7  -5  -5 59711.3 2048.89   3
  12  -7  -5 61547.4 1266.19   4
 -12   5  -5 61752.7 2208.04   4
 -12   5  -2 14946.5 1320.42   3
  -7  -5  -2 16261.1 1144.53   2
 -12   5  -2 14116.8 458.319   1
  -5  12  -2 14927.2 972.212   1
   7 -12  -2 17734.3 1339.94   2
  -5  12  -2 20105.2 1399.61   3
  -7  -5  -2 16062.8 1082.50   4
   7 -12  -2 18541.6 1136.20   4
  12  -7  -2 17621.6 939.424   1
   7 -12  -2 16618.2 783.622   3
  12  -7  -2 16879.5 1391.02   3
   5   7  -2 15440.3 1219.90   1
   5   7  -2 16853.4 1329.73   3
  12  -7  -2 14828.3 547.979   4
 -12   5  -2 17666.4 977.932   4
   7 -12  -2 16464.3 1038.56   1
  -7  -5  -2 16961.5 1085.85   1
  -7  -5   1 24857.4 1039.25   4
  12  -7   1 25361.2 1575.39   3
  -5  12   1 26836.7 1034.78   3
  -7  -5   1 24916.7 1236.37   1
   7 -12   1 26306.9 1437.57   3
   5   7   1 24493.2 1278.54   1
 -12   5   1 26170.1 985.358   1
  -5  12   1 25523.1 1219.30   1
  12  -7   1 23582.4 506.449   1
  12  -7   1 25576.5 1195.83   2
  -7  -5   1 27459.5 887.762   2
   5   7   1 26930.2 1343.69   2
  12  -7   1 27094.0 1075.19   4
  -5  12   1 29394.5 1315.29   4
   5   7   1 25597.0 1240.87   4
   7 -12   1 25135.4 1075.28   1
  12  -7   4 15037.1 1445.34   3
   5   7   4 15996.8 1008.41   3
  -5  12   4 17819.3 1174.67   4
   7 -12   4 18129.1 1462.82   3
   7 -12   4 16796.3 1065.83   2
   7 -12   4 16539.3 834.238   1
  12  -7   7 17340.8 1738.36   3
   7 -12   7 15997.0 1682.42   3
   5   7   7 17589.6 1199.01   3
  -7  -5   7 13268.3 970.322   4
 -12   5   7 13426.3 760.138   4
   5   7  10 2559.97 907.357   3
   7 -12  10 1772.16 1271.34   3
   6 -12  -9 4257.80 1312.58   2
  -6  -6  -9 1464.51 1129.53   2
 -12   6  -9 2106.90 1059.35   2
 -12   6  -9 2506.00 1068.63   4
   6 -12  -9 3459.55 1188.23   4
  12  -6  -9 2424.72 1199.00   1
 -12   6  -9 3735.47 830.175   1
   6   6  -9 2026.30 1104.90   1
  12  -6  -9 1545.98 874.783   2
  -6  -6  -9 205.211 1053.66   4
  -6  12  -9 859.574 926.034   1
   6   6  -6 10010.8 1166.37   1
  -6  -6  -6 10300.4 1287.09   2
  12  -6  -6 10613.8 1198.66   1
  -6  12  -6 9315.57 947.355   1
   6 -12  -6 9837.28 1072.01   4
 -12   6  -6 9891.21 1136.63   2
   6 -12  -6 9630.50 1278.31   2
 -12   6  -6 8450.05 718.414   1
  12  -6  -6 9782.58 650.953   4
 -12   6  -6 9730.64 730.454   1
  -6  -6  -6 9156.56 1006.41   3
  -6  -6  -6 8677.38 1081.41   4
 -12   6  -6 8562.74 1112.20   4
  12  -6  -6 11108.9 981.374   2
 -12   6  -3 1867.06 247.507   1
 -12   6  -3 1997.14 871.244   3
  12  -6  -3 4402.57 720.538   1
   6 -12  -3 2603.05 718.961   1
  -6  -6  -3 2971.69 852.354   2
  -6  -6  -3 3903.81 834.461   4
  -6  12  -3 2883.65 643.005   1
  -6  12  -3 2284.22 953.605   3
  -6  -6  -3 2730.65 717.281   1
   6   6  -3 2211.65 853.563   3
   6 -12  -3 3158.21 730.592   4
  12  -6  -3 3427.84 652.799   2
   6   6  -3 1396.74 832.719   1
   6 -12  -3 3236.19 1003.07   2
 -12   6  -3 2575.21 689.042   4
   6 -12   0 61089.6 1588.11   1
  12  -6   0 62328.3 1115.64   1
  -6  12   0 60097.2 1601.11   1
  -6  12   0 61417.8 1790.78   3
   6 -12   0 60975.6 1887.26   2
   6 -12   0 58456.5 1700.40   3
  -6  -6   0 58680.2 1609.40   4
   6 -12   0 58986.7 1715.21   4
   6   6   0 56511.6 1812.44   1
   6   6   0 60735.4 1597.87   4
  -6  -6   0 63528.9 1807.92   1
   6   6   0 59061.1 1565.84   2
  12  -6   0 62726.0 1287.80   4
  12  -6   0 56552.7 2178.20   3
  -6  -6   0 56791.4 1495.39   2
   6   6   3 2941.97 717.692   3
  -6  -6   3 2955.34 595.137   4
  -6  -6   3 1860.91 668.797   1
   6 -12   3 3221.01 569.850   1
   6   6   3 2265.01 768.975   4
   6 -12   3 2681.57 888.280   3
  12  -6   3 3170.13 723.456   2
  12  -6   3 3062.23 656.579   4
   6   6   3 3164.68 840.812   2
  -6  12   3 3941.55 727.470   4
  -6  12   3 4006.31 855.706   2
   6   6   3 2186.54 703.594   1
  12  -6   3 2620.40 975.115   3
   6 -12   6 8768.13 851.998   1
  -6  -6   6 9118.68 799.204   4
   6 -12   6 9661.44 1354.38   3
  12  -6   6 8475.74 1298.77   3
   6   6   6 9161.13 909.310   3
 -12   6   6 8917.29 596.729   4
  12  -6   9 3192.93 1396.86   3
   6   6   9-357.442 807.493   3
   6 -12   9 1799.28 1310.20   3
  -7  12 -10 8231.06 1230.84   1
  -5  -7 -10 4631.47 1372.50   4
  12  -5 -10 5119.96 1448.43   1
   5 -12 -10 6852.85 1330.86   4
   5 -12 -10 4996.92 1473.87   2
   7   5 -10 7094.67 1445.94   1
  12  -5 -10 4908.38 949.769   2
 -12   7 -10 4489.22 1219.54   2
  -5  -7 -10 6160.23 1634.38   2
 -12   7 -10 6043.62 1021.72   1
  -5  -7  -7 17050.5 1685.44   2
 -12   7  -7 18304.9 1540.22   2
  12  -5  -7 16523.7 1090.05   2
 -12   7  -7 21402.4 1615.15   4
 -12   7  -7 15213.9 950.853   1
   7   5  -7 17882.5 1582.65   1
  -5  -7  -7 16547.2 1304.37   3
   5 -12  -7 16665.7 1378.85   4
  -5  -7  -7 18459.2 1532.51   4
   5 -12  -7 17311.4 1692.05   2
  12  -5  -7 19561.7 1584.47   1
  -7  12  -7 20160.5 1277.48   1
 -12   7  -4 19019.2 1191.07   4
 -12   7  -4 15659.2 505.470   1
  -7  12  -4 18623.0 940.073   1
 -12   7  -4 15119.2 524.423   1
  12  -5  -4 17565.6 1169.92   1
   5 -12  -4 17086.3 1158.52   4
   7   5  -4 17976.3 1260.83   1
  -5  -7  -4 16922.8 1345.90   2
   5 -12  -4 17704.0 1514.35   2
  12  -5  -4 17455.7 921.635   2
  -5  -7  -4 16130.8 1177.92   4
 -12   7  -1 23786.2 1499.42   3
   7   5  -1 23520.7 1002.19   4
  -5  -7  -1 23613.8 1197.55   4
   5 -12  -1 21886.9 1117.43   1
   5 -12  -1 23248.4 982.174   3
   5 -12  -1 27513.2 1526.39   2
  12  -5  -1 21790.3 922.274   1
  -7  12  -1 22988.8 962.737   1
   5 -12  -1 22921.2 1280.19   4
   7   5  -1 22155.3 1276.28   1
  -7  12  -1 22912.6 1349.00   3
  -5  -7  -1 21546.3 1259.52   1
   7   5  -1 23730.4 911.191   2
  12  -5  -1 24786.3 1579.06   3
  12  -5  -1 21813.7 616.445   4
  -5  -7  -1 21504.7 1229.40   2
   7   5   2 17147.8 1192.10   3
  -7  12   2 18065.0 772.786   3
   7   5   2 16450.6 1062.63   1
   5 -12   2 14366.7 1242.19   3
  -5  -7   2 16930.1 995.603   4
  12  -5   2 16428.2 1064.74   2
  -5  -7   2 16912.7 728.038   2
   7   5   2 14779.6 1139.24   2
   7   5   2 17361.4 1107.50   4
  12  -5   2 15879.0 506.522   1
  -7  12   2 16808.1 1064.19   4
  12  -5   2 16569.7 1466.06   3
  -5  -7   2 13064.1 944.893   1
  12  -5   2 17395.7 983.986   4
   5 -12   2 16255.7 946.494   1
  -7  12   2 17091.1 1170.71   2
  12  -5   5 53216.8 2383.67   3
   5 -12   5 56299.3 2415.80   3
   5 -12   5 52687.0 1725.00   2
 -12   7   5 52366.8 1094.40   4
   7   5   5 57492.1 1984.47   3
   5 -12   5 53149.9 1629.78   1
 -12   7   8 3724.70 655.318   4
  12  -5   8 5230.76 1276.68   3
  -5  -7   8 4097.45 576.837   2
   5 -12   8 5729.74 1335.59   3
   7   5   8 4797.81 1026.92   3
   7   5  11 14279.7 1539.44   3
   5 -12  11 16588.3 2069.15   3
  12  -5  11 15532.6 1893.65   3
  -8  12 -11 16560.2 1610.40   1
  -4  -8 -11 11067.8 1780.33   2
   4 -12 -11 8534.84 1632.31   2
  -4  -8 -11 14462.2 1956.36   4
 -12   8 -11 14116.3 1392.81   1
  12  -4 -11 14654.6 1939.53   1
   4 -12 -11 14178.1 1762.98   4
   8   4 -11 13446.6 1952.39   1
  12  -4  -8 578.955 954.022   1
   8   4  -8 1549.31 1120.99   1
  -4  -8  -8-223.253 1124.84   2
  -8  12  -8 1109.95 780.360   1
 -12   8  -8-61.4441 626.340   1
   4 -12  -8-376.169 1089.53   2
 -12   8  -8-577.974 900.604   2
  12  -4  -8-96.6842 612.198   2
  -4  -8  -8 775.173 788.365   3
  -4  -8  -8 805.640 1015.93   4
   4 -12  -8-300.721 887.107   4
   4 -12  -8 121.771 280.053   3
 -12   8  -5 39548.5 953.201   1
  -4  -8  -5 36405.9 1773.19   4
   8   4  -5 35703.5 1714.80   1
  -4  -8  -5 32860.0 1786.47   2
  -8  12  -5 38671.3 1280.34   1
  12  -4  -5 38434.9 1747.16   1
   4 -12  -5 36895.5 1657.22   4
  12  -4  -5 39390.1 1241.36   2
   4 -12  -5 38257.8 1992.05   2
  -4  -8  -2 4161.09 862.018   1
  -8  12  -2 4745.30 583.843   1
   4 -12  -2 4261.54 901.052   4
  -4  -8  -2 2415.01 746.000   4
   8   4  -2 5944.94 972.548   1
 -12   8  -2 4044.68 960.658   3
   4 -12  -2 3237.96 342.064   3
   4 -12  -2 3942.30 744.299   1
   8   4  -2 3079.74 333.530   2
  -4  -8  -2 3462.00 853.063   2
  -8  12  -2 4199.90 945.442   3
   4 -12  -2 4277.81 999.589   2
  12  -4  -2 4044.17 704.012   1
   4 -12   1 48956.8 1631.01   4
  -8  12   1 55412.5 1566.10   3
  -4  -8   1 55727.6 1463.23   2
  12  -4   1 59732.8 2286.00   3
  12  -4   1 54689.1 1627.04   2
   8   4   1 57926.8 1718.19   2
   4 -12   1 57046.8 1853.72   3
  -4  -8   1 55593.8 1657.74   4
  12  -4   1 56781.0 1186.11   1
   4 -12   1 56946.7 1656.38   1
   8   4   1 56779.4 1636.56   4
   4 -12   1 53972.9 1732.50   2
  12  -4   1 56594.4 1408.42   4
   8   4   1 54799.0 1696.80   1
   8   4   4 21749.1 1323.27   3
  12  -4   4 21842.3 1615.29   3
  -4  -8   4 20964.0 651.445   2
  -4  -8   4 20608.5 609.629   2
   4 -12   4 23325.2 1639.72   3
  -8  12   4 21868.6 1177.71   4
 -12   8   4 21159.6 698.181   4
   4 -12   4 21946.9 1093.72   1
  -4  -8   7 17764.3 1700.74   3
   8   4   7 19864.1 1498.38   3
   4 -12   7 21211.1 1929.79   3
  12  -4   7 20088.3 1774.74   3
 -12   8   7 18563.8 973.982   4
  -4  -8   7 19858.7 859.598   2
   8   4  10 2574.34 1001.24   3
   4 -12  10 2572.95 1303.17   3
  12  -4  10 5492.01 1345.08   3
  12  -3  -9 2044.80 1147.74   1
   3 -12  -9 1904.86 1165.34   2
   9   3  -9 2981.71 1261.87   1
 -12   9  -9 1071.80 698.165   1
  -3  -9  -9 1020.60 1270.14   2
  12  -3  -9 1718.05 655.618   2
  -9  12  -9 2288.25 873.636   1
  -3  -9  -9 1311.04 976.678   4
   3 -12  -9 1850.98 1047.63   4
   9   3  -6 11441.5 1273.16   1
  12  -3  -6 11115.4 734.262   2
  -3  -9  -6 13829.0 1318.83   4
 -12   9  -6 14333.0 758.107   1
  12  -3  -6 14588.0 1274.12   1
  -3  -9  -6 13635.4 1429.33   2
  -9  12  -6 12241.6 908.648   1
   3 -12  -6 13652.5 1475.15   2
   3 -12  -6 12460.2 1199.82   4
  -3  -9  -3 962.735 843.498   2
  -3  -9  -3 1530.73 685.207   1
  12  -3  -3 568.866 644.466   1
  -9  12  -3 2500.43 1028.86   3
  -3  -9  -3 3457.77 788.925   4
  12  -3  -3 1478.76 438.606   2
   9   3  -3 2423.58 833.744   1
  -9  12  -3 1890.28 475.595   1
   3 -12  -3 934.287 711.204   4
   3 -12  -3 712.828 956.536   2
  12  -3   0 29152.9 1767.52   3
   9   3   0 32431.9 1210.81   2
   9   3   0 30717.5 1150.65   4
  -3  -9   0 32711.3 1451.51   4
  12  -3   0 30025.4 1196.68   2
  12  -3   0 33012.6 1104.41   1
   3 -12   0 30872.0 1275.77   3
  -3  -9   0 26152.3 1314.00   1
   3 -12   0 33051.9 1491.33   4
   9   3   0 31723.7 1406.96   1
   3 -12   0 32824.9 1408.50   1
   3 -12   0 34290.9 1485.02   2
  -3  -9   0 31658.3 1372.54   2
  -9  12   0 31857.8 1476.12   3
  12  -3   0 32717.2 958.965   4
 -12   9   0 30234.3 1536.94   3
   9   3   3 867.653 747.499   2
   9   3   3 1804.77 773.981   3
   3 -12   3 2561.57 880.511   3
  12  -3   3 1480.76 861.041   3
  12  -3   3 122.596 516.892   4
  -3  -9   3 831.930 627.342   1
  12  -3   3 1582.61 646.966   2
   3 -12   3 2056.67 644.653   1
  -9  12   3 1073.38 551.765   4
   9   3   3 1419.78 607.077   1
   9   3   3 1604.24 680.568   4
  -3  -9   3 688.455 414.284   2
  -3  -9   6 3928.85 487.292   2
  -3  -9   6 5444.56 1219.37   3
   9   3   6 3465.33 952.702   3
   3 -12   6 4138.13 683.486   2
  12  -3   6 3860.32 1109.11   3
 -12   9   6 3369.03 568.327   4
   3 -12   6 4863.20 1170.87   3
 -12   9   6 3431.42 741.433   2
  12  -3   9 1695.50 1172.54   3
   9   3   9 901.986 878.682   3
   3 -12   9 794.230 1183.36   3
  -3  -9   9 421.098 1257.01   3
  12  -2 -10 7925.51 1584.57   1
  10   2 -10 9609.75 1586.59   1
  -2 -10 -10 7654.20 1490.43   4
  -2 -10 -10 7509.95 1629.28   2
   2 -12 -10 8343.81 1577.20   2
 -10  12 -10 7339.89 1078.67   1
 -12  10 -10 8210.99 1112.67   1
   2 -12 -10 6849.10 1412.34   4
  12  -2  -7 2464.95 485.804   2
 -12  10  -7 3666.98 637.718   1
  10   2  -7 3934.25 1152.69   1
 -10  12  -7 3562.39 725.212   1
  12  -2  -7 3073.94 1050.89   1
   2 -12  -7 5518.79 1276.47   2
   2 -12  -7 2567.78 980.240   4
  -2 -10  -7 4904.93 1080.71   4
  -2 -10  -7 2883.55 1085.59   2
   2 -12  -4 7718.38 925.451   4
  10   2  -4 8048.32 1012.33   1
   2 -12  -4 9084.57 1246.40   2
  -2 -10  -4 8217.51 1003.50   4
 -12  10  -4 7691.70 357.862   1
 -10  12  -4 9022.46 605.341   1
  12  -2  -4 8883.01 966.952   1
  12  -2  -4 7002.23 489.261   2
  -2 -10  -4 8237.91 1087.43   2
 -12  10  -1 28586.5 1611.54   3
   2 -12  -1 26718.4 1345.57   1
   2 -12  -1 30203.1 1502.24   4
 -10  12  -1 30008.0 1580.67   3
   2 -12  -1 30751.8 1580.30   2
  12  -2  -1 27602.2 1159.75   1
  12  -2  -1 30135.7 1057.65   2
  10   2  -1 29847.0 1347.92   1
  -2 -10  -1 27314.1 1410.06   4
  -2 -10  -1 27575.3 1356.21   1
  10   2  -1 29750.9 961.896   4
  -2 -10  -1 29301.0 1431.30   2
  12  -2  -1 30453.7 744.399   4
  10   2  -1 29191.0 986.211   2
  -2 -10   2 14390.1 1012.46   4
   2 -12   2 12581.8 978.978   1
   2 -12   2 12998.8 1189.29   3
  10   2   2 13661.2 943.073   1
  12  -2   2 13715.8 756.585   1
   2 -12   2 13398.3 990.520   2
  10   2   2 11724.0 1226.87   3
  12  -2   2 14102.2 917.476   4
  -2 -10   2 13591.8 839.295   2
  12  -2   2 14313.0 1393.51   3
  10   2   2 15037.8 1026.28   4
  -2 -10   2 14243.7 1095.54   1
  12  -2   2 12960.7 1086.26   2
  10   2   2 12534.4 1075.81   2
   2 -12   5 11780.9 828.276   2
  12  -2   5 13536.5 1396.31   3
  -2 -10   5 14141.9 705.878   2
  10   2   5 13311.2 1280.80   3
   2 -12   5 13288.3 1382.83   3
  -2 -10   5 12574.7 1389.03   3
 -10  12   5 14129.3 977.984   4
 -12  10   5 12007.3 754.460   4
  12  -2   8 3535.30 1133.91   3
  -2 -10   8 2750.98 669.826   2
  10   2   8 3276.28 1027.71   3
   2 -12   8 2084.80 1221.25   3
  -2 -10   8 2840.47 1325.35   3
  12  -1  -8 4124.20 1234.33   1
   1 -12  -8 4743.13 1393.05   2
  -1 -11  -8 4364.85 1341.79   2
  11   1  -8 4435.39 1186.05   1
  12  -1  -8 2431.71 400.471   2
 -11  12  -8 4449.78 816.754   1
   1 -12  -8 3113.30 1072.84   4
  -1 -11  -8 3768.51 1042.29   4
 -12  11  -8 5116.96 792.280   1
  12  -1  -5 10075.3 1137.45   1
 -12  11  -5 10255.3 553.259   1
 -11  12  -5 9919.80 646.138   1
  11   1  -5 7338.58 1009.30   1
  -1 -11  -5 9235.75 1250.05   2
   1 -12  -5 11296.2 1340.39   2
  -1 -11  -5 8367.29 1028.72   4
   1 -12  -5 9238.05 1066.47   4
  11   1  -2 29687.4 818.162   2
 -11  12  -2 29473.3 1765.80   3
 -12  11  -2 29360.6 1758.16   3
  11   1  -2 31270.4 1398.54   1
   1 -12  -2 31940.6 1704.89   2
 -11  12  -2 31010.1 754.712   1
  -1 -11  -2 26482.0 1355.31   1
  -1 -11  -2 31199.5 1637.31   2
   1 -12  -2 29452.3 1464.22   4
  -1 -11  -2 31453.9 1504.97   4
   1 -12  -2 29224.1 1420.09   1
  12  -1  -2 29468.0 1299.81   1
  12  -1  -2 28389.9 866.826   2
 -11  12   1 55543.1 1805.14   3
  11   1   1 49185.2 2129.28   3
   1 -12   1 51693.4 1802.65   3
  12  -1   1 54359.6 1677.65   2
  -1 -11   1 53896.6 1809.25   1
   1 -12   1 53787.9 1801.14   4
   1 -12   1 58130.3 1824.26   1
  12  -1   1 55511.7 1495.14   4
  -1 -11   1 52646.6 1775.56   4
  -1 -11   1 54092.5 1643.98   2
  11   1   1 58238.8 1563.75   4
  11   1   1 55611.9 1710.82   2
  12  -1   1 50659.7 2221.01   3
 -12  11   1 57005.4 1888.71   3
  12  -1   1 57107.2 1483.18   1
   1 -12   1 56721.0 1732.40   2
  11   1   1 54637.4 1609.44   1
  11   1   4 20231.4 1478.56   3
  12  -1   4 20175.6 1546.95   3
 -11  12   4 20941.9 1010.48   4
 -12  11   4 19072.0 880.281   4
  -1 -11   4 22350.3 958.204   2
   1 -12   4 22433.1 1570.33   3
  -1 -11   4 19928.2 1583.18   3
  -1 -11   7 20364.0 1045.86   2
  11   1   7 21014.1 1706.04   3
  12  -1   7 23328.5 1855.55   3
   1 -12   7 19968.8 1890.61   3
  -1 -11   7 20619.3 1885.46   3
 -12  11   7 21667.6 1198.53   4
   1 -12   7 18742.8 1091.68   2
  11   1  10 10490.7 1537.93   3
   1 -12  10 12792.4 1845.47   3
  -1 -11  10 16728.5 1988.70   3
  12  -1  10 12688.0 1693.05   3
   0 -12  -9-1394.09 1271.32   2
 -12  12  -9-776.958 751.446   1
  12   0  -9-852.580 1051.41   1
   0 -12  -9 1065.12 1061.22   4
  12   0  -6 19074.4 1501.66   1
   0 -12  -6 18266.0 1713.00   2
 -12  12  -6 18189.0 870.025   1
   0 -12  -6 16446.6 1393.46   4
  12   0  -3 86.7896 207.862   2
   0 -12  -3 437.164 694.691   4
  12   0  -3 194.376 680.858   1
   0 -12  -3-454.443 901.885   2
  12   0  -3-171.975 183.539   2
 -12  12  -3 19.0044 177.465   1
   0 -12   0-501.488 765.950   2
 -12  12   0 1637.21 761.680   3
  12   0   0 1350.46 549.298   2
  12   0   0 851.993 478.715   4
   0 -12   0 2058.41 859.892   1
  12   0   0 1295.92 727.579   1
   0 -12   0 970.872 833.072   4
  12   0   3-193.852 464.580   1
  12   0   3 1340.50 815.191   3
   0 -12   3-556.889 544.708   2
   0 -12   3-479.876 838.267   3
  12   0   3 0.41223 548.915   4
   0 -12   6 13969.4 871.200   2
  12   0   6 14735.0 1467.93   3
   0 -12   6 15332.2 1587.20   3
 -12  12   6 11689.7 938.969   4
  12   0   9 1075.79 1064.08   3
   0 -12   9 810.897 1193.26   3
   0  13 -10 23530.4 2061.77   1
  13 -13 -10 24905.1 2008.73   2
 -13   0 -10 25738.3 2358.06   2
 -13   0 -10 27575.1 2324.01   4
  13 -13 -10 24239.0 1815.53   4
   0  13  -7-220.292 1012.84   1
 -13   0  -7-35.3300 1066.80   2
  13 -13  -7 1.02095 715.808   3
  13 -13  -7 1502.28 747.602   4
 -13   0  -7-719.670 950.407   4
  13 -13  -7-557.683 1083.49   2
  13 -13  -4 72317.5 2198.54   3
 -13   0  -4 70886.1 1872.64   1
 -13   0  -4 74162.5 2459.76   2
   0  13  -4 71180.6 2255.37   1
  13 -13  -4 77847.3 1888.26   4
  13 -13  -4 73136.5 2394.58   2
 -13   0  -4 76076.1 2385.54   4
  13 -13  -1 422.340 594.683   4
  13 -13  -1-22.8601 679.862   3
   0  13  -1 1436.84 771.038   3
 -13   0  -1-227.499 523.412   2
 -13   0  -1-439.030 539.212   1
   0  13  -1 29.6217 727.167   1
 -13   0  -1 142.826 474.493   4
  13 -13   2 46322.6 725.358   1
  13 -13   2 47052.6 2240.95   3
 -13   0   2 46615.1 1603.51   1
   0  13   2 47739.9 1308.68   3
 -13   0   2 43879.1 814.725   4
  13 -13   5-906.938 999.604   3
 -13   0   5-33.0157 194.959   4
 -13   0   5-129.656 158.091   4
  13 -13   8 28136.5 2306.82   3
  13 -12  -8 3791.91 878.664   4
  12 -13  -8 2682.21 1215.28   2
  -1  13  -8 4595.19 1213.94   1
  13 -12  -8 3924.40 1223.53   1
 -13   1  -8 5267.91 1288.98   2
   1  12  -8 2329.85 1184.91   1
 -12  -1  -8 2399.29 1105.83   2
  12 -13  -8 2209.91 915.480   4
 -12  -1  -8 6153.49 1402.42   4
  13 -12  -8 3004.06 1102.46   2
 -13   1  -8 2980.08 1215.14   4
 -12  -1  -5 7112.48 874.090   1
 -12  -1  -5 8736.99 1152.20   2
  13 -12  -5 6465.25 733.015   4
  13 -12  -5 6807.75 908.110   3
 -13   1  -5 7587.09 1070.73   2
   1  12  -5 6351.74 1026.92   1
  -1  13  -5 7603.65 1032.45   1
 -13   1  -5 7186.72 801.347   1
 -12  -1  -5 8510.17 1067.34   4
  12 -13  -5 7826.74 853.630   3
  12 -13  -5 7478.80 850.328   4
  12 -13  -5 5960.01 1104.93   2
 -13   1  -5 7534.19 1036.86   4
  13 -12  -5 6559.29 1048.83   2
  -1  13  -2 11694.2 1192.69   3
  13 -12  -2 10265.0 1036.35   3
  12 -13  -2 8242.49 895.192   3
 -13   1  -2 9445.14 904.840   2
 -13   1  -2 8677.30 734.120   1
   1  12  -2 8968.45 1067.86   3
  12 -13  -2 9092.19 841.023   4
 -12  -1  -2 9694.35 839.435   1
  13 -12  -2 7997.97 945.723   2
  -1  13  -2 7198.98 918.090   1
  12 -13  -2 10898.1 1101.46   2
 -12  -1  -2 8114.48 831.554   2
  13 -12  -2 8658.26 742.078   4
 -13   1  -2 9496.50 821.535   4
 -12  -1  -2 8082.91 808.202   4
   1  12  -2 8608.66 990.974   1
 -12  -1   1 22663.2 795.113   4
  12 -13   1 22939.7 1525.30   3
  -1  13   1 23798.3 1347.24   1
  -1  13   1 23218.6 1334.57   2
  -1  13   1 20566.5 1048.54   3
   1  12   1 21262.8 1056.37   3
  12 -13   1 25056.3 800.393   1
 -13   1   1 23957.4 730.507   4
   1  12   1 21921.5 1342.57   1
 -13   1   1 20910.9 1022.39   1
   1  12   1 21533.1 1275.60   2
  13 -12   1 22929.8 1578.49   3
  13 -12   1 23681.2 634.569   1
 -12  -1   1 23020.3 1117.42   1
 -12  -1   4 1565.53 237.981   4
  12 -13   4 2518.09 1018.86   3
   1  12   4 1533.50 259.115   3
   1  12   4 1687.85 251.402   3
 -12  -1   4 1670.05 275.143   4
 -13   1   7 14881.4 683.313   4
  13 -12   7 21216.3 1981.30   3
  12 -13   7 20567.6 1993.59   3
 -12  -1   7 15897.5 790.299   4
  13 -12  10 5271.01 1559.82   3
  12 -13  10 6353.71 1605.29   3
  -2  13  -9 11281.1 1462.64   1
 -11  -2  -9 11438.1 1574.77   4
   2  11  -9 12397.0 1545.75   1
 -13   2  -9 11007.0 1536.37   2
 -11  -2  -9 9854.82 1560.28   2
  13 -11  -9 9306.98 1299.21   2
  13 -11  -9 11903.5 1676.82   1
  11 -13  -9 10329.9 1392.36   4
  13 -11  -9 10083.4 1153.70   4
  11 -13  -9 12504.6 1600.20   2
 -13   2  -9 14428.8 1689.28   4
  11 -13  -6 2331.77 655.239   3
   2  11  -6 3104.78 1026.70   1
  13 -11  -6 860.244 932.729   2
 -13   2  -6 1652.51 860.861   4
 -13   2  -6 2081.06 662.999   1
 -11  -2  -6 2140.98 971.309   2
 -13   2  -6 3431.01 1007.91   2
  11 -13  -6 2396.44 635.772   3
  -2  13  -6 1268.58 869.732   1
  13 -11  -6 1328.50 692.813   3
  13 -11  -6 2827.58 1001.64   1
  13 -11  -6 2904.20 669.371   4
  11 -13  -6 1375.69 735.922   4
 -11  -2  -6 2658.25 910.608   4
  11 -13  -6 1527.35 1027.22   2
  13 -11  -3 14017.4 1144.83   3
  11 -13  -3 14665.9 1007.27   3
  11 -13  -3 13453.5 1204.33   2
  -2  13  -3 11063.5 1045.19   1
 -11  -2  -3 13844.4 1128.07   2
 -13   2  -3 13197.5 1085.93   2
   2  11  -3 13852.2 1158.57   1
 -13   2  -3 13889.6 818.241   1
  13 -11  -3 13684.7 1080.79   2
 -11  -2  -3 13089.2 1028.68   4
  13 -11  -3 15792.6 819.781   4
 -11  -2  -3 12376.5 940.605   1
  11 -13  -3 13546.7 931.926   4
 -13   2  -3 13634.0 1024.71   4
   2  11   0 6135.62 918.255   1
 -11  -2   0 4581.04 738.830   1
  11 -13   0 4214.63 926.672   3
 -11  -2   0 5015.51 602.760   2
  -2  13   0 4931.09 799.249   3
  -2  13   0 5185.39 858.284   1
  11 -13   0 5189.61 578.335   1
  13 -11   0 4128.99 978.552   3
   2  11   0 4886.20 816.049   4
 -11  -2   0 4897.24 598.149   4
   2  11   0 4877.17 751.847   2
 -13   2   0 5372.18 594.113   1
 -13   2   0 5396.96 540.292   4
   2  11   0 5717.03 787.555   3
  11 -13   3 24539.7 1720.97   3
   2  11   3 26631.3 994.823   3
 -11  -2   3 24610.1 749.832   4
 -13   2   3 20718.0 1219.81   1
  13 -11   3 23376.3 1738.55   3
  11 -13   3 27405.9 754.056   1
   2  11   3 26788.1 1471.59   1
   2  11   6 3606.66 456.894   3
 -13   2   6 2694.82 299.420   4
  13 -11   6 3514.33 1190.52   3
  11 -13   6 4219.08 1203.52   3
 -11  -2   6 3739.12 485.704   4
  13 -11   9 5403.13 1504.04   3
   2  11   9 4233.51 593.633   3
  11 -13   9 7476.38 1534.46   3
  10 -13 -10 34660.0 2854.08   1
 -13   3 -10 27931.5 2304.30   4
 -13   3 -10 31102.0 2352.75   2
   3  10 -10 28066.2 2141.68   1
  13 -10 -10 25939.5 1887.70   2
  -3  13 -10 27965.1 2014.34   1
  13 -10 -10 31260.7 2458.12   1
  10 -13 -10 26416.5 2000.57   4
 -10  -3 -10 30041.6 2324.41   2
 -13   3 -10 29999.4 1814.00   1
 -10  -3 -10 31102.3 2377.69   4
  13 -10 -10 29509.1 1738.67   4
  10 -13 -10 25928.2 2110.35   2
  10 -13  -7 1326.79 1152.95   2
  13 -10  -7 1783.12 671.059   4
  13 -10  -7 2122.01 956.072   1
  10 -13  -7 511.406 744.774   4
 -10  -3  -7 1141.91 943.224   2
  10 -13  -7 627.194 560.181   3
  -3  13  -7 1852.73 964.262   1
 -13   3  -7 933.027 1088.77   2
 -13   3  -7 563.063 662.385   1
   3  10  -7-1268.53 1074.60   1
 -13   3  -7 730.039 938.069   4
  13 -10  -7 255.376 899.115   2
 -10  -3  -7 1439.40 1018.94   4
 -10  -3  -4 49126.4 1723.59   1
  13 -10  -4 52323.5 1871.03   1
 -10  -3  -4 49742.6 2033.88   2
  10 -13  -4 45543.2 1595.57   4
   3  10  -4 52742.5 1927.34   1
 -13   3  -4 51287.0 2007.97   2
  -3  13  -4 53069.7 1797.64   1
  10 -13  -4 51696.5 2121.91   2
 -13   3  -4 47736.4 1877.61   4
  13 -10  -4 53087.4 1277.36   4
 -13   3  -4 51063.2 1318.81   1
  10 -13  -4 53917.1 1499.93   3
  13 -10  -4 51736.7 1841.85   2
 -10  -3  -4 52830.5 2007.06   4
   3  10  -1 3507.95 604.962   2
  -3  13  -1 4603.95 836.903   1
  10 -13  -1 4033.08 757.331   4
  13 -10  -1 3692.41 535.802   1
  10 -13  -1 3974.08 759.159   3
  -3  13  -1 3500.24 788.620   3
 -10  -3  -1 3790.10 697.637   2
 -13   3  -1 4677.03 519.872   1
   3  10  -1 4224.92 819.771   3
  13 -10  -1 3227.10 918.177   3
  10 -13  -1 4377.93 946.387   2
 -10  -3  -1 3562.61 679.971   4
  10 -13  -1 4656.93 632.338   1
 -10  -3  -1 4094.53 754.058   1
   3  10  -1 4165.22 901.973   1
 -13   3  -1 3739.97 565.641   4
  13 -10   2 74025.5 2643.06   3
  10 -13   2 77022.0 2504.46   3
  10 -13   2 80140.3 1419.71   1
   3  10   2 73863.8 2219.62   2
  -3  13   2 76728.5 2179.50   1
  13 -10   2 74301.6 2135.94   2
 -10  -3   2 76120.0 1990.24   1
  -3  13   2 73039.6 1306.85   3
 -10  -3   2 74704.6 1391.85   4
  -3  13   2 71933.7 2182.09   2
   3  10   2 73933.9 2183.77   4
  -3  13   2 73729.2 2099.20   4
  13 -10   2 75453.5 1939.66   4
 -13   3   2 78003.3 1869.91   1
   3  10   2 79855.1 2233.89   1
  10 -13   5 2412.75 476.700   1
   3  10   5 2617.72 483.817   3
  10 -13   5 1991.49 990.296   3
  13 -10   5 2301.08 963.244   3
 -10  -3   5 2106.75 400.706   4
  13 -10   8 27879.1 2203.71   3
   3  10   8 26989.1 1209.08   3
   9 -13  -8 3581.81 717.894   3
  -9  -4  -8 3115.01 1186.38   2
   4   9  -8 3717.46 1135.12   1
  13  -9  -8 4876.77 1098.42   2
 -13   4  -8 6319.33 1264.18   2
  -4  13  -8 3102.91 981.593   1
 -13   4  -8 5359.78 1238.38   4
   9 -13  -8 5403.82 1080.83   4
  13  -9  -8 5457.97 1232.42   1
  13  -9  -8 5778.73 811.995   4
   9 -13  -8 5563.49 1296.13   2
  -9  -4  -8 3462.31 1207.57   4
  -9  -4  -5 12810.4 1220.37   3
 -13   4  -5 16708.9 1352.15   4
  -9  -4  -5 14890.6 1419.49   2
   9 -13  -5 13096.1 701.273   3
   4   9  -5 15017.3 1292.95   1
 -13   4  -5 16306.6 849.113   1
  -4  13  -5 14134.8 1070.77   1
 -13   4  -5 11537.1 1209.29   2
   9 -13  -5 12683.5 645.485   3
  13  -9  -5 16321.3 1260.30   1
  -9  -4  -5 13664.8 1274.12   4
   9 -13  -5 15819.2 1106.43   4
   9 -13  -5 14682.4 1462.00   2
  13  -9  -5 14917.4 751.170   4
  13  -9  -5 13847.6 1113.97   2
  -9  -4  -2 14886.7 1089.89   2
   9 -13  -2 15476.9 927.561   3
 -13   4  -2 14292.7 615.149   1
   9 -13  -2 17132.9 1296.38   2
  -4  13  -2 13428.0 1216.54   3
   9 -13  -2 13354.2 1023.32   4
 -13   4  -2 15477.2 988.084   4
 -13   4  -2 15140.7 1071.28   2
   9 -13  -2 14266.2 986.324   1
   4   9  -2 14935.2 1172.15   1
  -9  -4  -2 14774.4 1075.11   1
  13  -9  -2 14768.4 874.536   1
 -13   4  -2 12823.6 1296.14   3
   4   9  -2 14694.8 1256.56   3
  -4  13  -2 15495.9 1070.90   1
  -9  -4  -2 14931.8 1053.09   4
  13  -9  -2 14658.4 1278.42   3
  13  -9  -2 15017.6 677.561   4
 -13   4   1 67114.1 1557.57   1
  -9  -4   1 67248.2 1834.67   1
  -9  -4   1 64154.8 1286.74   2
   9 -13   1 66396.7 2197.44   3
  -9  -4   1 63848.3 1445.53   4
   4   9   1 65602.8 1999.48   1
  -4  13   1 62621.3 1862.68   1
  13  -9   1 63623.0 2388.85   3
   4   9   1 66261.2 1914.04   4
   4   9   1 65785.4 1931.08   2
   9 -13   1 69134.6 1506.41   1
  -4  13   1 64565.8 2015.28   2
  -4  13   1 64329.3 1911.70   4
  13  -9   1 67532.9 1660.31   4
  -4  13   1 68858.1 1640.68   3
   4   9   4 26848.0 1145.69   3
   9 -13   4 28048.6 1832.45   3
  -9  -4   4 29838.1 1012.73   4
  13  -9   4 26852.0 1795.68   3
   9 -13   4 27942.6 974.150   1
 -13   4   7 2780.53 454.683   4
   4   9   7 3323.86 700.507   3
  13  -9   7 4873.13 1405.29   3
   9 -13   7 4019.50 1276.59   3
  -9  -4   7 3165.36 607.387   4
  13  -9  10 1991.50 1326.95   3
   9 -13  10 3193.78 1459.18   3
   4   9  10 3182.57 787.250   3
 -13   5  -9 4472.33 892.842   1
   8 -13  -9 3262.51 1312.24   2
  13  -8  -9 3370.88 1253.12   1
  -5  13  -9 4794.93 1107.97   1
 -13   5  -9 6740.02 1300.23   2
   5   8  -9 5695.02 1322.81   1
  13  -8  -9 2665.74 935.210   2
   8 -13  -9 2278.92 1055.94   4
 -13   5  -9 2243.83 1040.28   4
  -8  -5  -9 2587.36 1156.49   2
  -8  -5  -9 4525.91 1228.18   4
  13  -8  -9 2838.98 747.908   4
  -8  -5  -6 7180.18 1065.20   3
   8 -13  -6 4498.43 390.911   3
  13  -8  -6 7260.80 983.791   2
 -13   5  -6 7173.39 718.291   1
   5   8  -6 7841.28 1132.43   1
   8 -13  -6 4505.11 400.776   3
  -5  13  -6 7889.69 979.721   1
  -8  -5  -6 4984.22 1091.02   2
   8 -13  -6 8272.56 1029.94   4
 -13   5  -6 8467.52 1150.54   2
  13  -8  -6 5746.92 1102.30   1
  -8  -5  -6 6802.58 1087.32   4
   8 -13  -6 9658.66 1350.35   2
  13  -8  -6 6531.88 608.332   4
 -13   5  -6 8526.70 1131.88   4
  -8  -5  -3 30093.7 1571.86   2
   8 -13  -3 27666.5 1596.27   2
  -8  -5  -3 27572.9 1424.00   4
 -13   5  -3 26933.3 1380.82   2
   8 -13  -3 27526.0 887.196   3
   8 -13  -3 25670.8 1256.19   4
  -5  13  -3 28543.5 1760.03   3
  13  -8  -3 26373.4 1225.77   2
 -13   5  -3 28566.5 743.955   1
  -5  13  -3 27950.1 1233.10   1
   5   8  -3 27965.7 1486.53   1
  13  -8  -3 25321.9 1211.68   1
  13  -8  -3 27865.0 688.363   4
   8 -13  -3 30837.1 1462.03   1
 -13   5  -3 29475.2 1337.99   4
  -8  -5  -3 29016.0 1367.58   1
  13  -8   0 7279.69 1135.62   3
   8 -13   0 7851.47 732.950   1
  -8  -5   0 7011.77 727.183   2
   5   8   0 7897.85 860.132   4
  -5  13   0 8289.10 857.719   3
  -8  -5   0 6434.97 764.311   4
  -8  -5   0 6423.78 892.045   1
   8 -13   0 6474.55 872.030   4
 -13   5   0 6784.06 545.788   1
   5   8   0 8242.28 844.102   2
   8 -13   0 7786.24 1034.19   2
  -5  13   0 7812.17 811.602   1
  13  -8   0 7942.42 508.939   1
  13  -8   0 6982.67 591.106   4
   5   8   0 6982.98 1056.11   1
   8 -13   0 6621.42 877.074   3
   8 -13   3 18391.6 837.069   1
   5   8   3 18001.1 1090.42   3
   5   8   3 17725.9 1199.44   1
  -5  13   3 18395.2 1172.38   4
   8 -13   3 15182.2 1361.15   3
  -8  -5   3 17562.0 859.279   4
  13  -8   3 17753.5 1127.29   4
  13  -8   3 16360.5 1498.70   3
   5   8   6 2403.05 643.554   3
  13  -8   6 2449.53 1092.42   3
   8 -13   6 913.598 1004.39   3
   8 -13   6 2239.25 618.757   1
 -13   5   6 1661.32 327.281   4
  -8  -5   6 2405.26 524.540   4
  13  -8   9 5479.85 1433.76   3
   8 -13   9 5532.05 1443.57   3
   5   8   9 3587.60 877.298   3
 -13   6 -10 12454.9 1651.58   4
   6   7 -10 8453.41 1504.56   1
  13  -7 -10 6856.81 1164.80   2
  -6  13 -10 8479.92 1215.74   1
 -13   6 -10 7558.78 1052.86   1
  -7  -6 -10 6486.47 1584.14   2
  -7  -6 -10 6376.31 1363.24   4
 -13   6 -10 6340.05 1419.33   2
  13  -7 -10 8957.32 1563.62   1
   7 -13 -10 6640.96 1409.45   4
   7 -13 -10 10891.0 1675.15   2
   7 -13  -7 1203.37 860.558   4
  13  -7  -7 643.527 753.298   2
  -7  -6  -7 1344.39 912.319   3
   7 -13  -7 829.193 221.690   3
   7 -13  -7 863.064 266.700   3
   7 -13  -7 1716.27 1137.53   2
 -13   6  -7 1887.60 604.813   1
 -13   6  -7 1877.03 597.993   1
   6   7  -7 1148.88 967.875   1
  -6  13  -7 1634.02 825.027   1
  -7  -6  -7 865.217 1027.19   2
 -13   6  -7 2732.61 1036.26   2
  13  -7  -7 1655.95 927.781   1
  -7  -6  -7 2088.27 1033.54   4
  13  -7  -7 1060.12 500.822   4
 -13   6  -7 2770.66 963.354   4
  -6  13  -4 34911.2 1307.00   1
  13  -7  -4 33566.8 1506.92   1
  -7  -6  -4 33033.9 1667.14   2
   7 -13  -4 33015.2 1815.55   2
  -7  -6  -4 33452.0 1636.52   4
   7 -13  -4 31582.4 1476.18   4
  13  -7  -4 32966.3 1296.62   2
   6   7  -4 31710.0 1569.94   1
 -13   6  -4 32840.7 1657.78   2
 -13   6  -4 32709.7 1527.59   4
 -13   6  -4 33152.1 810.469   1
 -13   6  -1 15228.3 1265.24   3
  -7  -6  -1 15053.3 1043.66   2
  13  -7  -1 15457.1 627.957   4
  -6  13  -1 14393.0 1173.38   3
   7 -13  -1 14337.5 903.041   3
 -13   6  -1 13792.5 517.291   1
  -7  -6  -1 14373.7 985.038   4
   7 -13  -1 14319.9 968.908   1
   6   7  -1 15314.3 825.904   2
  -6  13  -1 14322.1 925.714   1
  -7  -6  -1 14774.8 1113.14   1
   6   7  -1 15362.3 1202.51   3
   6   7  -1 15734.3 939.196   4
   7 -13  -1 15335.1 1102.50   4
   7 -13  -1 16877.1 1347.66   2
   6   7  -1 13998.3 1182.84   1
  13  -7  -1 14759.2 1344.38   3
  13  -7  -1 16044.1 804.070   1
   6   7   2 23269.0 1289.76   3
  13  -7   2 23601.8 1141.53   4
  -6  13   2 23871.7 1262.47   4
  13  -7   2 21569.1 1589.95   3
  -7  -6   2 20565.3 665.209   2
   7 -13   2 20795.8 1452.90   3
   7 -13   2 24173.0 1047.56   1
   6   7   2 19338.3 1210.29   4
  13  -7   2 22055.7 1261.74   2
  -6  13   2 17814.9 1252.71   2
  -7  -6   2 21839.7 1024.68   4
  -7  -6   2 20352.2 1171.56   1
  -6  13   2 22353.6 791.997   3
   6   7   2 20862.7 1244.61   1
   6   7   2 20377.9 1324.45   2
   6   7   5 16215.3 1114.52   3
  13  -7   5 15068.7 1531.48   3
   7 -13   5 16886.9 1623.29   3
   7 -13   5 15853.7 941.260   1
  13  -7   8 7804.83 1537.28   3
   7 -13   8 9451.91 1590.57   3
   6   7   8 9521.84 1081.68   3
 -13   6   8 6723.10 683.714   4
   7   6  -8 11967.5 1491.94   1
   6 -13  -8 6899.23 1449.18   2
  -7  13  -8 8586.51 1070.31   1
 -13   7  -8 10881.6 1507.40   4
 -13   7  -8 9791.50 911.056   1
 -13   7  -8 9444.14 1356.17   2
  13  -6  -8 8380.97 1333.17   1
  -6  -7  -8 9308.87 1442.01   4
  13  -6  -8 7220.01 928.069   2
   6 -13  -8 7772.79 1211.15   4
  -6  -7  -8 7792.34 1376.45   2
  -6  -7  -5 20381.1 1589.60   2
   7   6  -5 20452.0 1432.96   1
  13  -6  -5 18922.7 1064.64   2
 -13   7  -5 21566.4 772.470   1
 -13   7  -5 19970.1 1457.30   2
  13  -6  -5 20205.5 1312.78   1
   6 -13  -5 18929.9 1272.06   4
 -13   7  -5 18892.7 704.072   1
  -6  -7  -5 18010.9 1338.63   4
   6 -13  -5 17281.4 1560.06   2
  -7  13  -5 21327.3 1092.29   1
 -13   7  -5 18155.0 1301.78   4
  -7  13  -2 25593.2 1075.63   1
   7   6  -2 23945.5 705.568   2
  13  -6  -2 25977.8 1114.35   1
  -7  13  -2 27263.1 1641.64   3
   6 -13  -2 25039.1 1233.49   1
   6 -13  -2 24921.1 832.103   3
   7   6  -2 27320.5 1398.00   1
  -6  -7  -2 24684.0 1288.44   4
   7   6  -2 25909.3 1623.30   3
  -6  -7  -2 24646.0 1353.65   1
   6 -13  -2 25629.5 1546.65   2
 -13   7  -2 22052.7 1562.67   3
   6 -13  -2 24697.9 1312.12   4
  -6  -7  -2 24199.8 1336.01   2
  -7  13   1 15740.3 946.471   3
   7   6   1 15880.2 1059.85   4
  -6  -7   1 15413.5 837.731   2
  -6  -7   1 13894.0 1083.96   1
   6 -13   1 15576.8 1217.29   3
  13  -6   1 15842.4 1040.71   2
  13  -6   1 15019.2 589.006   1
   6 -13   1 14392.0 941.613   1
   7   6   1 16033.7 1110.87   1
  13  -6   1 14426.6 1461.57   3
   7   6   1 15238.9 1106.60   2
  -6  -7   1 14474.3 988.539   4
  13  -6   1 15524.0 874.242   4
  13  -6   4 31900.9 1942.05   3
  -7  13   4 28730.5 1374.09   4
   6 -13   4 34902.5 1943.99   3
   7   6   4 30032.4 1505.82   3
   6 -13   4 31497.2 1196.79   1
 -13   7   7 1412.82 503.210   4
  -6  -7   7 774.736 245.116   2
  13  -6   7 1224.71 1027.54   3
   7   6   7 1069.82 699.444   3
   6 -13   7 2969.01 1124.29   3
  13  -6  10 7262.89 1512.85   3
   6 -13  10 6212.33 1563.00   3
   7   6  10 7705.38 1147.49   3
  13  -5  -9 2453.15 1219.44   1
   5 -13  -9 6573.07 1428.49   2
 -13   8  -9 4283.43 1197.63   2
  13  -5  -9 5133.21 833.251   2
  -5  -8  -9 3688.97 1258.65   2
   8   5  -9 5054.16 1293.09   1
  -8  13  -9 5071.63 1036.75   1
 -13   8  -9 5755.08 873.085   1
  -5  -8  -9 3760.98 1087.06   4
   5 -13  -9 3702.43 1207.22   4
  13  -5  -6 4123.03 988.708   1
  13  -5  -6 3006.80 664.822   2
   5 -13  -6 2346.15 1201.02   2
   5 -13  -6 2505.05 823.431   4
  -5  -8  -6 2822.33 987.226   2
  -8  13  -6 1277.18 676.708   1
   8   5  -6 3785.03 999.823   1
  -5  -8  -6 1569.48 874.964   4
 -13   8  -6 2390.56 475.126   1
  -5  -8  -3 17738.1 1236.30   4
   5 -13  -3 16261.6 1188.95   4
  13  -5  -3 16740.3 897.265   2
   8   5  -3 20039.4 1296.75   1
   5 -13  -3 18533.6 1471.67   2
  -8  13  -3 17702.3 927.971   1
  13  -5  -3 19154.9 1100.98   1
  -5  -8  -3 16577.9 1242.37   2
 -13   8   0 5665.92 952.258   3
  13  -5   0 9118.67 662.992   1
   5 -13   0 8667.28 924.977   3
  -5  -8   0 7066.60 856.160   4
  -8  13   0 7049.96 855.720   3
  13  -5   0 7959.65 764.173   2
  -5  -8   0 7503.82 957.049   1
   5 -13   0 7087.21 1007.14   4
   8   5   0 8400.04 820.989   4
   5 -13   0 7591.65 960.241   2
  -5  -8   0 8183.48 862.412   2
   8   5   0 7360.25 1002.40   1
   8   5   0 7701.21 816.133   2
  13  -5   0 7626.25 571.850   4
  13  -5   0 8268.31 1298.03   3
  -8  13   0 7694.42 734.592   1
   5 -13   0 6901.38 825.248   1
  -8  13   3 27293.2 1266.42   4
   5 -13   3 31182.7 1207.18   1
  13  -5   3 28215.0 1790.21   3
   5 -13   3 29217.3 1622.29   3
   8   5   3 30562.1 1399.17   1
  -5  -8   3 30356.5 1251.53   4
   8   5   3 28597.4 1585.73   2
  13  -5   3 27131.4 1300.67   4
   8   5   3 26715.9 1485.63   3
  -5  -8   3 27146.9 765.623   2
   8   5   6 4835.11 863.500   3
   5 -13   6 7052.70 1299.86   3
  13  -5   6 5786.97 1180.02   3
 -13   8   6 6920.92 619.118   4
  -5  -8   6 5655.54 390.381   2
  13  -5   9 3489.12 1228.01   3
   8   5   9 4102.07 951.396   3
   5 -13   9 2429.08 1355.12   3
  -9  13 -10 6691.11 1185.66   1
  13  -4 -10 3933.39 1404.15   1
  -4  -9 -10 5093.44 1330.03   4
   4 -13 -10 6450.20 1596.36   2
   9   4 -10 5333.43 1441.12   1
  -4  -9 -10 5594.82 1464.64   2
 -13   9 -10 7086.03 1005.98   1
   4 -13 -10 5117.81 1336.71   4
  13  -4  -7 5368.29 1089.24   1
   4 -13  -7 4843.85 1376.06   2
  13  -4  -7 3720.86 661.759   2
  -4  -9  -7 3488.15 1256.21   2
   4 -13  -7 4755.60 1016.75   4
   9   4  -7 5320.72 1219.79   1
  -4  -9  -7 3969.08 1015.27   4
  -9  13  -7 4483.00 833.879   1
 -13   9  -7 3951.85 630.652   1
   9   4  -4 29206.8 1517.31   1
  -9  13  -4 28338.8 1059.48   1
  -4  -9  -4 29995.2 1583.83   4
  13  -4  -4 27969.7 1420.44   1
   4 -13  -4 24459.6 1373.22   4
  13  -4  -4 28167.3 1002.15   2
   4 -13  -4 29291.6 1751.25   2
  -4  -9  -4 26556.1 1624.60   2
  13  -4  -1 70374.7 1590.10   1
  -9  13  -1 74082.3 2401.68   3
  -4  -9  -1 70003.2 2042.97   2
 -13   9  -1 69418.1 2434.14   3
  13  -4  -1 68984.4 1602.00   2
   4 -13  -1 70268.2 2170.32   2
   4 -13  -1 72935.5 1583.14   3
   9   4  -1 62101.8 1867.06   1
   4 -13  -1 72436.1 2131.12   4
   9   4  -1 70522.1 1553.39   4
  -4  -9  -1 64963.2 1923.61   4
  -4  -9  -1 65265.0 1978.00   1
  13  -4  -1 71045.7 1038.91   4
   9   4  -1 70493.0 1460.29   2
  13  -4  -1 76122.8 2563.65   3
  -9  13  -1 70002.4 1529.06   1
   4 -13  -1 69744.7 1917.52   1
  -9  13   2 15242.1 833.635   3
   9   4   2 14209.9 1014.93   4
  13  -4   2 13357.2 1355.43   3
   9   4   2 13243.1 1185.71   3
  -4  -9   2 12415.1 1074.11   1
  13  -4   2 13141.3 1071.48   2
   4 -13   2 12609.6 967.720   1
  -4  -9   2 13786.7 1018.10   4
   9   4   2 12292.9 957.194   1
  13  -4   2 13101.9 624.562   1
  -4  -9   2 13685.1 786.239   2
   4 -13   2 13019.4 1210.90   3
  13  -4   2 13343.3 910.983   4
   9   4   2 13189.3 1095.91   2
  13  -4   5 12026.4 1311.33   3
  -4  -9   5 11839.3 526.930   2
   9   4   5 10652.9 1151.71   3
  -4  -9   5 11945.5 566.437   2
   4 -13   5 13141.6 1437.74   3
   4 -13   5 12314.7 936.578   2
 -13   9   5 12321.1 658.674   4
  -9  13   5 11881.0 1011.31   4
  13  -4   8 3043.07 1223.32   3
   9   4   8 4045.62 1034.49   3
   4 -13   8 3147.65 1325.89   3
 -13   9   8 2320.76 653.671   4
  -4  -9   8 3427.49 584.098   2
  -3 -10  -8 30823.6 2228.66   2
  13  -3  -8 23804.4 1072.31   2
 -10  13  -8 29573.3 1486.54   1
  13  -3  -8 26298.3 1924.06   1
 -13  10  -8 28808.7 1295.88   1
   3 -13  -8 29310.6 1914.70   4
  -3 -10  -8 25313.2 1911.95   4
   3 -13  -8 27894.7 2175.26   2
  10   3  -8 26666.5 2002.78   1
 -10  13  -5 2357.53 538.272   1
  -3 -10  -5 2846.36 1048.60   2
  10   3  -5 1274.61 831.104   1
 -13  10  -5 1853.49 293.867   1
  -3 -10  -5 1032.77 725.646   4
  13  -3  -5 2786.01 802.328   1
  13  -3  -5 2848.95 478.428   2
   3 -13  -5 2180.29 778.530   4
   3 -13  -5 1742.37 943.269   2
 -10  13  -2 82558.9 1452.73   1
  13  -3  -2 76999.7 1883.41   1
   3 -13  -2 78132.8 2205.78   4
  10   3  -2 76229.0 2065.51   1
   3 -13  -2 70305.7 2054.92   1
  13  -3  -2 75577.0 1504.31   2
  -3 -10  -2 73957.3 2313.15   2
  -3 -10  -2 76015.5 2159.09   4
   3 -13  -2 75845.3 2388.25   2
  10   3  -2 70389.2 1129.60   2
 -10  13  -2 81348.1 2681.61   3
 -13  10  -2 75078.0 2654.09   3
  -3 -10  -2 71627.4 2112.03   1
  13  -3   1 4171.78 1047.66   3
  13  -3   1 3232.61 593.553   4
  -3 -10   1 4235.55 802.073   4
   3 -13   1 3751.89 846.740   4
  10   3   1 3567.81 781.097   1
 -10  13   1 4215.95 711.092   3
  10   3   1 3736.27 716.635   2
  13  -3   1 3378.51 709.782   2
   3 -13   1 4253.40 789.361   1
  -3 -10   1 4159.28 756.446   2
  10   3   1 4150.99 721.231   4
   3 -13   1 3481.80 853.550   2
  13  -3   1 3950.02 609.101   1
  -3 -10   1 3101.79 839.187   1
   3 -13   1 5178.84 859.960   3
 -10  13   4 44986.1 1532.11   4
  13  -3   4 50441.0 2363.47   3
   3 -13   4 45861.5 2210.38   3
  -3 -10   4 52564.4 2262.39   3
  10   3   4 49218.7 2076.97   3
  -3 -10   4 50078.1 1171.85   2
   3 -13   4 41804.0 1572.57   1
  -3 -10   7 906.143 472.484   2
  13  -3   7 2337.61 1107.59   3
   3 -13   7 336.159 1080.97   3
 -13  10   7 188.525 548.449   4
  -3 -10   7-48.9028 1143.79   3
  10   3   7 304.849 821.943   3
  13  -3  10 22013.8 2017.49   3
  10   3  10 23466.8 1923.45   3
   3 -13  10 25905.5 2352.94   3
 -11  13  -9 7317.27 991.249   1
  13  -2  -9 5560.98 1405.61   1
   2 -13  -9 6314.10 1539.05   2
  -2 -11  -9 4789.12 1357.82   2
  11   2  -9 8025.32 1499.99   1
  13  -2  -9 4281.69 559.902   2
   2 -13  -9 8388.97 1399.37   4
  -2 -11  -9 5028.31 1272.29   4
 -13  11  -9 7702.93 941.873   1
 -13  11  -6 4171.83 515.581   1
  13  -2  -6 3498.84 1041.85   1
  11   2  -6 5827.74 1109.84   1
   2 -13  -6 3875.85 1200.80   2
 -11  13  -6 4777.90 701.760   1
  -2 -11  -6 5135.49 1261.67   2
   2 -13  -6 4702.09 1031.24   4
  -2 -11  -6 3538.58 952.029   4
  13  -2  -6 3228.71 386.018   2
  13  -2  -3 24651.2 1289.75   1
   2 -13  -3 24989.3 1632.48   2
  11   2  -3 24802.5 1419.95   1
 -11  13  -3 25442.1 793.776   1
   2 -13  -3 23193.4 1367.53   4
  13  -2  -3 23628.3 757.413   2
  13  -2  -3 22582.1 793.137   2
  -2 -11  -3 24318.4 1377.32   4
  -2 -11  -3 26027.1 1566.06   2
 -11  13   0 6619.35 946.844   3
  13  -2   0 5759.19 1101.61   3
 -13  11   0 4599.41 870.314   3
  13  -2   0 6367.24 600.619   4
  11   2   0 4421.18 830.880   1
  13  -2   0 4539.04 651.353   2
   2 -13   0 6319.01 963.449   4
   2 -13   0 4686.81 875.178   1
  13  -2   0 5210.99 739.864   1
   2 -13   0 5778.55 817.371   3
  -2 -11   0 6345.58 979.576   1
  11   2   0 4689.46 648.366   4
  -2 -11   0 5375.06 947.482   4
  -2 -11   0 6151.06 909.161   2
   2 -13   0 5613.45 923.216   2
  11   2   0 4770.34 704.368   2
  13  -2   3 11493.6 1341.49   3
   2 -13   3 11581.8 964.220   1
   2 -13   3 12451.1 916.694   2
  11   2   3 12441.2 1280.81   3
  -2 -11   3 12876.3 1301.86   3
   2 -13   3 12199.8 1173.87   3
  -2 -11   3 11721.8 1004.36   4
  13  -2   3 11902.7 740.674   1
  13  -2   3 12296.7 1033.65   4
  11   2   3 14109.4 951.323   1
  -2 -11   3 13216.9 804.138   2
 -13  11   6 2531.20 587.442   4
  11   2   6 2852.02 991.385   3
  13  -2   6 2916.09 1129.82   3
  -2 -11   6 2561.48 486.758   2
   2 -13   6 3001.81 644.168   2
   2 -13   6 2620.26 1085.79   3
  -2 -11   6 3003.02 1074.97   3
  13  -2   9 9459.46 1555.64   3
  11   2   9 10593.5 1415.45   3
   2 -13   9 11055.4 1763.29   3
  -2 -11   9 7803.34 1491.76   3
   1 -13 -10 5341.22 1573.90   2
  12   1 -10 4605.16 1514.22   1
  -1 -12 -10 3023.01 1456.24   2
 -13  12 -10 4870.24 931.022   1
 -12  13 -10 5429.47 954.440   1
  13  -1 -10 4854.57 1478.69   1
  -1 -12 -10 3208.00 1298.40   4
   1 -13 -10 1500.82 1246.92   4
 -13  12  -7 24299.5 1058.57   1
 -12  13  -7 25901.2 1177.59   1
  12   1  -7 27976.8 1954.28   1
   1 -13  -7 24669.6 1785.05   4
   1 -13  -7 24938.2 2012.29   2
  13  -1  -7 20400.0 1672.82   1
  -1 -12  -7 20794.7 1690.44   4
  -1 -12  -7 23990.1 2013.08   2
   1 -13  -4 2213.59 1030.49   2
  -1 -12  -4 3504.41 960.726   2
 -12  13  -4 2376.20 393.897   1
  13  -1  -4 1378.89 194.052   2
  13  -1  -4 1971.48 751.195   1
  12   1  -4 3076.34 835.968   1
  13  -1  -4 1826.13 247.177   2
  -1 -12  -4 2202.28 800.010   4
   1 -13  -4 1143.89 754.320   4
  12   1  -1 24310.9 979.455   2
 -12  13  -1 25208.8 1599.84   3
  13  -1  -1 24097.4 991.041   2
  13  -1  -1 25795.7 1210.01   1
  12   1  -1 22357.8 1222.51   1
  12   1  -1 25727.9 904.258   4
  13  -1  -1 24415.9 803.138   4
   1 -13  -1 23737.4 1409.34   4
  -1 -12  -1 22707.3 1358.93   4
  -1 -12  -1 21326.4 1348.92   2
 -13  12  -1 24745.8 1587.52   3
   1 -13  -1 21910.1 1454.76   2
   1 -13  -1 21110.8 1255.11   1
  12   1   2 8152.77 1107.78   3
  12   1   2 8733.51 946.848   2
  13  -1   2 8049.29 1172.05   3
   1 -13   2 7263.89 896.398   1
  13  -1   2 8226.74 748.212   1
  12   1   2 7874.73 767.926   1
   1 -13   2 8705.69 1089.22   3
  -1 -12   2 8127.45 1083.93   3
  -1 -12   2 8696.01 816.540   2
  12   1   2 6548.44 770.704   4
   1 -13   2 9394.97 895.074   2
  13  -1   2 7031.12 893.796   2
  13  -1   2 7149.19 780.436   4
  -1 -12   2 7285.91 892.432   4
   1 -13   2 8162.77 874.523   4
  13  -1   5 8423.87 1236.25   3
  12   1   5 9042.94 1280.68   3
  -1 -12   5 8949.77 689.462   2
   1 -13   5 7631.39 718.233   2
 -13  12   5 7699.56 715.475   4
   1 -13   5 10482.2 1367.79   3
  -1 -12   5 9605.87 1351.54   3
 -12  13   5 7546.31 780.734   4
  12   1   8 2854.03 1084.76   3
  13  -1   8 1364.72 991.700   3
   1 -13   8 3114.77 1236.57   3
  -1 -12   8 4297.70 1370.83   3
   0 -13  -8 34493.6 2411.40   2
  13   0  -8 31027.3 2135.80   1
   0 -13  -8 30089.0 2073.95   4
 -13  13  -8 30197.8 1338.42   1
 -13  13  -5 361.818 380.781   1
  13   0  -5 1008.62 848.521   1
   0 -13  -5-260.976 843.541   4
   0 -13  -5-843.216 1067.55   2
  13   0  -2 49635.8 1693.86   1
  13   0  -2 50694.7 1182.40   2
   0 -13  -2 47685.0 1981.53   2
 -13  13   1-317.981 600.803   3
  13   0   1-235.848 568.782   2
   0 -13   1-231.617 725.375   4
   0 -13   1-682.615 667.714   2
   0 -13   1-152.489 668.924   3
  13   0   1-498.931 845.973   3
  13   0   1-448.902 514.651   4
  13   0   1 73.8375 584.064   1
  13   0   4 72713.4 2815.48   3
   0 -13   4 77420.9 2861.68   3
   0 -13   4 76743.8 1876.50   2
   0 -13   7 525.781 538.768   2
   0 -13   7-392.259 1086.97   3
  13   0   7 406.565 968.993   3
  13   0  10 20089.6 1932.71   3
   0 -13  10 21911.3 2259.66   3
  14 -14  -8 2836.38 1214.69   2
 -14   0  -8 4133.41 1288.98   2
 -14   0  -8 4961.64 1319.44   4
   0  14  -8 3513.93 1258.44   1
  14 -14  -8 1127.77 1133.97   1
  14 -14  -8 4326.07 980.562   4
  14 -14  -5 329.870 629.121   4
  14 -14  -5-402.740 700.101   3
 -14   0  -5 758.454 671.925   1
  14 -14  -5-1561.36 1031.67   2
 -14   0  -5-271.560 828.784   4
   0  14  -5 61.4806 918.572   1
  14 -14  -2 29371.3 1592.58   3
 -14   0  -2 28860.3 1219.48   1
 -14   0  -2 29807.6 1448.96   2
  14 -14  -2 30950.3 1573.20   2
  14 -14  -2 27921.1 1249.05   4
   0  14  -2 26994.0 1495.79   1
 -14   0  -2 30252.2 1360.05   4
  14 -14   1 379.240 346.476   1
 -14   0   1 26.9370 498.671   1
   0  14   1 143.605 683.066   1
   0  14   1 351.320 519.397   3
  14 -14   1 582.512 856.783   3
 -14   0   1-8.98039 319.226   4
  14 -14   4 3545.61 1101.15   3
 -14   0   7 337.235 291.946   4
  14 -14   7 835.673 1198.79   3
 -14   0   7 555.397 337.833   4
  14 -14  10 5855.88 1588.78   3
  13 -14  -9 7642.06 1407.80   2
  14 -13  -9 7792.16 1087.62   4
  -1  14  -9 8288.04 1409.15   1
 -13  -1  -9 8862.07 1530.63   2
 -14   1  -9 10381.3 1580.73   2
  13 -14  -9 10567.1 1898.83   1
  14 -13  -9 10298.3 1741.81   1
  13 -14  -9 9581.24 1327.04   4
   1  13  -9 8809.87 1417.65   1
 -13  -1  -9 9919.44 1543.74   4
  14 -13  -9 8911.09 1415.11   2
 -14   1  -9 10385.0 1610.90   4
  14 -13  -6 1274.94 808.693   3
 -14   1  -6 852.191 662.349   1
 -13  -1  -6 1877.35 923.794   2
 -14   1  -6 3902.72 1059.14   2
  14 -13  -6 3035.81 720.789   4
  13 -14  -6 1392.00 684.515   3
  14 -13  -6 2539.29 800.389   3
   1  13  -6 1554.45 1061.09   1
  13 -14  -6 1632.96 723.965   4
  -1  14  -6 1835.79 939.829   1
  14 -13  -6 3127.69 1142.31   2
  13 -14  -6 1845.96 1172.85   2
  13 -14  -6 2857.49 764.236   3
 -14   1  -6 1320.71 980.590   4
 -13  -1  -6 1959.70 888.273   4
  14 -13  -3 26422.9 1516.77   3
  13 -14  -3 23696.4 1335.15   3
 -13  -1  -3 25068.7 1452.43   2
 -14   1  -3 25927.2 1473.89   2
 -13  -1  -3 23638.3 1340.80   4
 -14   1  -3 25550.1 1134.71   1
  14 -13  -3 24231.4 1468.64   2
 -13  -1  -3 25013.8 1223.16   1
   1  13  -3 26307.6 1472.98   1
  13 -14  -3 23825.5 1172.46   4
  14 -13  -3 25863.1 1118.07   4
  -1  14  -3 24171.4 1368.02   1
  13 -14  -3 24962.9 1547.73   2
 -14   1  -3 24403.9 1339.72   4
 -13  -1   0 1624.48 440.765   4
   1  13   0 2621.80 837.740   1
 -13  -1   0 2342.14 642.086   1
  14 -13   0 2555.08 905.472   3
  13 -14   0 1956.94 808.981   3
 -14   1   0 2113.49 533.050   1
  -1  14   0 2700.38 749.754   2
  -1  14   0 2398.19 719.613   3
   1  13   0 2503.21 718.870   3
  13 -14   0 2293.29 431.772   1
 -13  -1   0 2000.57 540.221   2
 -14   1   0 2404.90 454.509   4
  14 -13   0 2637.42 433.878   1
   1  13   0 2145.61 685.797   2
  -1  14   0 1436.31 714.223   1
  -1  14   3 9686.27 481.805   3
  14 -13   3 10817.8 1352.39   3
  13 -14   3 11598.3 440.539   1
  13 -14   3 12342.6 1447.71   3
   1  13   3 11029.5 622.656   3
 -13  -1   3 11741.8 457.138   4
   1  13   3 12708.6 1146.00   1
  -1  14   3 10154.6 494.014   3
   1  13   3 13442.8 724.621   3
  14 -13   6 4413.46 1329.66   3
 -13  -1   6 4337.47 398.885   4
 -13  -1   6 4280.48 439.649   4
 -14   1   6 2571.03 225.607   4
  13 -14   6 2932.19 1107.59   3
  14 -13   9 5791.88 1461.87   3
  13 -14   9 6189.16 1621.30   3
  -2  14 -10 5326.76 1380.94   1
  14 -12 -10 8414.42 1671.37   1
  12 -14 -10 6718.33 1422.85   2
 -14   2 -10 5539.99 1357.38   4
  14 -12 -10 5266.06 1277.83   2
  12 -14 -10 5417.49 1174.52   4
 -14   2 -10 4656.02 1387.55   2
 -12  -2 -10 5332.32 1498.62   2
   2  12 -10 6338.58 1418.85   1
  12 -14 -10 9609.95 1901.15   1
 -14   2 -10 6124.99 1113.38   1
  14 -12 -10 6917.20 1075.66   4
 -12  -2 -10 7589.78 1510.10   4
  12 -14  -7 15282.4 1078.97   3
 -12  -2  -7 19175.6 1690.93   2
   2  12  -7 17023.4 1551.84   1
  -2  14  -7 17907.0 1522.93   1
 -14   2  -7 19158.3 1745.83   2
  12 -14  -7 14884.3 1064.52   3
  14 -12  -7 14164.3 1281.83   3
  14 -12  -7 19663.7 1773.17   1
  12 -14  -7 16931.5 1309.13   4
  14 -12  -7 18177.6 1597.65   2
  12 -14  -7 14893.8 1600.07   2
  14 -12  -7 16503.5 1170.19   4
 -12  -2  -7 17982.4 1643.54   4
 -14   2  -7 18569.0 1665.27   4
  12 -14  -4 9762.51 895.327   3
 -12  -2  -4 7449.88 993.558   2
  14 -12  -4 8375.84 1029.41   3
 -14   2  -4 6730.45 995.418   2
   2  12  -4 8116.14 1069.39   1
  14 -12  -4 7712.77 1033.36   2
  -2  14  -4 8326.19 1036.10   1
  14 -12  -4 9114.95 750.298   4
 -12  -2  -4 6562.32 855.947   1
  12 -14  -4 7603.80 842.169   4
  12 -14  -4 8225.75 1104.15   2
 -14   2  -4 5817.29 696.788   1
 -12  -2  -4 6917.36 964.486   4
 -14   2  -4 7965.10 1039.94   4
 -12  -2  -1 29754.3 1297.45   1
  14 -12  -1 29893.3 1731.52   3
 -14   2  -1 29488.7 1041.02   1
  14 -12  -1 28373.7 1125.53   4
  12 -14  -1 32019.5 1578.78   3
  -2  14  -1 30022.1 1453.88   1
  12 -14  -1 30846.3 1194.83   1
 -12  -2  -1 31100.8 1327.27   2
   2  12  -1 31649.6 1560.06   3
 -14   2  -1 30989.5 1306.35   2
  12 -14  -1 30453.6 1550.14   2
  12 -14  -1 31788.6 1335.34   4
 -14   2  -1 29616.1 1159.92   4
  -2  14  -1 31592.5 1601.37   3
   2  12  -1 29005.7 1226.73   2
 -12  -2  -1 29848.2 1222.08   4
   2  12  -1 30735.7 1528.66   1
  -2  14   2 19730.2 1289.18   1
  12 -14   2 20165.1 1522.16   3
  12 -14   2 19968.0 717.805   1
  -2  14   2 18555.5 808.263   3
  14 -12   2 18424.4 1537.90   3
   2  12   2 17463.7 906.941   3
   2  12   2 19110.0 1295.99   1
 -14   2   2 18225.2 1048.74   1
 -12  -2   2 17867.9 694.738   4
  14 -12   2 19393.1 1102.09   4
  14 -12   5 36168.4 2239.66   3
  12 -14   5 36512.7 2209.74   3
 -12  -2   5 34523.7 949.613   4
 -12  -2   5 31536.0 892.764   4
  14 -12   8 18739.1 2045.80   3
  12 -14   8 16872.8 1917.85   3
  -3  14  -8 6567.82 1214.97   1
 -11  -3  -8 7598.57 1433.44   2
  14 -11  -8 5251.38 1241.96   1
 -14   3  -8 4115.96 1128.58   2
   3  11  -8 6339.98 1335.55   1
  14 -11  -8 5895.21 1179.62   2
  11 -14  -8 4834.63 1321.83   2
  11 -14  -8 3292.05 933.116   4
  14 -11  -8 4035.31 837.300   4
 -11  -3  -8 4861.79 1250.26   4
 -14   3  -8 2416.24 1177.56   4
  11 -14  -5 10585.0 842.638   3
  14 -11  -5 11735.9 1157.29   1
   3  11  -5 10231.6 1216.88   1
 -14   3  -5 11361.1 1220.01   2
  -3  14  -5 12298.6 1148.93   1
  11 -14  -5 9076.95 691.346   3
  14 -11  -5 10696.8 1198.47   2
  14 -11  -5 11162.0 778.064   4
  11 -14  -5 12285.0 1406.65   2
 -11  -3  -5 11684.1 1204.75   4
 -14   3  -5 8530.27 756.529   1
  11 -14  -5 10845.5 989.382   4
 -14   3  -5 9857.23 1142.20   4
 -11  -3  -5 11127.4 1219.03   2
  14 -11  -2 11493.1 1224.12   3
 -11  -3  -2 10708.8 907.648   4
  11 -14  -2 10900.5 955.709   3
 -14   3  -2 11623.5 662.180   1
 -11  -3  -2 11442.2 977.455   2
  -3  14  -2 10931.5 1162.98   3
   3  11  -2 13264.5 1221.64   3
 -14   3  -2 9795.57 927.492   2
  11 -14  -2 11827.8 1193.14   2
 -11  -3  -2 10258.1 931.231   1
  14 -11  -2 11503.2 741.636   4
  14 -11  -2 11949.8 833.612   1
  11 -14  -2 12425.0 982.407   4
   3  11  -2 12123.2 1142.28   1
  -3  14  -2 11191.6 1003.52   1
  14 -11  -2 11302.6 1030.52   2
 -14   3  -2 11605.9 922.819   4
  11 -14  -2 10964.7 924.362   1
   3  11   1 15410.3 1125.56   4
  14 -11   1 13291.3 1338.90   3
  14 -11   1 11924.5 358.055   1
  11 -14   1 13826.8 1244.32   3
  -3  14   1 14373.8 895.171   3
  14 -11   1 12402.0 398.719   1
   3  11   1 14253.7 1116.31   2
 -11  -3   1 14279.1 709.970   2
 -11  -3   1 12887.2 950.579   1
   3  11   1 15062.8 1182.16   1
  -3  14   1 14633.2 1142.39   1
   3  11   1 13591.3 968.735   3
  -3  14   1 13742.2 1129.27   2
  14 -11   1 14651.9 889.205   4
 -14   3   1 13659.7 837.510   1
 -11  -3   1 14404.2 767.049   4
  11 -14   1 15923.5 808.960   1
 -14   3   1 13494.2 511.924   4
  14 -11   4 15223.2 1557.50   3
  11 -14   4 16738.5 1497.47   3
  11 -14   4 17833.8 735.878   1
 -11  -3   4 18502.2 758.545   4
   3  11   4 17147.0 881.575   3
   3  11   7 1980.10 497.555   3
 -14   3   7 1635.59 314.626   4
 -11  -3   7 1613.24 505.516   4
  14 -11  10 7385.92 1712.58   3
  11 -14  10 5083.05 1548.77   3
  14 -10  -9 5440.76 1112.83   2
   4  10  -9 7580.31 1466.39   1
  10 -14  -9 9119.21 1587.02   2
 -14   4  -9 2602.08 1187.19   4
 -14   4  -9 2120.93 1095.87   2
  10 -14  -9 2570.75 1043.49   4
 -10  -4  -9 3971.38 1222.53   4
  -4  14  -9 5171.60 1192.24   1
 -14   4  -9 3895.38 867.676   1
 -10  -4  -9 5349.33 1343.85   2
  14 -10  -9 3716.78 1363.27   1
  14 -10  -9 4019.65 835.513   4
  10 -14  -6 621.940 401.215   3
  14 -10  -6 36.6710 472.483   4
 -10  -4  -6 1254.45 930.005   2
  10 -14  -6 491.227 401.655   3
 -14   4  -6-46.0496 846.406   2
   4  10  -6 1810.59 1007.48   1
 -10  -4  -6-825.511 851.025   4
 -14   4  -6 753.617 551.475   1
 -14   4  -6-467.102 909.152   4
  -4  14  -6 1456.40 871.643   1
  14 -10  -6 365.332 851.299   1
  10 -14  -6 1936.05 761.420   4
  14 -10  -6-62.7217 824.462   2
  10 -14  -6 568.293 1141.00   2
  14 -10  -3 2294.60 403.957   4
  14 -10  -3 2331.51 737.153   2
 -10  -4  -3 2139.72 747.264   2
 -14   4  -3 3162.31 458.533   1
  -4  14  -3 3139.34 741.825   1
 -14   4  -3 2437.07 733.676   2
  10 -14  -3 4331.14 784.768   4
 -10  -4  -3 2430.49 686.314   1
  14 -10  -3 2937.79 627.538   1
  14 -10  -3 2708.13 795.911   3
  10 -14  -3 3305.24 584.336   3
 -10  -4  -3 2947.72 747.986   4
 -14   4  -3 3319.21 698.846   4
  10 -14  -3 1102.02 826.341   2
   4  10  -3 2380.68 830.479   1
 -10  -4   0 982.750 673.117   1
   4  10   0 2112.44 776.460   1
  14 -10   0 3880.79 1039.76   3
  10 -14   0 1524.18 721.696   3
  -4  14   0 2491.49 727.220   1
  -4  14   0 1001.10 617.115   3
 -10  -4   0 1944.18 532.630   2
  10 -14   0 2205.04 560.895   1
   4  10   0 1813.26 702.960   3
   4  10   0 551.791 631.309   4
 -14   4   0 2093.06 464.339   1
   4  10   0 2349.30 696.725   2
 -10  -4   0 1717.66 537.843   4
  10 -14   0 1146.07 649.891   4
  14 -10   0 2627.12 381.856   1
 -14   4   0 1906.90 407.838   4
   4  10   3 5439.00 701.999   3
   4  10   3 6781.73 921.963   1
  14 -10   3 5427.34 1071.98   3
  10 -14   3 4751.81 523.641   1
  10 -14   3 5567.71 1012.00   3
 -10  -4   3 5102.42 544.831   4
 -14   4   3 7674.16 812.276   1
   4  10   6 2861.62 604.813   3
  14 -10   6 3929.52 1178.09   3
  10 -14   6 1636.31 1122.34   3
 -14   4   6 1532.06 195.304   4
 -10  -4   6 2637.01 520.746   4
  14 -10   9 8399.34 1599.67   3
   4  10   9 7063.19 835.096   3
  10 -14   9 6207.16 1612.81   3
   9 -14 -10 2357.47 1178.34   2
  14  -9 -10 4214.92 1379.99   1
  -9  -5 -10 1519.56 1264.44   2
   5   9 -10 730.363 1245.03   1
 -14   5 -10 2801.77 1338.43   2
  -5  14 -10 4803.22 1251.42   1
   9 -14 -10 3279.40 1221.54   4
 -14   5 -10 4236.67 948.747   1
  -9  -5 -10 7007.66 1487.97   4
  14  -9 -10 2584.05 1039.09   2
  14  -9 -10 2243.91 737.061   4
 -14   5 -10 2579.53 1269.76   4
   5   9  -7 17352.2 1620.75   1
  -9  -5  -7 16651.4 1610.58   2
   9 -14  -7 13287.3 680.542   3
  -5  14  -7 17862.0 1442.01   1
  14  -9  -7 18311.1 1645.32   1
 -14   5  -7 18172.0 1616.65   2
   9 -14  -7 18535.1 1432.93   4
  14  -9  -7 17588.3 1344.30   2
 -14   5  -7 15202.8 1020.35   1
   9 -14  -7 18156.1 1760.64   2
  -9  -5  -7 18055.5 1635.88   4
  14  -9  -7 16914.2 963.561   4
 -14   5  -7 21849.9 1693.90   4
  -5  14  -4 3926.76 728.911   1
  -9  -5  -4 4155.58 937.186   2
  14  -9  -4 3540.13 781.368   1
   9 -14  -4 3988.58 420.833   3
  -9  -5  -4 3857.36 856.510   4
 -14   5  -4 3976.62 866.447   2
   9 -14  -4 4349.58 808.947   4
  14  -9  -4 4839.80 809.389   2
 -14   5  -4 4105.99 473.882   1
   5   9  -4 4401.57 947.388   1
  14  -9  -4 3770.73 374.057   4
   9 -14  -4 3874.30 1065.98   2
 -14   5  -4 4640.36 817.333   4
  14  -9  -1 11671.0 1304.80   3
  -9  -5  -1 12155.9 969.032   2
   9 -14  -1 11211.3 910.101   3
  -5  14  -1 10984.8 1027.00   3
   5   9  -1 12215.9 1152.39   1
   5   9  -1 11271.4 802.644   2
  -5  14  -1 10914.9 933.702   1
   5   9  -1 10950.1 1069.58   3
   9 -14  -1 9747.85 945.937   4
   9 -14  -1 11381.6 1174.67   2
  -9  -5  -1 10911.3 914.013   4
  14  -9  -1 10923.0 690.650   1
  -9  -5  -1 10663.7 1017.20   1
   9 -14  -1 10889.8 829.602   1
 -14   5  -1 10833.4 735.104   4
 -14   5  -1 11562.2 570.841   1
   5   9   2 8881.39 998.770   2
   5   9   2 9780.15 961.219   1
  14  -9   2 9084.86 1243.57   3
 -14   5   2 9607.60 805.323   1
  -9  -5   2 9406.37 449.201   2
   9 -14   2 10443.6 718.524   1
  -5  14   2 9670.66 581.034   3
   9 -14   2 8984.29 1090.79   3
  -9  -5   2 9979.21 720.086   4
  14  -9   2 9314.00 850.955   4
   5   9   5 29007.9 1285.86   3
  14  -9   5 29940.6 2109.94   3
   9 -14   5 27962.9 1127.09   1
   9 -14   5 29263.4 1979.84   3
  14  -9   8 10050.8 1594.31   3
   5   9   8 8265.73 922.032   3
   9 -14   8 9117.86 1600.30   3
  -8  -6  -8 6957.27 1409.87   2
   6   8  -8 6497.63 1316.36   1
  -6  14  -8 6249.33 1099.43   1
 -14   6  -8 6302.09 1215.85   2
   8 -14  -8 4745.20 1074.99   4
   8 -14  -8 6878.86 1503.27   2
  14  -8  -8 6570.48 1022.68   2
  -8  -6  -8 4737.89 1235.05   4
  14  -8  -8 5015.97 1198.26   1
  14  -8  -8 5010.10 683.518   4
 -14   6  -8 7004.12 834.334   1
 -14   6  -8 6413.25 1236.28   4
   8 -14  -5 17364.0 1624.17   2
   8 -14  -5 15949.0 1203.66   4
  14  -8  -5 17050.5 1277.68   1
  -8  -6  -5 16402.2 1437.55   2
   6   8  -5 14127.4 1357.60   1
  -6  14  -5 13225.2 1080.59   1
 -14   6  -5 15340.2 1315.80   2
 -14   6  -5 14239.2 1231.89   4
 -14   6  -5 15066.5 708.218   1
  14  -8  -5 12976.1 1037.23   2
  -8  -6  -5 14383.4 1318.67   4
  14  -8  -5 12375.1 537.125   4
   6   8  -2 1504.14 856.476   1
  -8  -6  -2 1034.33 677.803   2
  -6  14  -2 2822.37 832.540   3
   8 -14  -2 1915.80 482.555   3
  -8  -6  -2 815.710 702.105   1
   6   8  -2 228.218 771.171   3
 -14   6  -2 1548.44 224.085   1
  14  -8  -2 2330.55 910.317   3
  14  -8  -2 1837.83 316.608   4
  -8  -6  -2 1894.27 720.181   4
   8 -14  -2 1966.72 642.401   1
   8 -14  -2 1478.89 881.814   2
  -6  14  -2 714.299 596.512   1
  14  -8  -2 1617.17 518.427   1
  14  -8  -2 1613.51 249.880   4
   8 -14  -2 1469.11 729.478   4
 -14   6  -2 1488.02 535.455   4
   8 -14   1 58664.7 1579.75   1
  14  -8   1 59406.5 2425.33   3
  -8  -6   1 59643.8 1370.06   2
  -8  -6   1 54513.3 1523.78   4
  -8  -6   1 54759.9 1834.66   1
   6   8   1 55353.9 1896.90   1
   8 -14   1 58577.5 2048.75   3
   6   8   1 57966.5 1879.81   2
  -6  14   1 57856.5 1798.05   1
  14  -8   1 53542.4 812.418   1
  14  -8   1 57055.6 1801.26   2
 -14   6   1 59649.0 1456.67   1
   6   8   1 56627.1 1821.55   4
  -6  14   1 61820.0 1645.90   3
  14  -8   1 58192.7 1563.16   4
  14  -8   4 16704.0 1536.68   3
   6   8   4 14397.1 1038.73   3
   8 -14   4 17619.1 1458.03   3
  -8  -6   4 17733.3 924.573   4
   8 -14   4 15657.0 855.148   1
  14  -8   7 9431.15 1548.19   3
   6   8   7 7739.41 920.777   3
   8 -14   7 8162.15 1550.91   3
 -14   6   7 6921.00 550.660   4
   6   8  10 5627.32 1030.42   3
  14  -8  10 5495.19 1574.26   3
   8 -14  10 5477.65 1553.68   3
  14  -7  -9 1485.29 789.339   2
   7 -14  -9 1789.34 1260.17   2
   7 -14  -9 946.282 1004.74   4
  -7  -7  -9 2321.89 1292.61   2
   7   7  -9 356.554 1125.31   1
  -7  14  -9 427.771 959.361   1
 -14   7  -9 520.310 1085.67   2
 -14   7  -9 2503.52 770.258   1
  -7  -7  -9 1424.50 1128.61   4
  14  -7  -9 1867.75 1077.13   1
   7 -14  -6 4252.16 1318.06   2
  -7  -7  -6 4840.08 1121.45   2
 -14   7  -6 5452.47 585.869   1
   7   7  -6 4063.76 984.421   1
 -14   7  -6 5226.46 585.228   1
 -14   7  -6 4124.41 1030.78   2
  14  -7  -6 3645.76 823.241   2
   7 -14  -6 5475.24 958.339   4
  -7  14  -6 4893.85 868.367   1
  -7  -7  -6 5107.49 1104.38   4
 -14   7  -6 6581.40 1110.56   4
  14  -7  -6 6785.83 1087.12   1
 -14   7  -3 17344.7 1091.52   4
  -7  -7  -3 18522.7 1352.13   2
  14  -7  -3 18609.8 1114.74   1
  -7  14  -3 18311.8 1032.79   1
   7 -14  -3 16564.4 1148.75   4
   7   7  -3 17080.0 1271.85   1
   7 -14  -3 19061.9 1436.33   2
  14  -7  -3 17169.4 1004.99   2
  -7  -7  -3 16802.1 1203.19   4
  -7  -7   0 3721.11 866.631   1
  14  -7   0 3934.52 482.552   1
  14  -7   0 5035.47 1077.40   3
  -7  -7   0 3562.82 684.818   2
  -7  14   0 2426.67 697.662   3
  -7  14   0 3553.42 673.873   1
   7 -14   0 4675.59 783.932   3
  14  -7   0 2895.70 675.253   2
   7 -14   0 3837.15 862.263   4
   7 -14   0 2708.62 870.546   2
   7   7   0 3414.42 915.616   1
  -7  -7   0 2596.86 691.113   4
   7   7   0 4085.63 730.786   4
  14  -7   0 3601.08 496.465   4
   7   7   0 2635.00 699.727   2
   7 -14   0 2792.80 655.023   1
   7   7   3 14926.0 1130.06   3
   7 -14   3 16609.2 904.118   1
  14  -7   3 17241.7 1565.68   3
  -7  14   3 17573.9 1159.17   4
   7 -14   3 18524.9 1464.71   3
   7   7   3 19577.2 1268.48   1
  -7  -7   3 14338.0 907.874   4
  14  -7   3 16458.2 1078.85   4
   7   7   6 3035.36 769.497   3
  14  -7   6 3643.00 1220.05   3
   7 -14   6 4666.31 1203.64   3
 -14   7   6 2803.95 373.403   4
  -7  -7   6 3663.76 658.719   4
  14  -7   9 1190.62 1167.42   3
   7   7   9 976.995 760.041   3
   7 -14   9-32.3629 1230.43   3
  14  -6 -10 6134.82 988.589   2
  14  -6 -10 6527.95 1440.06   1
 -14   8 -10 7870.58 1013.48   1
  -6  -8 -10 6917.95 1478.28   2
   8   6 -10 7421.86 1538.04   1
  -6  -8 -10 4352.56 1333.83   4
  -8  14 -10 6848.81 1256.62   1
   6 -14 -10 6216.40 1331.22   4
   6 -14 -10 6814.62 1641.37   2
   8   6  -7 9819.78 1317.65   1
  -8  14  -7 8070.24 976.029   1
 -14   8  -7 8418.45 767.152   1
  -6  -8  -7 10216.1 1542.52   2
 -14   8  -7 9206.75 739.475   1
   6 -14  -7 10090.2 1244.67   4
   6 -14  -7 8480.98 1556.06   2
  -6  -8  -7 8840.65 1353.02   4
  14  -6  -7 9063.42 929.281   2
  14  -6  -7 7868.00 1299.08   1
  -6  -8  -4 19213.7 1420.16   2
   6 -14  -4 17388.6 1206.55   4
   8   6  -4 18868.2 1308.50   1
  -8  14  -4 18358.9 988.984   1
  14  -6  -4 17931.0 971.392   2
  14  -6  -4 18474.8 1220.47   1
   6 -14  -4 18916.0 1532.70   2
  -6  -8  -4 17741.8 1279.82   4
 -14   8  -1 57607.7 2247.05   3
  14  -6  -1 61249.8 2359.97   3
   8   6  -1 58782.1 1580.94   4
   6 -14  -1 60948.1 2115.37   2
  -8  14  -1 60025.4 2128.93   3
   6 -14  -1 58620.6 1761.87   1
  -6  -8  -1 57184.7 1779.20   4
   6 -14  -1 60835.2 1568.47   3
   8   6  -1 58601.6 1941.27   1
  -8  14  -1 60455.1 1581.21   1
   8   6  -1 59650.9 1423.82   2
   6 -14  -1 60363.0 1929.83   4
  14  -6  -1 60446.6 1449.22   1
  -6  -8  -1 57793.9 1907.71   1
  14  -6  -1 58597.8 1054.79   4
  -6  -8  -1 59780.9 1833.70   2
  -8  14   2 2976.68 498.256   3
  14  -6   2 2543.63 270.157   1
   8   6   2 2604.42 830.685   3
  -6  -8   2 2324.56 626.668   4
  14  -6   2 2605.34 950.833   3
  -6  -8   2 3443.72 494.839   2
   6 -14   2 2818.14 868.241   3
  14  -6   2 1723.83 672.609   2
  -8  14   2 2727.58 685.444   4
   8   6   2 3309.69 852.033   2
   8   6   2 3859.03 807.516   1
   6 -14   2 3296.11 678.733   1
  14  -6   2 2779.51 610.289   4
   8   6   2 1970.97 703.205   4
   8   6   5 10886.6 1080.96   3
  14  -6   5 12739.8 1442.24   3
   6 -14   5 11102.3 913.469   1
 -14   8   5 9804.55 464.395   4
  14  -6   8 6696.89 1424.52   3
   8   6   8 5535.84 980.109   3
   6 -14   8 8240.50 1569.72   3
 -14   8   8 4520.27 655.491   4
  -6  -8   8 2952.77 307.331   2
   5 -14  -8 8876.67 1303.93   4
  14  -5  -8 9649.13 918.888   2
   9   5  -8 10691.5 1464.04   1
 -14   9  -8 9603.48 875.633   1
  -5  -9  -8 9715.91 1546.88   2
   5 -14  -8 11395.4 1639.56   2
  -9  14  -8 11805.1 1155.08   1
  14  -5  -8 11586.9 1490.55   1
  -5  -9  -8 11337.0 1458.35   4
  -5  -9  -5 33587.5 1919.46   2
 -14   9  -5 26661.1 680.512   1
   5 -14  -5 33562.4 2030.14   2
  -9  14  -5 33960.9 1306.19   1
   5 -14  -5 31751.9 1622.60   4
   9   5  -5 35361.7 1820.78   1
  14  -5  -5 31893.2 1198.34   2
  -5  -9  -5 29268.7 1738.04   4
 -14   9  -5 26977.5 709.056   1
  14  -5  -5 33107.4 1707.50   1
  -9  14  -2 11042.8 1233.86   3
   5 -14  -2 11086.7 1071.16   4
  -9  14  -2 11115.8 752.933   1
   9   5  -2 8671.54 1029.14   1
   5 -14  -2 11498.4 1253.95   2
   9   5  -2 10101.5 511.798   2
   5 -14  -2 11505.8 583.294   3
   5 -14  -2 9864.63 942.999   1
  14  -5  -2 13138.9 901.737   1
  -5  -9  -2 10693.9 1040.50   4
  -5  -9  -2 12364.7 1139.71   2
  -5  -9   1 10922.4 827.575   2
  14  -5   1 13397.9 1440.96   3
  14  -5   1 10617.9 912.056   2
   5 -14   1 11537.0 1112.39   3
   5 -14   1 11392.6 984.209   1
   5 -14   1 12588.5 1084.89   2
   5 -14   1 10566.8 1021.52   4
  -5  -9   1 9705.42 950.034   4
   9   5   1 11971.5 928.499   4
  14  -5   1 11259.0 677.008   1
   9   5   1 10706.6 994.809   1
  -5  -9   1 11441.8 1073.13   1
  -9  14   1 11704.9 906.176   3
  14  -5   1 10485.4 762.787   4
   9   5   1 11792.1 1003.02   2
   9   5   4 3082.10 825.663   3
   5 -14   4 2566.61 621.334   1
  -9  14   4 4203.34 730.992   4
   5 -14   4 4627.89 1098.16   3
  -5  -9   4 2792.21 289.079   2
  -5  -9   4 3324.96 348.288   2
  14  -5   4 2037.96 902.135   3
   9   5   7 17093.8 1440.32   3
  14  -5   7 15223.0 1723.24   3
   5 -14   7 15631.7 1724.61   3
 -14   9   7 13198.9 811.216   4
  -5  -9   7 12623.9 571.819   2
  14  -5  10 2102.40 1197.24   3
   9   5  10 781.150 889.319   3
   5 -14  10 1572.27 1498.25   3
  10   4  -9 11365.7 1577.55   1
  14  -4  -9 7827.63 835.726   2
 -10  14  -9 8284.57 1097.73   1
  -4 -10  -9 8040.48 1575.88   2
  14  -4  -9 9558.15 1543.79   1
   4 -14  -9 9907.23 1480.48   4
   4 -14  -9 8641.24 1626.00   2
 -14  10  -9 9300.84 947.092   1
  -4 -10  -9 8181.98 1431.14   4
   4 -14  -6 4490.26 1230.45   2
  -4 -10  -6 4606.14 1140.62   2
 -10  14  -6 3239.20 718.075   1
  10   4  -6 3199.31 1085.38   1
  14  -4  -6 3074.00 594.287   2
   4 -14  -6 3509.68 933.177   4
  14  -4  -6 5098.17 1048.77   1
  -4 -10  -6 3398.17 1007.95   4
 -14  10  -6 3562.70 448.977   1
  10   4  -3 5990.46 933.634   1
   4 -14  -3 4529.27 932.547   4
  -4 -10  -3 4753.42 842.992   4
   4 -14  -3 5111.52 1018.69   2
  14  -4  -3 4286.68 540.175   2
 -10  14  -3 5801.93 611.368   1
  14  -4  -3 6113.58 833.002   1
  -4 -10  -3 5599.02 1004.41   2
 -14  10   0 3197.35 895.026   3
  10   4   0 2705.49 666.266   2
  14  -4   0 2982.34 1043.01   3
 -10  14   0 2928.20 723.205   3
   4 -14   0 3345.84 858.807   4
  14  -4   0 2414.65 591.846   2
  10   4   0 1777.17 790.159   1
   4 -14   0 2480.38 689.666   3
   4 -14   0 1620.31 752.710   1
  10   4   0 2997.09 637.692   4
  -4 -10   0 2216.20 766.478   4
  14  -4   0 2404.13 456.951   4
  -4 -10   0 1823.20 822.424   1
   4 -14   0 2601.35 847.234   2
  -4 -10   0 3994.03 830.829   2
  14  -4   0 1634.62 548.555   1
  10   4   3 3754.70 837.061   3
  14  -4   3 4440.73 1039.43   3
 -10  14   3 2229.63 640.600   4
  10   4   3 3166.11 718.999   1
  -4 -10   3 3553.75 510.269   2
   4 -14   3 2523.70 653.361   1
   4 -14   3 2412.63 845.243   3
  -4 -10   3 4303.34 770.907   4
  14  -4   3 3455.17 653.487   4
 -14  10   6 125.220 437.852   4
  10   4   6 1618.15 887.204   3
  -4 -10   6 400.544 317.394   2
  14  -4   6 1132.56 947.514   3
  -4 -10   6-141.745 338.393   2
   4 -14   6 71.6088 1101.08   3
  14  -4   9 6150.62 1443.69   3
  10   4   9 5318.73 1189.15   3
   4 -14   9 2325.65 1278.86   3
  11   3 -10 10489.4 1727.66   1
 -11  14 -10 9341.36 1098.45   1
  14  -3 -10 9075.04 1649.52   1
   3 -14 -10 8637.63 1722.09   2
  -3 -11 -10 6660.22 1539.22   2
  -3 -11 -10 6508.23 1440.52   4
 -14  11 -10 7538.70 1011.98   1
   3 -14 -10 7082.88 1443.46   4
   3 -14  -7 1757.78 1367.52   2
  -3 -11  -7 2296.47 1208.32   2
  -3 -11  -7 2486.99 1090.20   4
 -14  11  -7 1791.12 517.271   1
  11   3  -7 1928.02 1041.63   1
 -11  14  -7 1932.10 692.675   1
  14  -3  -7 1241.17 439.333   2
  14  -3  -7 3735.83 1161.82   1
   3 -14  -7 1838.37 922.608   4
  -3 -11  -4 18356.7 1330.12   4
  14  -3  -4 17776.1 770.051   2
  11   3  -4 17612.9 1359.99   1
   3 -14  -4 18408.7 1314.17   4
   3 -14  -4 20060.4 1660.44   2
 -11  14  -4 20467.4 875.567   1
  14  -3  -4 21098.3 1319.50   1
  -3 -11  -4 18287.2 1477.77   2
 -14  11  -1 14888.3 1291.21   3
  14  -3  -1 15542.7 601.945   4
  11   3  -1 15610.5 840.352   4
 -11  14  -1 13754.5 1248.69   3
  14  -3  -1 14504.2 947.736   1
  14  -3  -1 13987.9 844.034   2
  11   3  -1 14509.1 1152.53   1
   3 -14  -1 15554.2 894.094   3
   3 -14  -1 17446.3 1272.66   4
  -3 -11  -1 15810.0 1196.28   4
  -3 -11  -1 13419.4 1129.01   2
   3 -14  -1 15742.7 1302.87   2
  11   3  -1 16371.0 852.049   2
   3 -14  -1 14148.8 1083.22   1
  11   3   2 10777.7 1151.29   3
  14  -3   2 12261.4 1358.72   3
  14  -3   2 9644.33 860.942   4
  11   3   2 9195.27 890.073   4
  14  -3   2 10280.2 1029.85   2
  -3 -11   2 10752.6 994.087   4
   3 -14   2 9464.30 962.606   1
  14  -3   2 10664.8 688.546   1
  11   3   2 9857.95 924.987   1
   3 -14   2 12733.6 1221.79   3
   3 -14   2 10375.0 988.630   4
  -3 -11   2 11308.9 839.343   2
   3 -14   2 11348.1 967.719   2
  11   3   2 11140.6 1059.84   2
  11   3   5 7791.40 1149.18   3
  -3 -11   5 10460.7 668.845   2
  14  -3   5 9173.61 1278.99   3
  -3 -11   5 10441.3 620.619   2
   3 -14   5 10843.2 1390.49   3
   3 -14   5 10668.7 893.940   2
  -3 -11   5 10178.0 1360.31   3
 -14  11   5 9129.39 671.169   4
 -11  14   5 7780.76 864.883   4
  11   3   8 5184.92 1140.17   3
  14  -3   8 6018.21 1430.11   3
   3 -14   8 4701.45 1493.19   3
  -3 -11   8 4629.92 1317.52   3
  12   2  -8 17162.2 1742.16   1
  -2 -12  -8 16499.9 1861.98   2
 -14  12  -8 18530.0 1034.89   1
 -12  14  -8 19371.0 1181.10   1
   2 -14  -8 17932.2 1965.74   2
   2 -14  -8 17618.5 1677.44   4
  14  -2  -8 19002.8 1814.01   1
  -2 -12  -8 18277.5 1733.46   4
  -2 -12  -5 37971.1 1878.64   4
 -12  14  -5 36649.1 1123.21   1
   2 -14  -5 36610.3 1845.29   4
  12   2  -5 34000.2 1841.56   1
   2 -14  -5 37313.8 2181.57   2
  -2 -12  -5 35713.4 2155.71   2
  14  -2  -5 38645.8 1841.28   1
  14  -2  -2 16925.2 794.145   2
  12   2  -2 18085.2 1185.96   1
   2 -14  -2 18988.1 1471.26   2
  -2 -12  -2 18983.4 1296.29   4
   2 -14  -2 17344.2 1272.16   4
  -2 -12  -2 17456.6 1330.19   2
  12   2  -2 17720.1 704.323   2
  14  -2  -2 17130.9 1069.58   1
  12   2   1 29003.4 1794.51   3
 -12  14   1 28549.6 1398.77   3
  14  -2   1 28313.5 1828.28   3
  14  -2   1 29142.1 1163.90   1
  14  -2   1 27294.5 1323.99   2
  14  -2   1 28030.8 1145.65   4
  12   2   1 30721.6 1374.01   1
   2 -14   1 29638.5 1439.57   1
   2 -14   1 32129.4 1559.70   3
   2 -14   1 28673.0 1494.45   4
  -2 -12   1 30668.7 1490.81   4
   2 -14   1 30474.6 1423.54   2
  12   2   1 30017.9 1251.47   4
  -2 -12   1 28951.3 1304.70   2
  12   2   1 29709.3 1371.20   2
  12   2   4 9342.52 1243.86   3
  14  -2   4 9246.07 1319.05   3
  -2 -12   4 8076.24 686.261   2
  -2 -12   4 8308.27 1318.13   3
   2 -14   4 7226.51 1150.27   3
 -12  14   4 7031.59 763.907   4
  -2 -12   7 13809.8 840.852   2
  12   2   7 16122.8 1636.46   3
  14  -2   7 16497.9 1746.61   3
   2 -14   7 13905.3 1668.49   3
  -2 -12   7 16300.5 1875.45   3
 -14  12   7 13913.3 978.723   4
  14  -2  10 4308.04 1307.11   3
  12   2  10 4830.14 1272.16   3
   2 -14  10 4243.75 1471.63   3
  -2 -12  10 5255.18 1473.68   3
   1 -14  -9 2740.55 1328.61   2
  14  -1  -9 3821.23 1312.56   1
  -1 -13  -9 4358.07 1408.22   2
   1 -14  -9 4146.34 1214.25   4
  13   1  -9 5048.98 1423.85   1
 -14  13  -9 4675.95 790.351   1
 -13  14  -9 3950.18 836.021   1
  -1 -13  -9 6274.80 1363.75   4
   1 -14  -6 3838.34 1322.30   2
  14  -1  -6 3200.16 1084.20   1
  -1 -13  -6 5586.44 1130.52   4
  13   1  -6 4668.64 1072.61   1
 -14  13  -6 5302.30 538.167   1
 -13  14  -6 6521.83 661.788   1
  -1 -13  -6 4731.09 1202.99   2
   1 -14  -6 5464.92 1118.80   4
  14  -1  -3 11025.5 550.186   2
  13   1  -3 11516.5 1091.91   1
 -13  14  -3 11409.3 492.160   1
  -1 -13  -3 12289.3 1266.05   2
   1 -14  -3 11364.3 1343.14   2
   1 -14  -3 12780.3 1185.86   4
  14  -1  -3 12658.3 1068.18   1
  13   1  -3 8614.26 386.475   2
  -1 -13  -3 12192.4 1184.58   4
 -14  13   0 3424.20 937.532   3
 -13  14   0 4332.56 888.260   3
  14  -1   0 2212.48 974.484   3
  14  -1   0 2285.30 677.826   1
  13   1   0 2793.76 625.049   2
  13   1   0 2556.04 579.440   4
   1 -14   0 2816.18 811.779   4
  14  -1   0 2258.86 578.776   2
  13   1   0 2154.52 699.260   1
  -1 -13   0 3046.83 812.659   4
  14  -1   0 2283.67 497.238   4
   1 -14   0 3979.62 843.238   2
  -1 -13   0 2538.46 808.148   2
  13   1   3 24439.2 1746.80   3
  -1 -13   3 22893.3 1301.19   4
  -1 -13   3 22560.7 1083.15   2
  13   1   3 23742.6 1184.33   1
  14  -1   3 22726.1 1683.41   3
   1 -14   3 26489.1 1657.04   3
  -1 -13   3 22732.2 1588.05   3
   1 -14   3 23855.6 1183.98   2
  14  -1   3 24152.4 1077.91   1
  13   1   6 2620.44 1094.25   3
  14  -1   6 2582.37 1076.42   3
 -13  14   6 2706.78 694.676   4
  -1 -13   6 2649.10 536.698   2
   1 -14   6 919.839 518.848   2
   1 -14   6 849.300 1129.34   3
 -14  13   6 711.818 580.803   4
  14  -1   9 7219.33 1470.27   3
  13   1   9 7295.29 1398.02   3
   1 -14   9 8171.35 1670.95   3
  -1 -13   9 9014.55 1602.02   3
 -14  14 -10 6764.64 1010.22   1
   0 -14 -10 6390.64 1710.83   2
  14   0 -10 5229.82 1586.35   1
   0 -14 -10 4445.55 1303.91   4
  14   0  -7 2146.62 1170.93   1
 -14  14  -7 163.891 530.986   1
   0 -14  -7 1183.12 987.528   4
   0 -14  -7-394.685 1201.30   2
   0 -14  -4 7517.02 1205.76   2
  14   0  -4 4397.17 922.427   1
   0 -14  -4 4995.25 1041.50   4
  14   0  -1 803.833 428.054   4
  14   0  -1-288.591 454.575   2
   0 -14  -1-258.476 788.481   4
  14   0  -1-422.757 674.439   1
   0 -14  -1 486.374 755.053   2
  14   0   2 30614.8 1939.97   3
  14   0   2 26927.3 1180.08   1
   0 -14   2 29020.0 1656.09   3
   0 -14   2 26615.9 1452.92   4
   0 -14   2 29106.6 1326.26   2
  14   0   2 28200.6 1322.06   4
  14   0   5 670.330 924.267   3
 -14  14   5 475.661 529.353   4
   0 -14   5 1121.02 1093.04   3
   0 -14   5 152.920 459.615   2
   0 -14   5 72.1318 582.718   2
  14   0   8 1762.48 1105.04   3
   0 -14   8 1955.28 1309.03   3
  15 -15  -9 1106.38 1167.89   2
  15 -15  -9-147.323 789.953   3
 -15   0  -9-603.307 1159.36   2
  15 -15  -9-1040.40 1268.51   1
 -15   0  -9 2302.88 1157.48   4
   0  15  -9-1450.24 1210.99   1
  15 -15  -9-490.385 916.617   4
  15 -15  -6 8427.97 1073.17   3
 -15   0  -6 12699.2 1540.69   2
   0  15  -6 12488.8 1434.67   1
  15 -15  -6 7916.59 1006.46   3
  15 -15  -6 10056.5 1429.24   2
  15 -15  -6 13571.4 1130.66   4
 -15   0  -6 11977.0 1446.44   4
  15 -15  -3 296.769 621.123   4
 -15   0  -3-531.414 691.014   2
  15 -15  -3 1255.20 876.703   2
   0  15  -3 419.448 825.913   1
  15 -15  -3 382.552 726.527   3
 -15   0  -3 3.87634 641.156   4
 -15   0  -3-257.392 597.049   1
  15 -15   0 53192.0 2290.08   3
 -15   0   0 48519.6 1538.83   1
   0  15   0 48752.5 1938.26   1
   0  15   0 49841.9 1894.63   3
 -15   0   0 48709.0 1532.67   2
  15 -15   0 54390.5 1324.82   1
 -15   0   0 51986.6 1411.51   4
  15 -15   3-1054.60 1030.86   3
   0  15   3 451.858 819.216   1
   0  15   3-85.0600 329.825   3
  15 -15   6 34325.1 2422.08   3
  15 -15   9 893.822 1405.48   3
  14 -15 -10 2688.93 1616.08   1
 -14  -1 -10 3423.93 1458.92   2
 -15   1 -10 927.553 1237.14   2
  15 -14 -10 3720.92 1548.10   1
   1  14 -10 5850.54 1472.96   1
  -1  15 -10 2380.14 1361.45   1
  15 -14 -10 1610.27 1166.24   2
 -14  -1 -10 4231.08 1482.37   4
  14 -15 -10 1470.37 1259.03   2
  14 -15 -10 1115.10 1007.08   4
  15 -14 -10 3692.74 1021.90   4
 -15   1 -10 2990.48 1400.72   4
  15 -14  -7 7580.88 1105.33   3
 -14  -1  -7 10371.9 1407.94   2
   1  14  -7 9244.26 1383.80   1
  -1  15  -7 6738.90 1281.58   1
  14 -15  -7 6949.90 922.510   3
 -15   1  -7 8161.83 1357.94   2
  14 -15  -7 9131.00 1068.08   4
  15 -14  -7 10937.7 1526.04   1
  14 -15  -7 8691.58 1428.86   2
  15 -14  -7 8698.91 1067.94   4
  14 -15  -7 7950.56 992.505   3
 -15   1  -7 10550.3 1408.62   4
 -14  -1  -7 7526.48 1213.19   4
  15 -14  -7 9838.90 1441.49   2
  15 -14  -4 18240.3 1357.28   3
  14 -15  -4 17356.1 1280.67   3
 -15   1  -4 16323.8 1040.03   1
  15 -14  -4 17528.0 1034.53   4
 -15   1  -4 18676.2 1367.23   4
 -15   1  -4 15794.9 1382.51   2
 -14  -1  -4 15636.7 1371.14   2
   1  14  -4 16062.8 1390.62   1
  -1  15  -4 15781.7 1276.99   1
  15 -14  -4 19570.2 1453.08   2
  14 -15  -4 17008.8 1117.58   4
  14 -15  -4 17797.1 1542.17   2
 -14  -1  -4 15772.2 1154.84   1
 -14  -1  -4 18464.3 1337.93   4
   1  14  -1 14744.5 1228.65   1
  15 -14  -1 13813.0 1290.63   3
 -15   1  -1 13648.5 857.216   1
  -1  15  -1 13463.5 1149.69   1
  14 -15  -1 13761.0 1216.03   3
 -14  -1  -1 13719.9 969.128   1
  -1  15  -1 15002.9 1286.22   3
 -14  -1  -1 16117.8 1040.99   2
   1  14  -1 14293.6 1246.27   3
 -15   1  -1 13519.0 971.861   2
  14 -15  -1 15245.2 896.954   1
  15 -14  -1 14666.4 966.453   4
  14 -15  -1 12890.5 986.920   4
 -14  -1  -1 15137.2 946.272   4
 -15   1  -1 14133.0 899.733   4
  -1  15   2 13575.6 834.414   3
  15 -14   2 12812.0 1391.19   3
  14 -15   2 12990.4 541.326   1
   1  14   2 12292.3 1166.12   1
 -15   1   2 9939.27 393.303   4
  14 -15   2 12617.1 1331.24   3
   1  14   2 12094.0 826.521   3
  -1  15   2 13442.2 1228.89   1
 -14  -1   2 11904.5 547.785   4
  15 -14   5 12967.1 1585.61   3
  14 -15   5 12940.0 1661.07   3
 -14  -1   5 9196.58 381.333   4
 -14  -1   5 9373.70 409.999   4
  15 -14   8 5617.72 1524.15   3
  14 -15   8 4004.77 1439.57   3
  13 -15  -8 2607.92 759.923   3
   2  13  -8-825.426 1114.11   1
  15 -13  -8 445.239 1034.10   2
  13 -15  -8-399.111 1128.91   2
 -13  -2  -8 3243.38 1281.66   2
 -15   2  -8 2206.60 1054.15   2
  13 -15  -8 3081.27 997.664   4
  -2  15  -8 2308.60 1073.64   1
  15 -13  -8-2026.59 1245.66   1
  15 -13  -8 1454.58 708.401   4
 -13  -2  -8 3022.93 1191.07   4
 -15   2  -8 2969.68 1209.88   4
  -2  15  -5 4450.09 1020.94   1
  15 -13  -5 3017.48 843.385   3
  13 -15  -5 1992.72 688.414   3
  13 -15  -5 3615.07 838.839   4
 -13  -2  -5 4584.91 995.839   2
 -15   2  -5 2107.58 1045.96   2
 -15   2  -5 1963.83 683.277   1
  15 -13  -5 3341.51 675.286   4
  15 -13  -5 3114.50 956.026   2
  13 -15  -5 2995.06 1101.02   2
   2  13  -5 1780.99 990.769   1
 -13  -2  -5 1175.07 885.433   4
 -15   2  -5 2324.49 891.611   4
  -2  15  -2 2534.71 789.798   1
  13 -15  -2 3499.70 791.169   3
  15 -13  -2 2479.89 807.031   3
 -13  -2  -2 3107.40 680.529   2
   2  13  -2 2155.39 866.659   1
 -15   2  -2 2209.69 642.482   2
  15 -13  -2 3311.00 627.758   4
 -15   2  -2 2762.45 518.456   1
  13 -15  -2 3361.32 677.773   4
  15 -13  -2 4178.56 924.113   2
  13 -15  -2 1982.16 824.845   2
  13 -15  -2 2736.02 639.481   1
 -13  -2  -2 2829.33 624.978   4
 -13  -2  -2 2134.84 652.985   1
 -15   2  -2 3531.17 636.686   4
  13 -15   1 29958.0 1790.42   3
  15 -13   1 26674.7 1766.26   3
  13 -15   1 28806.3 962.478   1
  -2  15   1 28625.1 1267.76   3
   2  13   1 26003.9 1233.04   3
 -13  -2   1 25644.4 932.879   2
   2  13   1 26065.7 1509.42   1
  15 -13   1 24104.3 576.709   1
   2  13   1 26126.0 1383.82   2
 -15   2   1 26302.0 1166.79   1
 -15   2   1 27644.2 794.229   4
  -2  15   1 26520.9 1478.36   1
  15 -13   1 27791.1 659.700   1
 -13  -2   1 27896.8 967.532   4
 -13  -2   1 26918.0 1279.80   1
   2  13   4 10436.8 583.725   3
   2  13   4 10376.1 654.734   3
  15 -13   4 12998.7 1478.62   3
  13 -15   4 13144.8 1521.90   3
  13 -15   4 14039.0 605.867   1
 -13  -2   4 11782.9 547.079   4
  15 -13   7 13523.1 1783.23   3
  13 -15   7 15479.8 1866.75   3
 -13  -2   7 11183.5 683.164   4
  15 -13  10 423.933 1242.20   3
  13 -15  10 845.790 1261.05   3
  15 -12  -9 2083.28 1098.26   2
 -15   3  -9-1322.94 1037.87   4
  12 -15  -9 2120.07 1236.11   2
  12 -15  -9 1298.37 1044.75   4
  -3  15  -9 216.099 1051.47   1
 -12  -3  -9-748.926 1154.74   2
 -15   3  -9-325.607 1139.66   2
   3  12  -9 929.908 1176.43   1
  15 -12  -9 945.003 1288.92   1
 -12  -3  -9-482.254 1189.72   4
  15 -12  -9 222.873 712.722   4
  12 -15  -6 13978.5 952.827   3
 -15   3  -6 15020.3 1043.26   1
  -3  15  -6 16120.6 1393.76   1
 -12  -3  -6 16234.5 1529.87   2
   3  12  -6 15870.8 1488.83   1
  12 -15  -6 15184.0 1234.08   4
  15 -12  -6 14545.3 964.327   4
 -15   3  -6 16578.0 1549.64   2
  12 -15  -6 12881.4 869.975   3
  15 -12  -6 15678.5 1492.72   1
  12 -15  -6 15220.6 1597.40   2
  15 -12  -6 17278.5 1467.00   2
 -12  -3  -6 15395.7 1425.83   4
 -15   3  -6 17275.2 1576.99   4
  12 -15  -3 888.483 610.035   4
  15 -12  -3 244.020 714.345   3
  15 -12  -3 582.715 459.562   4
   3  12  -3 1278.67 844.003   1
  12 -15  -3 498.861 816.898   2
  12 -15  -3 459.346 583.422   3
 -12  -3  -3-122.104 640.236   1
 -12  -3  -3 412.664 655.845   2
  -3  15  -3-682.269 738.053   1
 -15   3  -3 1442.64 705.861   2
  15 -12  -3 130.519 681.739   2
  15 -12  -3 787.634 545.360   1
 -15   3  -3 782.075 449.244   1
 -12  -3  -3-4.24829 601.773   4
 -15   3  -3-328.289 605.658   4
  15 -12   0 11341.8 1238.78   3
  15 -12   0 10478.9 559.875   1
   3  12   0 8067.26 1031.49   1
 -12  -3   0 9950.30 926.501   1
  12 -15   0 9966.39 1056.97   3
  12 -15   0 10245.8 729.554   1
  -3  15   0 8916.29 923.102   3
 -12  -3   0 10144.8 753.797   2
 -15   3   0 9492.18 689.616   1
   3  12   0 8633.27 941.733   3
   3  12   0 8354.70 843.010   2
  -3  15   0 9055.64 966.456   1
 -12  -3   0 9738.49 737.039   4
 -15   3   0 10248.6 640.473   4
   3  12   3 11208.4 826.630   3
   3  12   3 10113.5 1089.33   1
 -12  -3   3 10157.6 594.420   4
  15 -12   3 11393.9 1390.58   3
  12 -15   3 11562.1 1298.32   3
  12 -15   3 11601.8 605.554   1
  15 -12   6 2151.79 1199.26   3
   3  12   6 2098.94 416.405   3
  12 -15   6 3014.32 1236.07   3
 -12  -3   6 3261.05 544.721   4
 -12  -3   6 2427.29 465.788   4
  15 -12   9 743.848 1221.32   3
  12 -15   9-1200.23 1388.36   3
  11 -15 -10 11684.5 1528.75   4
   4  11 -10 11865.1 1791.14   1
  -4  15 -10 13773.1 1610.89   1
 -11  -4 -10 13733.2 1824.96   2
 -15   4 -10 12805.0 1263.36   1
 -15   4 -10 13231.9 1760.36   2
  15 -11 -10 13464.3 1910.52   1
 -11  -4 -10 13728.0 1864.23   4
 -15   4 -10 15495.9 1836.91   4
  11 -15 -10 11778.3 1743.31   2
  15 -11 -10 10591.8 1388.64   2
  15 -11  -7 16281.6 1593.20   1
  15 -11  -7 14073.1 967.350   4
  11 -15  -7 16197.8 1403.73   4
   4  11  -7 14648.3 1558.99   1
  11 -15  -7 9495.60 707.399   3
 -15   4  -7 12798.5 1008.43   1
  11 -15  -7 11356.9 759.168   3
 -15   4  -7 15564.3 1578.52   2
  -4  15  -7 16468.9 1443.84   1
  15 -11  -7 15366.1 1432.14   2
  11 -15  -7 14390.3 1672.36   2
 -11  -4  -7 17631.2 1626.54   4
 -11  -4  -7 14048.6 1675.34   2
 -15   4  -7 15238.9 1548.70   4
  15 -11  -4 29758.5 1713.46   3
  11 -15  -4 27297.7 1139.95   3
 -11  -4  -4 27951.5 1619.69   2
  11 -15  -4 30052.9 1839.55   2
   4  11  -4 28174.5 1635.91   1
 -15   4  -4 25608.7 1598.05   2
 -15   4  -4 27825.9 1003.28   1
  -4  15  -4 26341.1 1423.35   1
  15 -11  -4 26978.0 1440.80   1
  15 -11  -4 24840.9 1435.57   2
  11 -15  -4 29790.9 1438.43   4
 -11  -4  -4 26775.3 1521.33   4
 -15   4  -4 27226.0 1531.52   4
  15 -11  -4 28842.6 955.585   4
   4  11  -1 6194.76 932.780   1
  15 -11  -1 8158.55 1146.15   3
  11 -15  -1 6390.29 881.427   3
 -11  -4  -1 6961.18 791.807   2
  -4  15  -1 7168.29 832.992   1
  -4  15  -1 7913.24 997.859   3
 -11  -4  -1 7920.16 904.910   1
   4  11  -1 7017.47 982.356   3
  11 -15  -1 6297.09 835.450   4
  11 -15  -1 6854.67 1004.78   2
  11 -15  -1 6676.12 703.860   1
 -11  -4  -1 6821.08 765.623   4
 -15   4  -1 6977.57 565.084   1
   4  11  -1 7538.14 754.014   2
  15 -11  -1 7601.01 609.420   1
 -15   4  -1 7789.43 695.976   4
  15 -11   2 11061.5 1365.54   3
  -4  15   2 10387.9 626.116   3
  11 -15   2 11295.0 1246.64   3
  11 -15   2 10927.0 712.419   1
 -11  -4   2 9550.96 475.375   2
 -11  -4   2 10401.2 686.470   4
   4  11   2 12175.7 1171.15   1
 -15   4   2 11087.3 870.328   1
  15 -11   2 11885.0 944.946   4
  15 -11   5 33506.2 2267.97   3
   4  11   5 32162.5 1232.04   3
  11 -15   5 35017.6 2156.10   3
 -11  -4   5 33917.6 1109.27   4
  11 -15   5 30520.0 1098.90   1
 -11  -4   5 30752.7 1024.18   4
   4  11   8 5738.79 690.904   3
  15 -11   8 8626.94 1512.68   3
  11 -15   8 7848.50 1601.14   3
  15 -10  -8 2504.38 936.325   2
  10 -15  -8 1054.27 308.192   3
 -15   5  -8 4715.19 1230.57   4
 -10  -5  -8 1205.61 1116.98   2
   5  10  -8 2442.71 1135.63   1
 -15   5  -8 3430.67 1119.84   2
  10 -15  -8 4225.33 1329.60   2
  -5  15  -8 2717.87 1035.22   1
  10 -15  -8 2837.44 994.190   4
  15 -10  -8 2602.69 1175.81   1
 -10  -5  -8 2794.08 1058.95   4
 -15   5  -8 2624.96 689.190   1
  15 -10  -8 2630.28 659.733   4
  10 -15  -5 18836.0 730.569   3
 -10  -5  -5 21750.0 1617.89   2
  15 -10  -5 21840.2 1388.12   2
   5  10  -5 22664.9 1617.04   1
 -15   5  -5 22187.9 1616.96   2
 -15   5  -5 25903.9 992.041   1
  -5  15  -5 23938.5 1397.77   1
  15 -10  -5 22317.8 823.112   4
  15 -10  -5 27210.9 1584.10   1
  10 -15  -5 25565.4 1425.46   4
 -10  -5  -5 21939.1 1561.15   4
 -15   5  -5 23835.1 1605.54   4
  10 -15  -5 25883.8 1880.26   2
  -5  15  -2 16880.1 1106.83   1
  15 -10  -2 17934.2 1431.83   3
  10 -15  -2 19585.6 1141.41   1
 -10  -5  -2 20010.8 1257.10   2
  10 -15  -2 18240.2 1043.10   3
  -5  15  -2 18092.8 1427.19   3
  10 -15  -2 19496.2 1475.90   2
 -15   5  -2 18544.4 657.282   1
  15 -10  -2 20147.8 780.829   4
 -10  -5  -2 17079.1 1180.67   1
   5  10  -2 17814.0 1319.57   1
  10 -15  -2 19620.3 1231.72   4
  15 -10  -2 20190.2 997.881   1
 -10  -5  -2 17827.3 1139.65   4
 -15   5  -2 19292.2 1080.21   4
  15 -10   1 59827.6 2512.89   3
  -5  15   1 60559.5 1680.74   3
 -10  -5   1 63534.0 1406.99   2
  10 -15   1 56921.8 2141.21   3
   5  10   1 58457.7 2006.70   1
  -5  15   1 63122.7 2001.38   1
   5  10   1 54437.3 1853.48   4
 -15   5   1 62279.0 1555.46   1
  10 -15   1 61411.5 1562.48   1
   5  10   1 56194.0 1865.01   2
 -10  -5   1 58846.8 1521.18   4
  15 -10   1 63236.2 1706.14   4
   5  10   4 14717.6 1017.87   3
 -10  -5   4 15408.9 844.171   4
  15 -10   4 14402.7 1542.90   3
  10 -15   4 15203.7 1513.15   3
  10 -15   4 14109.9 802.288   1
 -15   5   7 1499.65 266.243   4
  15 -10   7 3652.30 1308.41   3
   5  10   7 3847.48 721.247   3
  10 -15   7 5840.52 1386.59   3
 -10  -5   7 3777.94 638.259   4
  15 -10  10 4750.42 1601.07   3
  10 -15  10 3649.27 1558.02   3
   9 -15  -9 563.657 1231.21   2
 -15   6  -9 1650.15 1116.34   4
  -9  -6  -9-206.831 1095.38   2
   6   9  -9 1126.09 1266.00   1
 -15   6  -9 30.7541 982.696   2
  -6  15  -9 709.115 939.981   1
  -9  -6  -9 1522.23 1121.67   4
 -15   6  -9 654.718 668.798   1
   9 -15  -9 1327.16 965.893   4
  15  -9  -9 539.612 1046.72   1
  15  -9  -9-174.993 885.079   2
  15  -9  -9 1555.94 601.675   4
  15  -9  -6 3514.06 434.332   4
  -9  -6  -6 6122.20 1173.72   2
 -15   6  -6 6150.30 1096.28   2
  -9  -6  -6 6276.50 1085.61   4
 -15   6  -6 4031.81 573.793   1
  -6  15  -6 5138.50 930.026   1
   6   9  -6 6733.91 1241.29   1
   9 -15  -6 3806.59 933.852   4
  15  -9  -6 4856.35 1016.97   1
  15  -9  -6 4736.84 940.963   2
   9 -15  -6 6378.31 1399.86   2
 -15   6  -6 5444.37 1048.98   4
  15  -9  -3 3683.25 892.878   3
  15  -9  -3 3411.42 714.656   2
 -15   6  -3 3844.55 305.954   1
   9 -15  -3 3824.04 457.543   3
  -9  -6  -3 3853.33 839.075   2
   9 -15  -3 6493.06 1134.74   2
  -6  15  -3 4641.57 726.509   1
  -9  -6  -3 4488.84 751.554   4
   9 -15  -3 5526.59 807.970   4
  15  -9  -3 4606.85 714.310   1
  15  -9  -3 3901.52 316.161   4
 -15   6  -3 3943.33 720.695   4
   6   9  -3 4013.09 943.795   1
   9 -15   0 5748.54 715.703   1
  15  -9   0 4934.82 1058.38   3
  -9  -6   0 4561.64 661.229   2
  -6  15   0 4777.12 778.478   3
   9 -15   0 4124.73 820.493   4
  15  -9   0 5068.92 571.403   4
  -9  -6   0 5946.30 871.146   1
   9 -15   0 4509.45 793.858   3
   6   9   0 5705.56 783.327   4
  -9  -6   0 4888.71 671.144   4
 -15   6   0 4792.71 508.452   1
   9 -15   0 6056.11 978.861   2
   6   9   0 6013.70 779.863   2
  15  -9   0 5325.41 459.357   1
   6   9   0 4173.89 878.020   1
  -6  15   0 5324.58 776.926   1
   6   9   3 3512.82 715.157   3
  15  -9   3 3800.35 1070.63   3
   9 -15   3 5762.96 1058.01   3
   9 -15   3 3273.26 536.058   1
   6   9   3 2936.33 800.411   1
  -9  -6   3 3540.51 592.175   4
   9 -15   6 9855.90 857.572   1
   6   9   6 12251.9 1042.14   3
  15  -9   6 10657.2 1480.37   3
   9 -15   6 13177.5 1532.76   3
  -9  -6   6 10133.0 813.363   4
  15  -9   9-742.013 1190.26   3
   6   9   9 351.973 681.872   3
   9 -15   9 796.945 1265.41   3
  15  -8 -10 8858.00 1162.33   2
  15  -8 -10 10026.1 1681.65   1
   7   8 -10 13765.8 1822.17   1
   8 -15 -10 8683.59 1617.06   2
  -8  -7 -10 8719.73 1684.80   2
  -7  15 -10 8975.71 1317.57   1
  -8  -7 -10 12320.0 1713.66   4
 -15   7 -10 11118.2 1664.45   2
 -15   7 -10 9223.10 1064.22   1
   8 -15 -10 9145.57 1497.68   4
  -8  -7  -7 9093.21 1390.14   2
   7   8  -7 8576.64 1388.68   1
 -15   7  -7 9420.21 773.185   1
  -7  15  -7 9777.26 1104.62   1
 -15   7  -7 9844.27 1281.64   2
 -15   7  -7 8306.33 747.654   1
   8 -15  -7 11260.0 1559.16   2
  15  -8  -7 8055.48 1060.14   2
  15  -8  -7 9542.63 1320.97   1
   8 -15  -7 8408.36 1130.12   4
  -8  -7  -7 9699.63 1376.78   4
 -15   7  -7 11754.1 1392.87   4
  -8  -7  -4 21246.3 1512.23   2
  15  -8  -4 21255.6 1169.39   2
  15  -8  -4 21426.9 1273.04   1
   7   8  -4 21467.0 1438.52   1
 -15   7  -4 16689.9 509.774   1
  -7  15  -4 21654.3 1158.76   1
   8 -15  -4 20962.1 1616.20   2
   8 -15  -4 21288.1 1309.28   4
  -8  -7  -4 22168.1 1459.50   4
 -15   7  -4 22148.5 1353.42   4
  15  -8  -1 59986.8 2472.05   3
  -8  -7  -1 58669.3 1845.49   2
  -7  15  -1 59697.9 2167.91   3
   7   8  -1 56529.9 1964.52   1
   7   8  -1 58019.9 1673.65   4
   8 -15  -1 58466.2 1698.24   3
   8 -15  -1 58189.4 1746.98   1
   8 -15  -1 61616.6 2117.21   2
  15  -8  -1 59741.4 1402.34   1
  -8  -7  -1 55706.7 1866.42   1
   7   8  -1 58270.0 2196.48   3
 -15   7  -1 56225.9 1008.96   1
   8 -15  -1 58479.0 1932.63   4
   7   8  -1 58273.8 1466.52   2
  -8  -7  -1 55226.8 1776.24   4
  -7  15  -1 57962.0 1700.39   1
  15  -8  -1 56768.0 1169.66   4
  -8  -7   2 36696.1 963.702   2
  15  -8   2 36227.6 2058.17   3
   8 -15   2 38194.7 1862.53   3
   8 -15   2 36677.8 1329.98   1
  -8  -7   2 36881.7 1326.71   4
   7   8   2 37649.0 1658.47   1
   7   8   2 34048.8 1630.38   2
  -7  15   2 36148.7 1101.09   3
  15  -8   2 35440.1 1399.31   4
  -8  -7   5 11442.8 885.370   4
  15  -8   5 7218.81 1299.70   3
   7   8   5 9333.26 975.141   3
   8 -15   5 8479.68 811.971   1
   8 -15   5 11471.7 1481.70   3
  15  -8   8 9602.75 1640.42   3
   7   8   8 8192.48 1060.08   3
   8 -15   8 12899.7 1721.11   3
 -15   8  -8 12820.9 939.099   1
  -8  15  -8 12817.3 1215.39   1
   7 -15  -8 15484.3 1780.76   2
   8   7  -8 13297.9 1654.17   1
  15  -7  -8 13100.4 1555.28   1
 -15   8  -8 13499.0 1596.78   2
   7 -15  -8 12484.5 1426.47   4
  -7  -8  -8 11814.8 1622.25   2
  -7  -8  -8 14813.4 1645.61   4
  15  -7  -8 9235.04 1024.98   2
  -7  -8  -5 12621.5 1446.13   2
   8   7  -5 13800.3 1342.72   1
  -8  15  -5 13534.6 1033.91   1
  -7  -8  -5 12704.5 1300.47   4
  15  -7  -5 11714.5 1195.24   1
  15  -7  -5 12932.3 979.978   2
 -15   8  -5 10751.9 467.724   1
   7 -15  -5 12644.0 1202.39   4
 -15   8  -5 10219.5 492.480   1
  15  -7  -2 37333.8 1987.74   3
  15  -7  -2 35778.1 1300.58   1
  -8  15  -2 34666.1 1306.40   1
   7 -15  -2 36694.3 1089.74   3
   7 -15  -2 33085.5 1460.06   1
   8   7  -2 33908.6 1589.75   1
   7 -15  -2 34164.3 1782.77   2
  -7  -8  -2 39921.5 1715.91   2
   7 -15  -2 37195.0 1627.90   4
  -7  -8  -2 35415.5 1574.81   4
   8   7  -2 35285.3 922.383   2
  -8  15  -2 34732.3 1920.62   3
  -8  15   1 59828.1 1748.58   3
   7 -15   1 53947.9 1918.48   2
   8   7   1 54712.4 1906.56   1
   8   7   1 54833.8 1822.13   4
   7 -15   1 60672.0 2063.00   3
  15  -7   1 56276.2 1859.21   2
  15  -7   1 61780.2 2557.46   3
  15  -7   1 60908.2 1097.62   1
   7 -15   1 62146.9 1752.53   1
   7 -15   1 56472.6 1860.59   4
   8   7   1 58858.1 1900.16   2
  -7  -8   1 55641.6 1671.54   4
  15  -7   1 62437.6 1623.26   4
  -7  -8   1 60493.1 1510.22   2
   8   7   4 17777.1 1284.95   3
  15  -7   4 20506.2 1707.17   3
  -7  -8   4 19224.0 1084.77   4
   7 -15   4 19743.0 1553.56   3
   7 -15   4 17470.5 1009.18   1
   8   7   7 8899.72 1146.72   3
  15  -7   7 8318.31 1430.52   3
   7 -15   7 10512.0 1631.27   3
 -15   8   7 5905.65 535.978   4
   8   7  10 8944.18 1197.54   3
   7 -15  10 12164.6 1862.19   3
  15  -7  10 9437.58 1694.93   3
  15  -6  -9 1367.45 1113.20   1
 -15   9  -9-22.1439 640.501   1
   6 -15  -9-1586.49 1263.76   2
  15  -6  -9 34.7989 697.109   2
  -6  -9  -9 3116.49 1274.46   2
   9   6  -9 1122.82 1263.20   1
  -9  15  -9 49.2948 890.678   1
   6 -15  -9-924.034 1035.67   4
  -6  -9  -9-1147.82 1111.17   4
  -6  -9  -6 12163.0 1508.09   2
  15  -6  -6 14054.7 1348.65   1
   9   6  -6 12033.4 1414.39   1
  -9  15  -6 13418.5 1047.07   1
  15  -6  -6 12709.6 983.177   2
 -15   9  -6 12027.3 603.362   1
 -15   9  -6 11885.8 623.340   1
  -6  -9  -6 11713.1 1331.13   4
   6 -15  -6 11059.0 1591.57   2
   6 -15  -6 12066.3 1228.44   4
  15  -6  -3 4411.03 736.760   1
  15  -6  -3 4125.99 632.975   2
  -6  -9  -3 4014.00 922.963   2
   9   6  -3 4504.07 938.824   1
   6 -15  -3 3625.07 883.047   4
  -6  -9  -3 4290.21 854.644   4
   6 -15  -3 2862.56 954.044   2
  -9  15  -3 4681.50 668.996   1
  15  -6   0 5680.55 1207.34   3
   6 -15   0 4593.32 783.011   1
  -9  15   0 4249.10 792.860   3
   9   6   0 5495.88 767.224   2
   6 -15   0 5429.56 890.055   4
  15  -6   0 5222.40 575.841   1
   9   6   0 4830.47 909.952   1
  15  -6   0 5136.34 691.489   2
  -9  15   0 4325.92 634.534   1
   6 -15   0 4374.54 735.749   3
   9   6   0 4265.23 726.133   4
   6 -15   0 6211.99 934.787   2
  -6  -9   0 4527.47 807.199   4
  15  -6   0 4494.98 517.400   4
  -6  -9   0 6023.34 786.119   2
   9   6   3 4308.52 909.658   3
  -6  -9   3 3314.05 691.917   4
  15  -6   3 4191.37 1050.15   3
   9   6   3 3852.37 760.899   1
   6 -15   3 4885.14 1010.59   3
   6 -15   3 3270.82 653.829   1
  -6  -9   3 3694.56 414.237   2
   9   6   6 4406.11 915.908   3
  15  -6   6 4049.78 1276.22   3
 -15   9   6 4411.96 439.455   4
  15  -6   9 1474.06 1179.84   3
   9   6   9 308.866 827.054   3
   6 -15   9-800.243 1173.84   3
  15  -5 -10 3494.73 1360.41   1
 -10  15 -10 2429.90 956.581   1
   5 -15 -10 3183.00 1465.62   2
 -15  10 -10 2848.91 822.605   1
  -5 -10 -10 1494.12 1323.91   2
  10   5 -10 1570.71 1343.36   1
   5 -15 -10 1948.09 1235.06   4
  -5 -10 -10 4047.47 1466.62   4
   5 -15  -7 4776.44 1395.20   2
  15  -5  -7 3547.81 1110.40   1
  -5 -10  -7 2660.76 1168.08   2
  15  -5  -7 4449.94 687.553   2
   5 -15  -7 6465.89 1124.07   4
 -15  10  -7 4927.03 605.366   1
  10   5  -7 2468.55 1190.53   1
 -10  15  -7 4035.74 833.605   1
  -5 -10  -7 4736.92 1175.91   4
 -15  10  -7 4951.46 570.512   1
  10   5  -4 17719.8 1341.83   1
 -10  15  -4 17132.8 952.550   1
  15  -5  -4 16553.4 888.826   2
  -5 -10  -4 16330.3 1310.86   4
   5 -15  -4 19029.2 1628.70   2
   5 -15  -4 18581.9 1306.52   4
  15  -5  -4 17313.6 1235.15   1
  -5 -10  -4 19932.6 1530.38   2
  15  -5  -1 62042.7 2550.12   3
   5 -15  -1 59825.0 1914.54   1
 -10  15  -1 67575.6 2400.76   3
  15  -5  -1 63586.1 1577.78   1
 -10  15  -1 67898.0 1657.15   1
  15  -5  -1 63752.8 1675.97   2
   5 -15  -1 66429.9 1644.46   3
  10   5  -1 65067.5 1535.69   2
   5 -15  -1 65366.6 2234.21   2
  10   5  -1 62662.5 2014.49   1
   5 -15  -1 63487.2 2070.34   4
  -5 -10  -1 63989.8 1990.40   4
  15  -5  -1 64053.5 1081.54   4
  10   5  -1 64980.9 1635.29   4
  -5 -10  -1 59336.9 1935.78   2
 -10  15   2 17431.6 934.598   3
  15  -5   2 17277.5 1551.60   3
  -5 -10   2 17460.0 1117.15   4
  10   5   2 18758.2 1404.50   3
   5 -15   2 17779.5 1179.19   2
   5 -15   2 14564.0 1052.64   1
   5 -15   2 19924.0 1390.72   3
  10   5   2 16907.1 1277.12   2
  15  -5   2 16370.8 666.303   1
  10   5   2 16495.3 1128.43   1
  10   5   2 16748.9 1144.65   4
  -5 -10   2 16782.6 887.070   2
  15  -5   2 17089.7 1018.42   4
  10   5   5 20061.8 1503.09   3
  15  -5   5 21770.0 1875.01   3
  -5 -10   5 16792.9 560.333   2
   5 -15   5 23321.4 1801.52   3
  -5 -10   5 17665.5 605.434   2
  15  -5   8 1410.68 1031.14   3
  10   5   8 3346.94 1050.63   3
   5 -15   8 3248.76 1467.40   3
  -5 -10   8 1395.33 313.166   2
  15  -4  -8 6674.05 669.900   2
  -4 -11  -8 6846.40 1392.59   4
   4 -15  -8 7654.39 1323.62   4
  -4 -11  -8 8527.47 1586.33   2
 -11  15  -8 8452.67 1040.95   1
  11   4  -8 6587.10 1377.81   1
  15  -4  -8 8599.77 1422.57   1
   4 -15  -8 8536.13 1582.66   2
 -15  11  -8 8636.58 781.035   1
  -4 -11  -5 32397.1 1815.47   4
  11   4  -5 38730.2 1925.45   1
  15  -4  -5 35572.3 1137.24   2
   4 -15  -5 36281.6 1823.86   4
 -11  15  -5 35880.0 1283.46   1
   4 -15  -5 38089.1 2210.93   2
  15  -4  -5 39837.9 1864.97   1
  -4 -11  -5 37572.1 2114.48   2
  15  -4  -2 11107.2 906.458   1
 -11  15  -2 11580.9 694.071   1
  11   4  -2 9917.93 1028.13   1
  15  -4  -2 9770.51 691.414   2
   4 -15  -2 10457.9 1104.80   4
  -4 -11  -2 11846.3 1100.17   4
   4 -15  -2 12637.1 1297.05   2
  11   4  -2 9799.46 563.156   2
  -4 -11  -2 10032.2 1100.76   2
 -11  15   1 9911.81 924.841   3
  11   4   1 6805.31 873.635   1
  15  -4   1 5118.63 1072.05   3
  15  -4   1 6825.83 833.891   2
   4 -15   1 6265.17 934.225   3
   4 -15   1 7571.65 923.787   2
   4 -15   1 6558.95 925.714   1
   4 -15   1 7081.46 904.730   4
  -4 -11   1 6427.08 963.508   4
  11   4   1 4886.88 771.000   4
  15  -4   1 7105.81 679.418   1
  15  -4   1 7423.05 694.287   4
  -4 -11   1 7155.17 805.204   2
  11   4   1 7401.67 868.225   2
  11   4   4 20788.7 1520.60   3
  15  -4   4 22640.3 1811.68   3
   4 -15   4 21864.9 1722.96   3
  -4 -11   4 23716.9 1326.40   4
  -4 -11   4 24836.2 885.958   2
 -11  15   4 21762.0 1223.29   4
  11   4   7 15329.1 1445.34   3
  15  -4   7 13748.3 1789.53   3
   4 -15   7 14442.4 1777.14   3
  -4 -11   7 12691.6 668.334   2
 -15  11   7 12655.3 835.179   4
  -4 -11   7 10323.4 631.345   2
  15  -4  10 9423.19 1664.50   3
  11   4  10 9526.63 1391.43   3
   4 -15  10 11154.0 1800.89   3
   3 -15  -9 218.341 1324.22   2
  15  -3  -9 769.331 1081.76   1
  -3 -12  -9-1569.30 1272.30   2
  12   3  -9 1072.61 1216.94   1
 -15  12  -9 761.573 614.903   1
 -12  15  -9-680.650 781.749   1
   3 -15  -9 1303.35 1063.47   4
  -3 -12  -9-526.479 1104.77   4
   3 -15  -6 3759.83 1412.36   2
  -3 -12  -6 5010.47 1387.06   2
  15  -3  -6 1921.91 1036.48   1
 -15  12  -6 2438.51 369.878   1
  12   3  -6 3023.74 1018.04   1
   3 -15  -6 2208.35 968.936   4
  -3 -12  -6 1843.56 1021.66   4
  15  -3  -6 2574.81 403.856   2
 -12  15  -6 4016.33 686.061   1
  15  -3  -3 11863.8 1042.76   1
   3 -15  -3 10564.9 1097.12   4
  12   3  -3 12558.5 1142.45   1
  15  -3  -3 11741.4 654.339   2
 -12  15  -3 12350.4 659.614   1
  -3 -12  -3 12582.3 1185.52   4
   3 -15  -3 12345.3 1363.88   2
  -3 -12  -3 11835.7 1332.83   2
 -15  12   0 10789.8 1143.47   3
  15  -3   0 8776.51 1261.62   3
   3 -15   0 11464.0 1133.54   4
  -3 -12   0 11035.1 1122.90   4
  15  -3   0 10885.2 886.638   2
  15  -3   0 12925.3 887.101   1
   3 -15   0 11747.1 955.935   3
  12   3   0 14654.5 927.266   4
   3 -15   0 10833.2 1140.35   2
  12   3   0 12940.5 1070.20   1
  -3 -12   0 12419.8 1074.84   2
  12   3   0 12712.2 928.945   2
 -12  15   0 11703.6 1123.92   3
  15  -3   0 11475.4 709.008   4
  -3 -12   3 309.492 499.650   2
  12   3   3 187.174 578.626   1
  12   3   3 910.902 910.986   3
  15  -3   3-221.550 962.857   3
   3 -15   3 330.173 856.611   3
  -3 -12   3-713.426 675.189   4
  15  -3   3-138.384 408.970   1
   3 -15   3 962.502 645.965   2
  12   3   6 12700.1 1465.19   3
  15  -3   6 13235.6 1664.96   3
  -3 -12   6 13038.9 700.680   2
   3 -15   6 13274.0 1707.82   3
  -3 -12   6 13652.7 1621.22   3
  -3 -12   6 14296.9 793.978   2
 -15  12   6 12259.3 808.591   4
  15  -3   9-729.033 1133.35   3
  12   3   9 242.759 971.968   3
   3 -15   9 1503.35 1256.78   3
  15  -2 -10 430.315 1275.62   1
   2 -15 -10-2232.18 1359.74   2
  -2 -13 -10 1988.40 1398.95   2
  13   2 -10 3070.29 1433.97   1
 -13  15 -10 1126.58 802.497   1
   2 -15 -10 472.799 1119.28   4
  -2 -13 -10-652.493 1218.74   4
 -15  13  -7 15262.9 770.043   1
 -13  15  -7 16761.3 1000.88   1
  13   2  -7 15389.9 1632.90   1
   2 -15  -7 14203.2 1454.44   4
  -2 -13  -7 17933.8 1641.62   4
  -2 -13  -7 12961.2 1768.04   2
   2 -15  -7 14792.5 1814.13   2
  15  -2  -7 17048.4 1672.41   1
  15  -2  -4 16135.1 1291.44   1
 -13  15  -4 15193.7 694.631   1
  13   2  -4 12524.4 1239.85   1
  15  -2  -4 11654.0 534.213   2
  15  -2  -4 11467.0 575.441   2
   2 -15  -4 16045.2 1326.30   4
  -2 -13  -4 12496.8 1261.93   4
   2 -15  -4 15600.5 1590.70   2
  -2 -13  -4 13332.1 1408.55   2
 -13  15  -1 26962.7 1720.08   3
  15  -2  -1 26612.3 1125.77   2
  -2 -13  -1 27685.7 1515.42   4
  15  -2  -1 26325.8 1244.75   1
  13   2  -1 28861.8 1436.84   1
   2 -15  -1 26319.9 1540.53   4
  13   2  -1 31362.1 1080.19   4
  15  -2  -1 29110.4 874.263   4
   2 -15  -1 28343.6 1627.49   2
  -2 -13  -1 27368.1 1512.85   2
  13   2  -1 27826.7 1101.70   2
  13   2   2 1894.11 891.722   3
  15  -2   2 3171.63 1082.16   3
   2 -15   2 2856.54 748.665   2
  -2 -13   2 2576.79 673.973   2
   2 -15   2 2082.33 868.888   3
  15  -2   2 2223.96 611.403   4
   2 -15   2 2785.90 762.478   4
  13   2   2 1957.70 631.115   4
  -2 -13   2 2778.93 773.291   4
  15  -2   2 1897.05 532.597   1
  13   2   2 2787.70 705.607   1
  13   2   5 1487.40 977.085   3
  15  -2   5 2287.42 1029.77   3
   2 -15   5 2980.73 1101.29   3
  -2 -13   5 1947.87 475.213   2
  -2 -13   5 2280.63 1087.94   3
 -13  15   5 2699.69 719.721   4
  -2 -13   5 2753.38 601.056   2
  13   2   8-20.0702 1031.95   3
  15  -2   8 2631.45 1294.96   3
   2 -15   8 2768.76 1459.03   3
  -2 -13   8 424.288 1145.98   3
   1 -15  -8 4416.62 1409.23   2
  -1 -14  -8 4665.51 1374.66   2
 -15  14  -8 5569.99 715.385   1
  15  -1  -8 4015.65 1312.65   1
 -14  15  -8 5149.45 788.900   1
  14   1  -8 6188.83 1397.68   1
   1 -15  -8 3784.93 1150.29   4
  -1 -14  -8 2193.58 1143.14   4
  15  -1  -5 12744.9 1355.68   1
  14   1  -5 13213.7 1363.83   1
   1 -15  -5 10946.9 1334.51   4
  -1 -14  -5 13415.4 1322.66   4
 -14  15  -5 12816.2 662.641   1
   1 -15  -5 12310.3 1556.09   2
  -1 -14  -5 15135.4 1595.97   2
  15  -1  -2 14931.9 778.028   2
  15  -1  -2 13981.5 1093.21   1
   1 -15  -2 16503.8 1303.32   4
  14   1  -2 15303.9 1175.76   1
  -1 -14  -2 12803.2 1320.13   2
  -1 -14  -2 15858.2 1280.26   4
   1 -15  -2 14520.1 1394.87   2
  14   1  -2 14765.3 748.533   2
 -15  14   1 12025.8 1147.10   3
  14   1   1 14518.3 1496.92   3
 -14  15   1 12397.7 1065.77   3
  15  -1   1 13774.2 1492.38   3
  14   1   1 11204.6 983.570   2
  15  -1   1 13005.9 1040.35   2
   1 -15   1 11834.1 1154.95   4
  14   1   1 13598.4 946.077   4
   1 -15   1 13433.8 1144.11   3
  -1 -14   1 13542.0 1206.00   4
  -1 -14   1 12003.4 1039.13   2
  15  -1   1 13903.5 894.924   4
   1 -15   1 12277.3 1110.52   2
  15  -1   1 13077.4 957.147   1
  14   1   1 14114.0 1027.21   1
  14   1   4 15096.8 1549.94   3
  15  -1   4 16135.8 1641.77   3
  -1 -14   4 14756.0 938.422   2
   1 -15   4 18864.0 1595.87   3
  -1 -14   4 15248.8 1545.91   3
   1 -15   4 14981.1 1048.99   2
  14   1   7 10675.8 1473.62   3
  -1 -14   7 5712.18 702.352   2
  15  -1   7 7651.75 1376.91   3
   1 -15   7 8944.55 1539.95   3
  -1 -14   7 8389.85 1570.75   3
  15  -1  10 3093.91 1299.18   3
  14   1  10 1604.83 1185.98   3
   1 -15  10 2716.69 1577.72   3
  -1 -14  10 2313.78 1456.56   3
  15   0  -9-1079.21 1313.29   1
 -15  15  -9-95.7722 679.679   1
   0 -15  -9-1227.15 1308.50   2
   0 -15  -9-325.225 1028.85   4
  15   0  -6 37219.7 2076.40   1
 -15  15  -6 30921.5 956.812   1
   0 -15  -6 38876.5 2360.94   2
   0 -15  -6 33764.1 1992.16   4
   0 -15  -3 1093.52 1023.10   2
  15   0  -3 415.649 311.914   2
  15   0  -3 414.966 770.744   1
   0 -15  -3-262.434 755.055   4
  15   0   0 47840.5 2437.54   3
 -15  15   0 48242.9 2111.38   3
  15   0   0 54204.8 1775.73   1
   0 -15   0 49598.9 2011.57   4
   0 -15   0 51508.5 2020.08   2
  15   0   0 50531.6 1692.52   2
  15   0   0 53172.5 1508.53   4
  15   0   3-11.2975 571.358   1
   0 -15   3 286.547 688.168   4
  15   0   3 55.1521 955.380   3
   0 -15   3 722.854 874.993   3
   0 -15   3 151.365 615.705   2
  15   0   6 13869.5 1625.25   3
   0 -15   6 9895.59 849.427   2
   0 -15   6 11613.0 1652.25   3
   0 -15   6 12342.0 989.939   2
 -15  15   6 8617.64 877.369   4
  15   0   9 2650.87 1177.13   3
   0 -15   9-960.092 1311.32   3
  16 -16  -7 502.997 780.323   4
  16 -16  -7 643.327 814.031   3
 -16   0  -7-867.513 1022.34   2
 -16   0  -7-80.8106 1001.54   4
   0  16  -7 1403.80 1134.48   1
  16 -16  -7-2009.52 1240.96   2
  16 -16  -4 24166.4 1307.82   4
 -16   0  -4 26460.2 1719.44   2
  16 -16  -4 27524.7 1704.86   3
 -16   0  -4 22647.4 1292.45   1
  16 -16  -4 26291.5 1775.41   2
   0  16  -4 23657.7 1630.74   1
 -16   0  -4 27055.9 1623.94   4
  16 -16  -1 477.341 801.100   3
   0  16  -1-8.63163 755.737   1
  16 -16  -1 442.812 482.042   1
   0  16  -1 295.954 832.889   3
 -16   0  -1 520.962 577.149   1
 -16   0  -1-3.38118 579.650   2
  16 -16  -1-171.080 609.194   4
 -16   0  -1 493.055 485.482   4
  16 -16   2 33182.7 2087.08   3
   0  16   2 31437.3 1756.59   1
   0  16   2 27382.9 1223.74   3
 -16   0   2 24802.3 719.076   4
  16 -16   2 23642.9 592.476   1
  16 -16   5 1327.92 1092.75   3
  16 -16   8 24120.2 2402.40   3
  16 -15  -8 2842.31 909.076   3
  16 -15  -8 3172.32 1184.92   2
  15 -16  -8 2514.53 846.249   3
  15 -16  -8 1813.83 1214.27   2
 -15  -1  -8 1899.55 1129.74   2
 -16   1  -8 5086.36 1289.12   2
  16 -15  -8 5200.30 1439.96   1
   1  15  -8-337.512 1147.81   1
  -1  16  -8 2258.91 1172.45   1
  15 -16  -8 2144.05 938.215   4
  16 -15  -8 1957.11 820.506   4
 -15  -1  -8 1876.25 1086.42   4
 -16   1  -8 3575.00 1180.76   4
   1  15  -5 2140.26 1089.60   1
  16 -15  -5 1319.48 888.030   3
  16 -15  -5 3295.91 1120.18   2
  15 -16  -5 2622.22 837.808   3
  16 -15  -5 810.722 677.939   4
 -16   1  -5 1836.40 748.583   1
 -15  -1  -5 3577.04 1046.37   2
 -16   1  -5 2071.94 1040.65   2
  15 -16  -5 2609.07 759.226   4
  -1  16  -5 3137.10 1069.54   1
 -15  -1  -5 2608.73 897.972   4
  15 -16  -5 3155.39 1179.30   2
 -16   1  -5 1771.31 795.204   4
  15 -16  -2 3641.01 692.951   1
  15 -16  -2 4058.48 778.659   4
  16 -15  -2 1818.37 829.542   3
  16 -15  -2 2725.46 901.095   2
  15 -16  -2 3908.43 885.631   3
 -15  -1  -2 2690.33 740.621   2
 -16   1  -2 2995.08 700.855   2
 -16   1  -2 1933.95 595.629   1
   1  15  -2 4094.62 932.943   1
  16 -15  -2 2587.88 634.254   4
  15 -16  -2 2357.26 899.394   2
 -15  -1  -2 3646.64 705.044   1
  -1  16  -2 3166.44 852.018   1
 -15  -1  -2 3293.76 677.426   4
 -16   1  -2 4234.49 703.628   4
  16 -15   1 16970.4 638.506   1
  16 -15   1 16901.1 1538.53   3
  15 -16   1 17222.5 1503.72   3
  -1  16   1 15866.4 1071.41   3
   1  15   1 15243.8 1064.19   3
   1  15   1 17403.3 1318.74   1
 -16   1   1 14800.0 1008.37   1
  15 -16   1 16721.1 748.717   1
 -15  -1   1 16897.1 774.268   4
 -16   1   1 16857.5 703.694   4
  -1  16   1 17877.5 1325.64   1
  16 -15   4 1776.81 1049.71   3
  15 -16   4 1520.81 1115.91   3
   1  15   4 759.825 299.025   3
   1  15   4 1534.61 305.636   3
 -15  -1   4 507.859 138.590   4
  16 -15   7 7261.36 1574.32   3
 -15  -1   7 3412.18 364.829   4
  15 -16   7 6538.85 1554.33   3
  14 -16  -9 5081.34 1446.80   2
  16 -14  -9 4540.85 1278.14   2
  16 -14  -9 5384.39 1030.01   4
 -14  -2  -9 6053.35 1500.01   2
 -16   2  -9 5857.32 1504.33   2
   2  14  -9 7263.66 1470.81   1
  -2  16  -9 6378.34 1384.93   1
  14 -16  -9 6552.69 1263.69   4
 -14  -2  -9 7832.88 1595.95   4
  16 -14  -9 6700.06 1528.53   1
 -16   2  -9 9784.20 1592.52   4
  14 -16  -6 6757.01 914.668   3
  16 -14  -6 5170.59 1052.10   3
   2  14  -6 6807.33 1285.15   1
  -2  16  -6 6996.69 1276.63   1
  14 -16  -6 5664.96 805.114   3
 -14  -2  -6 6279.04 1227.13   2
 -16   2  -6 6532.50 1193.36   2
 -14  -2  -6 9275.12 1277.39   4
  16 -14  -6 7270.30 1209.40   1
  16 -14  -6 6456.83 1284.80   2
  14 -16  -6 7550.09 1003.43   4
  14 -16  -6 7854.77 1461.85   2
 -16   2  -6 5592.15 859.393   1
  16 -14  -6 6150.02 820.642   4
 -16   2  -6 7403.91 1207.19   4
  16 -14  -3 31995.0 1812.22   3
  14 -16  -3 33523.9 1812.44   2
 -14  -2  -3 30486.4 1628.10   2
 -16   2  -3 31301.9 1221.35   1
 -16   2  -3 32379.0 1656.08   2
 -14  -2  -3 29781.3 1441.41   1
  16 -14  -3 31056.1 1630.40   2
  14 -16  -3 31679.2 1462.38   4
  16 -14  -3 32757.7 1267.41   4
   2  14  -3 30226.2 1696.23   1
  -2  16  -3 26250.6 1538.59   1
 -14  -2  -3 32444.7 1597.28   4
 -16   2  -3 31420.2 1534.65   4
  14 -16  -3 33232.0 1659.65   3
   2  14   0 5723.16 903.109   2
  16 -14   0 7367.64 563.142   1
 -14  -2   0 7061.65 797.314   1
  14 -16   0 6184.70 1092.01   3
  16 -14   0 4177.17 965.177   3
   2  14   0 8609.43 1044.71   1
  14 -16   0 8378.42 660.989   1
  -2  16   0 8067.23 953.475   3
 -14  -2   0 7213.07 717.729   2
   2  14   0 7624.37 950.338   3
  -2  16   0 7636.59 959.480   1
 -14  -2   0 8183.50 692.988   4
 -16   2   0 7549.33 702.370   1
 -16   2   0 8137.07 629.228   4
   2  14   3 37485.2 1303.41   3
  14 -16   3 37886.7 863.976   1
  16 -14   3 35651.6 2177.77   3
  14 -16   3 38641.5 2195.46   3
   2  14   3 34692.1 1159.47   3
 -14  -2   3 35080.1 878.618   4
   2  14   3 40698.4 1976.73   1
  16 -14   6 5090.78 1365.73   3
  14 -16   6 4132.27 1347.57   3
 -14  -2   6 2323.77 405.136   4
 -14  -2   6 3567.28 386.156   4
  16 -14   9 6931.57 1724.88   3
  14 -16   9 6798.74 1625.74   3
  13 -16 -10 5553.45 1431.55   2
  13 -16 -10 10824.5 1546.64   4
   3  13 -10 6747.82 1565.86   1
 -16   3 -10 8850.19 1572.20   2
 -13  -3 -10 7913.79 1619.98   2
  13 -16 -10 11203.6 2148.94   1
 -16   3 -10 8288.47 1173.07   1
  -3  16 -10 8061.80 1495.59   1
  16 -13 -10 10903.1 1816.87   1
 -13  -3 -10 9213.82 1705.85   4
 -16   3 -10 11076.6 1721.85   4
  16 -13 -10 8033.86 1394.13   2
  13 -16  -7 5369.13 740.100   3
   3  13  -7 6555.10 1363.68   1
 -13  -3  -7 7582.11 1438.40   2
  16 -13  -7 8242.27 1392.62   1
  -3  16  -7 10498.6 1416.82   1
 -16   3  -7 4767.82 1168.01   2
  13 -16  -7 10286.8 1213.00   4
  16 -13  -7 9122.57 1338.83   2
  16 -13  -7 6150.49 811.845   4
 -16   3  -7 7602.98 1376.65   4
 -13  -3  -7 6952.20 1299.14   4
  13 -16  -7 7402.22 1429.64   2
  16 -13  -4 39017.8 2006.96   3
  13 -16  -4 36519.5 1536.62   3
  13 -16  -4 40902.0 2098.32   2
 -13  -3  -4 36542.5 1884.80   2
  16 -13  -4 41957.1 1315.17   4
 -16   3  -4 39072.3 1904.77   2
 -16   3  -4 39225.8 1311.31   1
   3  13  -4 35816.0 1879.47   1
  16 -13  -4 42382.6 1802.95   1
  -3  16  -4 34973.6 1712.73   1
  13 -16  -4 38258.1 1647.19   4
  16 -13  -4 40866.8 1890.92   2
 -13  -3  -4 39053.0 1864.32   4
 -16   3  -4 38810.2 1826.93   4
  13 -16  -1 4197.28 900.219   2
 -16   3  -1 1721.98 478.504   1
  13 -16  -1 3409.10 759.022   4
  13 -16  -1 3877.38 867.476   3
  16 -13  -1 2299.15 1003.70   3
 -13  -3  -1 3665.63 692.778   2
 -13  -3  -1 3165.79 751.886   1
  16 -13  -1 3986.12 534.127   1
  -3  16  -1 2980.63 839.906   3
  13 -16  -1 3339.03 593.397   1
   3  13  -1 2633.46 792.985   3
   3  13  -1 2783.43 633.596   2
  -3  16  -1 2660.88 749.658   1
 -13  -3  -1 2980.33 616.296   4
   3  13  -1 2841.05 875.355   1
 -16   3  -1 2802.32 562.160   4
  16 -13   2 45969.4 2344.85   3
  -3  16   2 45353.8 1310.75   3
  13 -16   2 43073.8 2189.35   3
  13 -16   2 44515.9 1163.00   1
  -3  16   2 45887.0 1925.03   1
   3  13   2 41119.3 1437.52   3
 -16   3   2 39525.4 1517.41   1
 -13  -3   2 42417.0 1133.66   4
   3  13   2 43431.8 1912.96   1
   3  13   5 3481.19 488.178   3
 -13  -3   5 4060.09 502.944   4
  16 -13   5 3132.44 1104.05   3
  13 -16   5 4499.96 503.530   1
  13 -16   5 3860.12 1265.71   3
 -13  -3   5 4273.61 452.470   4
  16 -13   8 12936.7 1888.96   3
  13 -16   8 12936.8 1869.99   3
  12 -16  -8 136.698 1195.97   2
  12 -16  -8-380.189 888.832   4
  12 -16  -8 281.252 410.719   3
 -12  -4  -8 581.967 1090.24   2
 -16   4  -8-3.77434 963.665   2
   4  12  -8-1053.58 1102.63   1
 -16   4  -8 86.3251 1039.49   4
  16 -12  -8 548.169 987.793   2
  -4  16  -8 815.206 1020.30   1
  16 -12  -8-109.642 1007.05   1
 -12  -4  -8 1221.77 1148.82   4
  16 -12  -8-178.153 616.990   4
 -16   4  -5 14619.9 912.562   1
  12 -16  -5 13438.8 885.560   3
 -12  -4  -5 15296.9 1469.97   2
   4  12  -5 16883.1 1538.41   1
 -16   4  -5 17527.5 1478.17   2
  12 -16  -5 12279.7 747.765   3
  -4  16  -5 13512.0 1261.97   1
  12 -16  -5 16188.2 1588.84   2
  16 -12  -5 15932.1 1324.70   1
  16 -12  -5 14400.3 817.135   4
  16 -12  -5 16514.5 1396.85   2
  12 -16  -5 14522.4 1228.98   4
 -12  -4  -5 15704.2 1439.98   4
 -16   4  -5 16097.8 1372.60   4
  16 -12  -5 14528.1 1361.86   3
  16 -12  -2 8192.24 1161.53   3
  -4  16  -2 7241.14 912.430   1
  12 -16  -2 7650.75 855.166   3
 -12  -4  -2 7869.77 918.392   2
  12 -16  -2 7409.97 852.926   1
 -16   4  -2 7735.21 567.947   1
  16 -12  -2 8874.01 777.533   1
 -12  -4  -2 8102.77 924.047   1
   4  12  -2 6540.90 1115.44   1
  16 -12  -2 8460.43 670.944   4
  12 -16  -2 6817.40 853.542   4
  12 -16  -2 9023.56 1120.29   2
 -12  -4  -2 8042.15 876.795   4
 -16   4  -2 10293.2 892.529   4
  16 -12   1 30093.3 1262.79   4
  16 -12   1 33139.1 2025.81   3
  -4  16   1 32652.1 1369.74   3
  12 -16   1 30372.1 1770.56   3
  -4  16   1 32705.1 1603.42   1
 -12  -4   1 33422.2 1088.04   2
   4  12   1 30505.9 1597.03   1
   4  12   1 31791.5 1441.65   3
  12 -16   1 32019.1 1166.38   1
 -12  -4   1 30795.8 1127.61   4
   4  12   1 28662.2 1488.42   2
 -16   4   1 29985.4 1175.19   1
  16 -12   1 26914.6 504.899   1
   4  12   4 4439.26 680.846   3
  16 -12   4 5934.67 1336.27   3
  12 -16   4 4775.53 1125.08   3
  12 -16   4 4502.38 540.524   1
 -12  -4   4 5355.76 543.574   4
  16 -12   7 11445.6 1650.74   3
   4  12   7 8699.53 712.477   3
  12 -16   7 12668.0 1764.01   3
 -12  -4   7 8991.89 729.859   4
  16 -12  10 2180.22 1403.48   3
  12 -16  10 785.388 1386.05   3
  11 -16  -9 1590.10 1245.40   2
  11 -16  -9 1116.12 1048.33   4
 -11  -5  -9 1157.67 1222.86   2
 -16   5  -9 1681.23 1160.24   2
   5  11  -9 3534.24 1391.89   1
  -5  16  -9 1240.57 1049.55   1
 -16   5  -9 3240.29 787.504   1
  16 -11  -9 1566.26 710.074   4
  16 -11  -9 1064.30 988.158   2
  16 -11  -9 687.207 1094.24   1
 -11  -5  -9 2682.32 1225.47   4
 -16   5  -9 3701.85 1270.31   4
 -16   5  -6 2322.60 633.033   1
  11 -16  -6 2211.11 364.160   3
  11 -16  -6 2518.93 341.280   3
 -11  -5  -6 3134.57 1118.74   2
 -16   5  -6 3551.40 1100.73   2
   5  11  -6 2085.65 1075.00   1
  11 -16  -6 2123.52 789.509   4
  16 -11  -6 2664.43 513.941   4
  16 -11  -6 2720.22 994.266   2
  16 -11  -6 3873.66 989.067   1
 -11  -5  -6 3957.43 1033.97   4
  11 -16  -6 2519.76 1244.61   2
  -5  16  -6 3373.54 1024.77   1
 -16   5  -6 4804.42 1082.32   4
  16 -11  -3 5432.84 1047.76   3
 -16   5  -3 3972.30 433.303   1
 -11  -5  -3 5260.44 902.059   2
  16 -11  -3 3799.54 679.162   1
  11 -16  -3 4385.98 647.715   3
 -16   5  -3 2597.78 742.400   2
 -16   5  -3 3083.69 687.208   4
  16 -11  -3 2862.17 435.972   4
  16 -11  -3 3236.06 747.208   2
  -5  16  -3 3064.63 763.283   1
  11 -16  -3 3561.03 782.437   4
   5  11  -3 4431.74 915.364   1
 -11  -5  -3 2447.47 693.469   4
  11 -16  -3 2428.94 971.344   2
   5  11   0 230.874 719.890   1
  16 -11   0 799.376 338.821   1
  16 -11   0 1423.73 982.663   3
  11 -16   0 1382.69 562.387   1
   5  11   0 1270.12 617.617   2
  11 -16   0 199.141 654.040   4
  -5  16   0 792.232 603.860   3
  11 -16   0 1302.87 736.444   3
 -11  -5   0 1496.13 539.770   2
  11 -16   0 723.098 695.575   2
  -5  16   0 1401.03 641.567   1
   5  11   0 982.443 662.458   3
 -11  -5   0 1688.87 565.945   4
 -16   5   0 1761.33 439.856   1
  16 -11   0 1154.18 449.483   4
   5  11   3 9970.10 943.554   3
  11 -16   3 9465.92 685.502   1
  16 -11   3 10574.6 1417.05   3
  11 -16   3 9240.32 1214.65   3
   5  11   3 10032.5 1144.73   1
 -11  -5   3 7941.56 662.223   4
   5  11   6 1319.93 567.723   3
  16 -11   6 536.197 1201.53   3
  11 -16   6 2121.94 1133.61   3
 -11  -5   6 611.753 564.066   4
  11 -16   6 311.112 499.613   1
 -11  -5   6 892.902 467.754   4
  16 -11   9 5695.13 1606.99   3
  11 -16   9 6938.77 1616.20   3
  10 -16 -10 9439.70 1613.09   2
   6  10 -10 11668.3 1737.09   1
 -10  -6 -10 10015.6 1764.73   2
  -6  16 -10 10143.9 1472.34   1
 -16   6 -10 9656.86 1648.26   2
  16 -10 -10 7499.73 1213.38   2
  10 -16 -10 7408.64 1447.32   4
 -16   6 -10 8899.03 1047.36   1
 -10  -6 -10 11081.7 1672.64   4
  16 -10 -10 7787.65 1607.26   1
 -16   6 -10 9261.25 1555.93   4
 -16   6  -7 1316.98 557.015   1
  10 -16  -7 1338.93 914.213   4
 -10  -6  -7 782.363 1046.07   2
  16 -10  -7 2620.03 1072.78   1
 -16   6  -7 987.097 956.065   2
   6  10  -7 927.905 1086.71   1
 -16   6  -7 461.022 589.413   1
  10 -16  -7-1176.87 1153.01   2
  -6  16  -7 1629.11 920.176   1
 -10  -6  -7 950.447 973.419   4
  16 -10  -7 639.413 428.296   4
  16 -10  -7 1637.28 899.604   2
 -16   6  -7 204.965 869.750   4
  16 -10  -4 26529.1 1775.17   3
  10 -16  -4 24252.8 804.647   3
  16 -10  -4 24254.0 657.697   4
 -16   6  -4 26545.6 778.990   1
   6  10  -4 26630.9 1655.22   1
 -16   6  -4 27136.8 1511.64   4
  10 -16  -4 28256.9 1525.95   4
  16 -10  -4 29356.6 1490.18   1
  -6  16  -4 25435.6 1386.74   1
  10 -16  -4 28310.0 1841.90   2
 -10  -6  -4 27735.8 1738.36   2
 -16   6  -4 25609.5 1581.13   2
  16 -10  -4 28013.2 1433.05   2
 -10  -6  -4 27094.8 1584.77   4
  16 -10  -1 2411.78 469.035   1
  16 -10  -1 2486.90 1008.39   3
  -6  16  -1 2227.36 677.549   1
   6  10  -1 1550.26 524.604   2
 -10  -6  -1 933.849 595.092   2
  -6  16  -1 1549.76 702.947   3
  10 -16  -1 1922.00 623.676   3
 -10  -6  -1 1996.85 621.061   4
   6  10  -1 1320.03 741.988   3
   6  10  -1 1493.75 786.051   1
  10 -16  -1 899.393 806.466   2
  10 -16  -1 1663.93 709.760   4
 -16   6  -1 1676.13 356.863   1
  10 -16  -1 1420.97 568.629   1
  16 -10  -1 1871.29 393.601   4
  -6  16   2 13157.9 721.632   3
  16 -10   2 15081.8 1498.63   3
 -10  -6   2 15469.2 628.826   2
  10 -16   2 13231.6 1259.59   3
  10 -16   2 13379.1 864.566   1
 -10  -6   2 12790.6 838.941   4
  16 -10   2 12799.0 969.458   4
   6  10   2 15841.9 1206.36   1
  16 -10   5 8040.22 1486.32   3
   6  10   5 7880.29 894.886   3
  10 -16   5 5884.44 1218.75   3
 -10  -6   5 7646.65 755.170   4
  10 -16   5 8183.54 744.010   1
  16 -10   8 14618.1 1903.22   3
   6  10   8 13371.5 1090.48   3
  10 -16   8 14945.1 1890.11   3
   9 -16  -8 6907.10 1553.02   2
  16  -9  -8 6470.87 1024.01   2
  -7  16  -8 7767.30 1201.53   1
  -9  -7  -8 6525.98 1412.87   2
   7   9  -8 6528.89 1480.04   1
 -16   7  -8 7495.95 1334.16   2
 -16   7  -8 6937.85 789.270   1
   9 -16  -8 9878.28 1336.02   4
  16  -9  -8 9240.73 1364.47   1
  -9  -7  -8 8898.84 1462.39   4
 -16   7  -8 8660.69 1355.85   4
  16  -9  -5 29427.1 1492.85   2
  -9  -7  -5 28386.3 1888.42   2
  -9  -7  -5 27343.4 1701.77   4
   7   9  -5 31766.3 1842.36   1
   9 -16  -5 30283.9 2066.46   2
  -7  16  -5 29299.6 1445.19   1
  16  -9  -5 32837.9 1671.87   1
 -16   7  -5 25376.4 817.144   1
 -16   7  -5 32995.9 1752.36   4
   9 -16  -5 27782.3 1592.10   4
  16  -9  -2 26942.6 1796.62   3
  -9  -7  -2 26079.1 1473.55   2
   9 -16  -2 25284.9 1617.62   2
  -7  16  -2 24737.7 1221.35   1
  -7  16  -2 22827.6 1628.72   3
   9 -16  -2 25674.7 1102.77   3
  16  -9  -2 23413.6 698.138   4
   9 -16  -2 25295.9 1408.23   4
   7   9  -2 25770.2 1527.02   1
   7   9  -2 24432.3 894.577   2
 -16   7  -2 20494.5 546.640   1
  -9  -7  -2 23587.8 1294.29   4
  16  -9  -2 27585.3 1148.53   1
  16  -9  -2 23213.7 684.321   4
  16  -9   1 12048.8 1340.70   3
  -9  -7   1 14953.6 823.848   2
  -7  16   1 13570.2 951.068   3
   7   9   1 12685.9 1110.34   1
   9 -16   1 12891.2 1148.14   3
   9 -16   1 14634.9 976.518   1
  16  -9   1 12686.1 478.255   1
   7   9   1 14289.4 1143.30   2
  -9  -7   1 13224.3 926.702   4
  -7  16   1 14168.7 1105.08   1
  16  -9   1 13827.4 896.087   4
   7   9   4 6550.24 914.692   3
  16  -9   4 6650.15 1299.98   3
   9 -16   4 6026.61 1202.91   3
  -9  -7   4 6647.66 764.986   4
   9 -16   4 6198.29 740.617   1
   7   9   7 8959.65 1008.10   3
  16  -9   7 10095.8 1587.89   3
   9 -16   7 9513.21 1516.09   3
  16  -9  10 4518.12 1428.10   3
   9 -16  10 3108.97 1490.73   3
  16  -8  -9 2326.68 1269.24   1
   8 -16  -9 1928.15 1242.61   2
  16  -8  -9 892.656 754.153   2
  -8  -8  -9-446.388 1281.84   2
   8   8  -9 1513.39 1270.74   1
  -8  16  -9-893.844 964.184   1
   8 -16  -9 133.152 957.766   4
  -8  -8  -9 834.621 1036.98   4
 -16   8  -9-88.4335 603.702   1
 -16   8  -6 966.088 826.573   4
 -16   8  -6 1430.03 413.119   1
  -8  -8  -6-163.398 1016.72   2
   8   8  -6 2179.20 1035.75   1
   8 -16  -6 1872.21 889.784   4
  -8  -8  -6 2004.68 939.728   4
 -16   8  -6 742.930 336.080   1
  16  -8  -6 538.183 752.508   2
  16  -8  -6 1918.25 888.293   1
   8 -16  -6 3010.47 1351.99   2
  -8  16  -6-153.767 766.000   1
  -8  -8  -3 2465.86 792.322   2
  16  -8  -3 3419.60 705.507   1
   8 -16  -3 2171.55 308.942   3
  -8  -8  -3 2142.31 741.041   4
  16  -8  -3 1956.25 648.481   2
   8 -16  -3 3614.39 816.264   4
   8 -16  -3 3438.79 1092.02   2
   8   8  -3 2781.93 851.798   1
  -8  16  -3 2282.67 691.338   1
  -8  -8   0 14427.3 973.803   2
  16  -8   0 15778.5 1471.04   3
   8   8   0 13825.0 989.026   4
  16  -8   0 14764.5 713.888   1
  -8  16   0 15401.4 1165.42   3
   8 -16   0 14510.2 1024.13   1
   8 -16   0 13895.8 1080.89   3
  -8  16   0 14344.7 1018.34   1
  16  -8   0 14937.4 1060.19   2
   8 -16   0 17964.2 1234.56   4
   8 -16   0 15943.0 1243.16   2
  -8  -8   0 11616.0 964.474   4
   8   8   0 13769.5 996.084   2
  16  -8   0 15492.2 792.093   4
   8   8   0 12665.0 1121.44   1
  -8  -8   3 1911.46 254.290   2
   8   8   3 2744.99 728.696   3
  -8  -8   3 1912.47 585.443   4
   8 -16   3 3674.95 654.126   1
  16  -8   3 3239.98 1064.53   3
   8   8   3 4296.81 856.389   1
   8 -16   3 1925.82 810.033   3
   8   8   6 973.383 776.413   3
  16  -8   6 2788.39 1246.58   3
   8 -16   6 2976.54 1285.02   3
  16  -8   9-503.923 1111.53   3
   8   8   9 1268.42 832.774   3
   8 -16   9 1966.55 1414.27   3
  16  -7 -10 2114.93 1398.43   1
  -7  -9 -10 5036.90 1441.73   2
   9   7 -10 3751.39 1494.14   1
  -9  16 -10 3494.23 1083.97   1
   7 -16 -10 4439.44 1266.65   4
  -7  -9 -10 3485.88 1291.12   4
   7 -16 -10 3306.05 1434.06   2
  -7  -9  -7 8508.96 1414.32   2
   9   7  -7 11106.8 1495.78   1
  -9  16  -7 10544.0 1146.33   1
  16  -7  -7 11292.9 1402.26   1
 -16   9  -7 8463.69 675.864   1
 -16   9  -7 10813.9 696.926   1
   7 -16  -7 9758.21 1252.06   4
  -7  -9  -7 12131.5 1427.04   4
  16  -7  -7 8224.47 939.408   2
   7 -16  -7 9593.24 1590.34   2
  -7  -9  -4 8626.80 1207.38   2
  16  -7  -4 4143.79 707.058   2
   9   7  -4 7906.10 1179.24   1
  -9  16  -4 7050.57 810.575   1
   7 -16  -4 7255.45 1037.53   4
  16  -7  -4 5975.02 907.731   1
  -7  -9  -4 6280.95 979.551   4
   7 -16  -4 6467.11 1242.26   2
  16  -7  -1 12769.5 1400.86   3
   9   7  -1 12668.4 910.973   4
   7 -16  -1 13623.4 1022.42   1
  16  -7  -1 12440.7 780.753   1
  -9  16  -1 13804.4 1228.33   3
  -7  -9  -1 11925.2 1039.48   4
   9   7  -1 13344.6 1185.33   1
   9   7  -1 12941.6 828.251   2
   7 -16  -1 12781.2 915.399   3
   7 -16  -1 12879.7 1260.11   2
  16  -7  -1 12260.6 874.979   2
   7 -16  -1 12165.1 1084.07   4
  16  -7  -1 11795.1 570.447   4
  -7  -9  -1 11222.8 1013.88   2
  -9  16  -1 12847.8 883.169   1
   9   7   2 23548.2 1510.96   3
  -9  16   2 24964.6 1049.00   3
  16  -7   2 24153.8 1788.56   3
   7 -16   2 21713.7 1162.14   1
   7 -16   2 26018.5 1593.70   3
   9   7   2 25156.1 1384.05   1
  -7  -9   2 20003.0 1148.98   4
   9   7   2 21980.7 1391.87   2
  16  -7   2 24878.9 1235.80   4
  16  -7   2 21068.8 576.085   1
  -7  -9   2 24928.6 937.022   2
   9   7   5 23674.2 1596.45   3
  16  -7   5 22670.6 1914.45   3
   7 -16   5 28238.9 2024.72   3
  -7  -9   5 25912.8 1296.42   4
  16  -7   8 6611.67 1436.72   3
   9   7   8 5805.60 1011.45   3
   7 -16   8 5491.50 1427.05   3
  -6 -10  -8 14849.6 1812.72   2
  10   6  -8 18394.8 1764.85   1
 -10  16  -8 16949.1 1289.63   1
  16  -6  -8 13846.7 1059.78   2
   6 -16  -8 18525.2 1705.18   4
  16  -6  -8 20084.4 1829.01   1
  -6 -10  -8 16977.0 1769.76   4
 -16  10  -8 17801.2 936.615   1
   6 -16  -8 13747.5 1808.61   2
  10   6  -5 8299.49 1250.82   1
 -10  16  -5 7700.65 836.466   1
  16  -6  -5 8766.90 838.790   2
   6 -16  -5 8067.20 1079.70   4
  -6 -10  -5 6736.03 1202.89   2
  16  -6  -5 9424.65 1114.63   1
  -6 -10  -5 5962.71 1086.85   4
   6 -16  -5 9334.07 1431.00   2
  16  -6  -2 14675.4 1450.68   3
  10   6  -2 13929.5 643.443   2
   6 -16  -2 13772.3 717.472   3
  10   6  -2 13866.3 1208.72   1
   6 -16  -2 16001.2 1253.65   4
  -6 -10  -2 14225.7 1143.48   4
   6 -16  -2 15887.0 1393.90   2
 -10  16  -2 14055.7 870.148   1
  -6 -10  -2 14262.8 1191.79   2
  16  -6  -2 13867.2 935.621   1
  10   6   1 2058.55 722.432   2
  -6 -10   1 2133.55 576.649   2
  16  -6   1 2695.37 1029.91   3
 -10  16   1 2438.24 656.591   3
   6 -16   1 3341.60 756.891   1
  10   6   1 2773.06 796.097   1
  -6 -10   1 2335.44 715.083   4
   6 -16   1 2379.24 736.484   2
  16  -6   1 2418.49 487.726   1
  16  -6   1 2484.67 652.921   2
   6 -16   1 2388.01 740.702   3
   6 -16   1 2318.16 764.448   4
  10   6   1 2230.56 682.418   4
  16  -6   1 2255.55 534.961   4
  10   6   4 26779.2 1644.01   3
  16  -6   4 25829.3 1950.38   3
   6 -16   4 29289.9 1885.26   3
  10   6   4 26244.6 1463.43   1
  -6 -10   4 27145.6 1336.41   4
  -6 -10   4 22529.5 678.040   2
 -16  10   7 1340.20 410.435   4
  10   6   7 1312.70 857.838   3
  16  -6   7 2319.59 1209.56   3
   6 -16   7 1463.90 1278.12   3
  10   6  10 8598.05 1287.98   3
  16  -6  10 7154.91 1629.58   3
   6 -16  10 7068.96 1728.29   3
 -11  16  -9 8371.42 1082.79   1
  -5 -11  -9 6369.32 1450.96   2
  11   5  -9 6268.01 1438.29   1
  16  -5  -9 8941.90 1561.78   1
   5 -16  -9 8953.38 1434.98   4
  -5 -11  -9 5959.68 1348.64   4
 -16  11  -9 8476.71 827.004   1
   5 -16  -9 9856.96 1858.59   2
  16  -5  -6 307.487 544.956   2
 -11  16  -6 44.9679 665.472   1
  16  -5  -6 549.577 851.516   1
   5 -16  -6 86.3723 1250.00   2
  -5 -11  -6 33.0918 957.183   2
   5 -16  -6 581.729 846.473   4
  -5 -11  -6 55.4524 935.134   4
  11   5  -6 45.7985 944.224   1
 -16  11  -6 317.815 212.958   1
   5 -16  -3 9956.49 1105.90   4
 -11  16  -3 9452.55 742.336   1
  11   5  -3 8538.69 1134.87   1
  -5 -11  -3 11853.2 1159.17   4
   5 -16  -3 8953.38 1291.51   2
  -5 -11  -3 10819.2 1208.12   2
  16  -5  -3 8617.08 906.089   1
  11   5   0 2162.35 643.540   2
  16  -5   0 998.549 876.986   3
  11   5   0 1815.63 782.935   1
 -11  16   0 637.498 698.489   3
  16  -5   0-542.570 561.207   2
   5 -16   0 894.473 626.876   3
   5 -16   0 466.577 780.439   4
  -5 -11   0 1094.91 762.470   4
   5 -16   0 839.568 788.409   2
  11   5   0 945.391 610.611   4
  16  -5   0 1016.83 391.811   4
  -5 -11   0-77.6101 671.310   2
  16  -5   0-298.962 504.464   1
  11   5   3 3192.76 725.287   1
  -5 -11   3 2430.53 705.892   4
  11   5   3 2675.18 955.602   3
  16  -5   3 2832.67 1061.21   3
   5 -16   3 4731.43 1034.55   3
  -5 -11   3 3804.43 556.294   2
  -5 -11   6 2387.20 299.961   2
  11   5   6 3904.06 1049.93   3
  16  -5   6 3725.29 1174.90   3
   5 -16   6 3593.37 1273.70   3
  -5 -11   6 2114.90 306.551   2
  16  -5   9 2321.04 1269.85   3
  11   5   9 2507.07 1051.96   3
   5 -16   9 1240.69 1312.06   3
  16  -4 -10 1212.05 1207.92   1
  -4 -12 -10 273.787 1234.32   2
  12   4 -10-2079.50 1526.20   1
 -12  16 -10 868.218 843.400   1
   4 -16 -10 2070.69 1370.58   2
   4 -16 -10 1121.10 1202.07   4
  -4 -12 -10-1046.02 1155.07   4
  12   4  -7 9820.06 1391.90   1
 -16  12  -7 9489.15 593.963   1
  -4 -12  -7 9958.54 1430.45   4
 -16  12  -7 9124.64 609.284   1
 -12  16  -7 8853.47 919.240   1
  -4 -12  -7 10204.7 1575.38   2
   4 -16  -7 9689.55 1377.18   4
  16  -4  -7 9734.73 1321.67   1
   4 -16  -7 13234.2 1707.94   2
  16  -4  -7 7598.54 619.590   2
 -12  16  -4 3944.29 596.142   1
  -4 -12  -4 5380.29 1111.59   2
  12   4  -4 6790.07 1104.03   1
  16  -4  -4 5398.54 520.568   2
   4 -16  -4 5572.64 1236.20   2
  16  -4  -4 5087.65 603.557   2
   4 -16  -4 6256.97 962.073   4
  -4 -12  -4 4564.49 932.905   4
  16  -4  -4 6106.02 953.055   1
  16  -4  -1 36245.5 2119.62   3
 -12  16  -1 32639.2 1845.96   3
  16  -4  -1 35488.4 1335.98   1
  16  -4  -1 34382.4 1330.79   2
   4 -16  -1 33569.5 1288.71   3
  12   4  -1 34201.4 1595.65   1
  12   4  -1 35471.5 1248.29   4
   4 -16  -1 34562.4 1703.83   4
  16  -4  -1 33049.2 872.111   4
   4 -16  -1 34822.5 1765.48   2
  -4 -12  -1 33520.0 1616.95   4
  12   4  -1 35789.3 1238.91   2
  -4 -12  -1 35673.4 1640.59   2
 -12  16   2 7105.76 747.170   3
  16  -4   2 5512.47 1111.60   3
  16  -4   2 6951.87 609.922   1
  12   4   2 6971.11 903.584   1
   4 -16   2 6507.71 1004.22   3
   4 -16   2 5851.01 860.503   2
   4 -16   2 5920.03 864.062   4
  -4 -12   2 6445.94 887.691   4
  12   4   2 6732.34 1137.36   3
  -4 -12   2 7442.54 784.657   2
  16  -4   2 6490.05 784.886   4
  16  -4   5 14549.1 1653.19   3
  -4 -12   5 11985.4 615.765   2
   4 -16   5 12636.3 1516.98   3
  -4 -12   5 11883.6 674.354   2
  12   4   8 1054.47 982.678   3
  16  -4   8-123.956 1061.33   3
   4 -16   8 535.585 1325.92   3
  -4 -12   8 201.136 339.632   2
  -3 -13  -8 17321.4 2012.13   2
   3 -16  -8 14194.1 1615.87   4
   3 -16  -8 13295.5 1792.45   2
 -13  16  -8 15765.0 1140.33   1
 -16  13  -8 14283.8 825.476   1
  13   3  -8 15069.4 1743.24   1
  -3 -13  -8 14879.6 1669.93   4
  16  -3  -8 13876.4 1593.63   1
   3 -16  -5 4148.23 1360.82   2
  -3 -13  -5 4879.99 1290.26   2
  16  -3  -5 3652.45 970.511   1
  -3 -13  -5 4136.03 992.414   4
  16  -3  -5 2357.31 340.562   2
  13   3  -5 4884.66 1125.25   1
   3 -16  -5 4914.93 984.926   4
 -13  16  -5 4770.86 635.162   1
  16  -3  -5 2489.78 423.239   2
  16  -3  -2 45976.5 1683.14   1
   3 -16  -2 48819.3 2179.43   2
  16  -3  -2 45179.0 1357.41   2
  13   3  -2 47434.9 1840.93   1
  -3 -13  -2 44982.7 1903.26   4
   3 -16  -2 45297.6 1938.50   4
  13   3  -2 44119.3 1135.67   2
  -3 -13  -2 45628.4 1987.78   2
  13   3   1 3364.21 1003.26   3
  13   3   1 2448.45 774.650   1
 -13  16   1 2147.60 663.088   3
  16  -3   1 2293.78 1057.55   3
  13   3   1 1984.84 725.371   2
  16  -3   1 2356.08 630.075   2
   3 -16   1 2055.33 741.649   3
   3 -16   1 1665.01 791.559   4
  16  -3   1 2142.21 590.085   1
  13   3   1 1758.27 657.408   4
  -3 -13   1 1348.18 813.919   4
   3 -16   1 960.491 716.832   2
  16  -3   1 2325.01 559.871   4
  -3 -13   1 2511.66 705.320   2
  13   3   4 35488.3 2081.74   3
  16  -3   4 33040.3 2185.20   3
  -3 -13   4 33620.5 1199.04   2
   3 -16   4 33273.8 2019.96   3
   3 -16   4 36915.9 1605.51   2
  -3 -13   4 35197.4 1670.89   4
  -3 -13   7 4670.70 573.690   2
  13   3   7 8171.93 1398.72   3
  16  -3   7 3949.31 1365.12   3
   3 -16   7 8628.63 1593.82   3
  -3 -13   7 9329.49 1584.71   3
  -3 -13   7 5776.75 605.831   2
 -16  13   7 6031.80 735.297   4
  13   3  10 7875.19 1424.91   3
  16  -3  10 9106.25 1658.11   3
   3 -16  10 10314.0 1844.41   3
   2 -16  -9 5001.69 1278.56   4
   2 -16  -9 5590.20 1580.34   2
  -2 -14  -9 6048.09 1576.81   2
  16  -2  -9 6217.34 1511.01   1
 -14  16  -9 6012.20 952.917   1
  14   2  -9 6905.47 1555.10   1
  -2 -14  -9 4663.24 1269.77   4
   2 -16  -6 6597.43 1445.98   2
  -2 -14  -6 4695.36 1409.38   2
  16  -2  -6 4591.32 1171.57   1
 -14  16  -6 4624.90 629.380   1
   2 -16  -6 2635.60 980.955   4
  14   2  -6 4685.12 1155.93   1
  -2 -14  -6 3029.02 1109.36   4
  16  -2  -3 40572.7 1720.17   1
  16  -2  -3 36131.1 1070.49   2
  14   2  -3 37874.4 1811.43   1
 -14  16  -3 37122.6 950.402   1
   2 -16  -3 38085.0 1865.43   4
  -2 -14  -3 42767.4 2110.85   2
  -2 -14  -3 36907.4 1821.74   4
   2 -16  -3 40363.8 2141.83   2
  16  -2   0 6960.89 1245.38   3
 -14  16   0 6697.61 1050.34   3
  16  -2   0 6847.16 790.015   2
  16  -2   0 7517.80 825.918   1
   2 -16   0 8457.28 1093.89   4
  -2 -14   0 7807.56 1039.25   4
  14   2   0 7898.64 781.265   4
   2 -16   0 8522.66 1057.60   2
  16  -2   0 6448.56 641.296   4
  -2 -14   0 7204.20 955.161   2
  14   2   0 5868.05 908.909   1
  14   2   0 5618.88 749.892   2
  14   2   3 32415.6 2085.15   3
  14   2   3 32095.7 1493.35   1
  16  -2   3 29542.9 2094.07   3
  16  -2   3 31590.3 1250.99   1
   2 -16   3 32074.6 1502.49   2
  -2 -14   3 30226.1 1273.16   2
   2 -16   3 33405.4 1986.22   3
  -2 -14   3 32545.5 1631.55   4
   2 -16   3 28063.3 1543.37   4
  14   2   6 5803.38 1233.23   3
  16  -2   6 6797.46 1422.71   3
  -2 -14   6 5608.88 633.715   2
   2 -16   6 8709.57 1431.95   3
  -2 -14   6 6242.74 1347.04   3
  -2 -14   6 5990.71 698.955   2
  16  -2   9 5682.60 1397.47   3
  14   2   9 3624.20 1201.11   3
   2 -16   9 6203.56 1487.70   3
  -2 -14   9 5438.51 1626.86   3
  16  -1  -7 7383.22 1324.21   1
   1 -16  -7 6755.26 1478.05   2
  -1 -15  -7 7171.76 1523.83   2
  15   1  -7 8203.84 1406.95   1
 -16  15  -7 5450.40 543.230   1
 -15  16  -7 5398.68 676.068   1
   1 -16  -7 6460.13 1289.59   4
  -1 -15  -7 7162.35 1338.88   4
   1 -16  -4 2581.58 1144.56   2
  16  -1  -4 878.951 233.949   2
  16  -1  -4 1118.06 245.984   2
  16  -1  -4 2376.53 919.826   1
 -15  16  -4 1340.57 245.321   1
  15   1  -4 2683.62 914.511   1
   1 -16  -4 2164.20 959.091   4
  -1 -15  -4-825.891 1081.95   2
  -1 -15  -4 1023.72 811.079   4
  15   1  -1 14842.2 929.060   2
  16  -1  -1 14808.3 923.713   2
   1 -16  -1 15310.4 1295.02   4
  16  -1  -1 15104.3 1114.03   1
  15   1  -1 18880.4 1252.26   1
   1 -16  -1 13444.3 1313.02   2
  15   1  -1 16661.3 875.365   4
  16  -1  -1 16753.1 818.121   4
  -1 -15  -1 16206.1 1316.66   4
  -1 -15  -1 16488.1 1369.92   2
  15   1   2 3687.06 1105.18   3
  16  -1   2 3080.97 1035.12   3
  -1 -15   2 3851.15 851.023   4
   1 -16   2 4940.90 997.842   3
  -1 -15   2 2689.92 757.451   2
   1 -16   2 3844.97 889.609   4
  16  -1   2 2400.11 682.180   4
   1 -16   2 3625.14 786.501   2
  16  -1   2 2785.70 654.392   1
  15   1   2 2186.92 715.632   1
  -1 -15   5 2858.93 682.122   2
  15   1   5 3772.82 1158.36   3
  16  -1   5 2129.17 1078.23   3
   1 -16   5 3324.68 1145.74   3
  -1 -15   5 3090.97 1208.20   3
   1 -16   5 4222.57 824.961   2
  15   1   8 3105.69 1197.74   3
  16  -1   8 2011.21 1081.44   3
   1 -16   8 1226.08 1192.15   3
  -1 -15   8 2091.80 1242.84   3
  16   0  -8 30284.6 2196.57   1
 -16  16  -8 27376.9 1136.39   1
   0 -16  -8 28053.3 2090.81   4
   0 -16  -8 32688.6 2494.98   2
   0 -16  -5-1384.69 1169.09   2
  16   0  -5 1082.85 962.880   1
   0 -16  -5 1009.56 1005.03   4
  16   0  -2 27439.7 1073.34   2
  16   0  -2 29645.1 1535.88   1
   0 -16  -2 32801.1 1817.62   4
   0 -16  -2 32146.5 1878.16   2
 -16  16   1 61.8401 682.635   3
  16   0   1 167.174 999.856   3
   0 -16   1 338.426 848.796   4
  16   0   1 97.7297 652.035   2
  16   0   1 116.342 567.722   4
   0 -16   1-626.914 769.822   2
  16   0   1-688.928 668.705   1
  16   0   4 29213.6 2132.35   3
   0 -16   4 27024.2 1968.13   3
   0 -16   4 23987.1 1538.01   4
   0 -16   4 24632.7 1307.33   2
  16   0   7-232.382 1042.67   3
   0 -16   7 828.708 1150.20   3
   0 -16   7 447.469 677.344   2
  17 -17  -8 2839.23 945.966   3
  17 -17  -8 5366.58 1457.13   1
 -17   0  -8 4432.63 1376.46   2
  17 -17  -8 4758.50 1044.26   4
 -17   0  -8 3843.50 1310.96   4
   0  17  -8 3921.33 1466.87   1
  17 -17  -8 3384.65 1277.52   2
  17 -17  -5-48.2009 841.458   3
   0  17  -5-1525.95 1098.89   1
  17 -17  -5-224.571 719.409   4
 -17   0  -5 174.883 889.299   2
  17 -17  -5-1216.30 1045.72   2
 -17   0  -5 594.285 835.018   4
  17 -17  -2 16370.2 1162.07   4
  17 -17  -2 13121.1 1383.44   3
 -17   0  -2 10861.4 978.637   1
  17 -17  -2 13332.2 1318.61   2
 -17   0  -2 15598.9 1224.21   2
 -17   0  -2 15274.1 1114.55   4
  17 -17  -2 15662.3 1114.27   1
   0  17  -2 15322.9 1382.30   1
  17 -17   1-752.626 959.952   3
   0  17   1-473.818 686.979   3
  17 -17   1 325.501 416.570   1
   0  17   1-842.143 807.851   1
 -17   0   1-408.954 385.401   4
  17 -17   4 5182.02 1390.72   3
  17 -17   7-629.408 1306.04   3
  17 -16  -9 5743.60 1389.70   2
  16 -17  -9 7538.59 1484.95   2
 -16  -1  -9 6376.69 1502.13   2
 -17   1  -9 8124.28 1519.59   2
  16 -17  -9 11975.3 1940.01   1
  16 -17  -9 7507.60 1322.15   4
  17 -16  -9 5272.55 1535.58   1
  17 -16  -9 6836.47 1120.73   4
  -1  17  -9 6440.34 1523.95   1
   1  16  -9 6715.55 1494.47   1
 -16  -1  -9 9220.64 1588.51   4
 -17   1  -9 6409.27 1466.07   4
   1  16  -6 5895.16 1285.53   1
  -1  17  -6 4594.68 1335.07   1
  17 -16  -6 5283.25 1097.53   3
  16 -17  -6 3192.49 924.238   3
  17 -16  -6 5321.07 1273.38   2
  16 -17  -6 5379.23 992.624   4
 -16  -1  -6 5297.36 1166.31   2
 -17   1  -6 5819.76 1295.71   2
  17 -16  -6 6845.16 958.680   4
  16 -17  -6 3197.97 823.035   3
 -17   1  -6 7066.23 1252.32   4
  16 -17  -6 5462.50 1421.99   2
 -16  -1  -6 5074.31 1218.96   4
  17 -16  -3 30948.3 1859.18   3
  16 -17  -3 34819.3 1841.60   3
 -17   1  -3 30430.3 1326.45   1
 -16  -1  -3 36037.2 1838.51   2
 -17   1  -3 33457.1 1780.35   2
 -16  -1  -3 31132.3 1496.67   1
  16 -17  -3 35885.3 1991.20   2
  17 -16  -3 33487.3 1847.28   2
  17 -16  -3 31534.8 1407.02   4
   1  16  -3 32200.8 1821.48   1
  -1  17  -3 31683.8 1766.59   1
 -16  -1  -3 33162.3 1667.33   4
 -17   1  -3 32989.7 1630.57   4
  16 -17  -3 31789.8 1526.10   4
  17 -16   0 9504.35 1304.45   3
  16 -17   0 8494.30 1238.95   3
  16 -17   0 8468.72 679.002   1
  17 -16   0 8202.41 633.511   1
  -1  17   0 7068.32 988.754   3
   1  16   0 7637.20 1057.76   1
 -16  -1   0 8837.87 797.851   2
  -1  17   0 7419.31 1066.18   1
   1  16   0 4615.43 849.420   3
 -16  -1   0 7779.72 718.562   4
 -17   1   0 8625.48 691.030   4
 -17   1   0 7180.87 802.066   1
  17 -16   3 11322.1 1591.83   3
  16 -17   3 11756.1 1498.64   3
  -1  17   3 10549.9 655.340   3
   1  16   3 11981.4 786.157   3
  16 -17   3 9379.37 363.905   1
 -16  -1   3 9680.47 425.095   4
   1  16   3 14066.6 1403.93   1
  17 -16   6 6464.79 1481.59   3
  16 -17   6 6723.46 1466.13   3
  17 -16   9 11084.2 1926.94   3
  16 -17   9 11377.2 1990.04   3
  17 -15  -7 17734.6 1556.97   3
  15 -17  -7 17281.2 1266.42   3
  17 -15  -7 19355.1 1751.07   2
 -15  -2  -7 21268.8 1925.70   2
 -17   2  -7 21665.0 1954.87   2
   2  15  -7 21276.4 1877.79   1
  15 -17  -7 17396.4 1868.11   2
  -2  17  -7 20073.8 1719.92   1
  17 -15  -7 23562.1 1930.72   1
  15 -17  -7 22764.3 1560.31   4
  17 -15  -7 21439.6 1307.18   4
 -15  -2  -7 23058.5 1924.56   4
 -17   2  -7 27242.4 2057.47   4
  17 -15  -4 3234.31 1019.57   3
  15 -17  -4 3192.80 823.371   3
   2  15  -4 2824.10 1073.20   1
  15 -17  -4 4187.35 1207.18   2
  17 -15  -4 2874.37 686.076   4
  -2  17  -4 3787.82 1053.30   1
 -15  -2  -4 2256.96 841.980   2
 -17   2  -4 2723.90 913.584   2
 -15  -2  -4 1821.80 823.237   4
  15 -17  -4 4618.78 857.534   4
  17 -15  -4 3289.94 965.702   2
 -17   2  -4 2591.75 907.794   4
 -17   2  -4 3759.58 739.297   1
 -17   2  -1 8156.34 759.441   1
   2  15  -1 7703.26 1093.98   1
  15 -17  -1 10811.2 1020.46   4
  17 -15  -1 9164.00 1256.34   3
 -15  -2  -1 8241.15 822.568   4
  15 -17  -1 6276.77 1035.97   3
  17 -15  -1 8476.29 827.437   4
  -2  17  -1 5993.39 949.498   1
  -2  17  -1 7105.69 1051.56   3
  15 -17  -1 8004.75 1087.24   2
  15 -17  -1 8028.41 773.737   1
 -17   2  -1 9311.47 805.206   4
 -15  -2  -1 12038.4 1006.05   2
   2  15   2 5088.49 1008.76   1
  15 -17   2 7758.29 1374.11   3
  -2  17   2 6756.14 695.625   3
  15 -17   2 8161.28 570.132   1
 -15  -2   2 6544.84 520.980   4
   2  15   2 6171.79 776.956   3
  -2  17   2 6748.55 1038.20   1
  17 -15   5 19446.6 1893.53   3
  15 -17   5 21662.8 1985.78   3
   2  15   5 9553.54 423.916   3
 -15  -2   5 12510.9 481.756   4
 -15  -2   5 12364.8 490.459   4
  17 -15   8 933.384 1224.29   3
  15 -17   8 2392.02 1318.03   3
  14 -17  -8 6513.27 1550.80   2
 -14  -3  -8 9009.90 1494.10   2
 -17   3  -8 8089.22 1488.64   2
  17 -14  -8 7733.74 1418.53   1
   3  14  -8 5091.45 1359.58   1
  14 -17  -8 8094.81 1208.00   4
  17 -14  -8 10126.8 1487.05   2
  17 -14  -8 6645.94 923.810   4
 -14  -3  -8 7542.66 1376.11   4
  -3  17  -8 5908.26 1325.49   1
 -17   3  -8 8517.39 1457.04   4
   3  14  -5 2644.42 1126.98   1
  17 -14  -5 1420.97 882.861   3
  14 -17  -5 3026.17 774.880   3
  -3  17  -5 1415.97 918.188   1
 -17   3  -5 1716.05 666.418   1
 -14  -3  -5 1292.92 996.220   2
 -17   3  -5 2453.15 987.768   2
  17 -14  -5 1930.43 605.778   4
  17 -14  -5-467.087 938.919   2
  17 -14  -5 1479.70 876.013   1
  14 -17  -5 2653.23 867.388   4
  14 -17  -5 808.742 1188.06   2
 -14  -3  -5 3277.40 933.994   4
 -17   3  -5 1152.58 861.080   4
  17 -14  -2 6535.99 1094.82   3
 -17   3  -2 4944.12 612.496   1
  -3  17  -2 4577.08 918.346   1
  14 -17  -2 5495.15 903.129   4
  14 -17  -2 4424.34 877.794   3
  14 -17  -2 4521.01 775.008   1
 -14  -3  -2 5144.82 883.878   2
 -17   3  -2 5035.67 868.330   2
  17 -14  -2 5958.46 962.534   2
  17 -14  -2 4306.85 655.047   1
  17 -14  -2 4914.44 695.409   4
   3  14  -2 4973.24 1039.75   1
  14 -17  -2 4105.29 983.284   2
 -14  -3  -2 5347.94 803.301   4
 -17   3  -2 6677.20 794.389   4
  17 -14   1 7395.07 1208.12   3
  -3  17   1 6264.64 982.991   1
  14 -17   1 6367.35 1128.51   3
  -3  17   1 6698.81 790.138   3
 -14  -3   1 5463.34 572.106   2
   3  14   1 4231.82 767.600   3
 -14  -3   1 6043.92 614.273   4
   3  14   1 6348.74 984.519   1
  17 -14   1 4972.98 288.540   1
  14 -17   1 6727.01 677.062   1
 -17   3   1 5290.02 692.854   1
 -17   3   1 5456.43 421.858   4
  17 -14   1 5561.65 337.710   1
  17 -14   1 6254.72 717.288   4
  17 -14   4 9442.44 1445.39   3
  14 -17   4 7822.82 1370.17   3
   3  14   4 6818.94 705.111   3
   3  14   4 6209.50 581.388   3
  14 -17   4 6822.47 520.274   1
 -14  -3   4 6898.11 511.165   4
  17 -14   7 2531.89 1367.59   3
  14 -17   7 2527.06 1335.24   3
 -14  -3   7 2583.94 493.467   4
  13 -17  -9 4139.58 1419.13   2
   4  13  -9 5911.37 1463.92   1
 -13  -4  -9 4889.98 1348.72   2
 -17   4  -9 6899.06 1471.91   2
  -4  17  -9 6482.82 1366.94   1
  17 -13  -9 6513.66 1485.73   1
  17 -13  -9 7269.02 1330.67   2
  13 -17  -9 4071.11 1137.37   4
 -13  -4  -9 5584.90 1369.34   4
 -17   4  -9 7321.87 1454.94   4
  17 -13  -6 2352.21 1015.06   3
  -4  17  -6 2037.11 1028.39   1
  13 -17  -6 1832.12 554.751   3
 -13  -4  -6 2342.69 1007.07   2
  13 -17  -6-433.271 1192.28   2
  13 -17  -6 640.296 424.374   3
 -17   4  -6 2919.91 1055.07   2
 -17   4  -6 1747.03 661.338   1
  13 -17  -6 957.613 885.996   4
  17 -13  -6 3884.56 1072.47   1
   4  13  -6 1591.61 1200.29   1
  17 -13  -6 1403.67 968.923   2
  17 -13  -6 2039.22 577.640   4
 -13  -4  -6 361.730 1007.79   4
 -17   4  -6 2728.73 1042.22   4
  17 -13  -3 12391.0 1380.00   3
  13 -17  -3 10173.4 1033.24   4
  13 -17  -3 10229.3 976.294   3
 -17   4  -3 10808.3 703.969   1
 -13  -4  -3 9420.78 1095.02   2
  13 -17  -3 10944.5 1309.75   2
 -17   4  -3 10709.2 1100.62   2
   4  13  -3 12342.3 1310.96   1
  17 -13  -3 12072.1 999.751   1
  17 -13  -3 11155.7 767.912   4
  17 -13  -3 11537.0 1110.74   2
 -17   4  -3 11775.8 1043.11   4
 -13  -4  -3 9922.17 1032.46   4
  -4  17  -3 12559.5 1143.78   1
 -17   4   0 3103.00 520.953   1
   4  13   0 4740.08 761.584   2
  17 -13   0 4668.84 1104.03   3
  13 -17   0 4501.58 965.581   3
  13 -17   0 2634.57 579.165   1
  -4  17   0 5487.00 873.598   3
 -13  -4   0 4372.77 652.224   2
  -4  17   0 3792.75 828.240   1
   4  13   0 2799.03 835.019   1
   4  13   0 3466.22 788.804   3
  13 -17   0 3815.77 810.812   4
  17 -13   0 3857.09 421.693   1
 -13  -4   0 3567.10 632.487   4
 -17   4   0 3835.54 492.826   4
  13 -17   3 16807.3 791.218   1
   4  13   3 14666.0 1030.09   3
 -13  -4   3 16407.1 793.307   4
  17 -13   3 18915.9 1809.93   3
  13 -17   3 18661.7 1597.36   3
   4  13   3 19289.7 1492.61   1
   4  13   3 15386.5 956.211   3
   4  13   6 1506.28 452.698   3
  17 -13   6 3252.56 1470.58   3
  13 -17   6 2575.80 1143.45   3
 -13  -4   6 2732.22 550.737   4
 -13  -4   6 1188.10 427.270   4
  17 -13   9 3295.87 1461.40   3
  13 -17   9 5936.58 1610.62   3
 -17   5 -10 1434.60 1217.87   4
  12 -17 -10 1675.23 1332.87   2
  17 -12 -10 1901.33 1068.24   2
 -12  -5 -10 2187.88 1283.52   2
 -17   5 -10 3351.68 1294.77   2
   5  12 -10-147.599 1293.91   1
  -5  17 -10 2979.47 1196.19   1
 -17   5 -10 2922.21 861.156   1
  12 -17 -10 2466.53 1202.45   4
 -12  -5 -10 1971.79 1193.17   4
 -12  -5  -7 12507.5 1591.78   2
   5  12  -7 8511.68 1478.74   1
  17 -12  -7 14308.6 1465.93   2
 -17   5  -7 10607.7 1465.19   2
  -5  17  -7 12181.0 1361.47   1
  12 -17  -7 11767.9 1689.38   2
  17 -12  -7 13009.7 1526.52   1
 -17   5  -7 10836.1 1474.24   4
  12 -17  -7 12517.6 1330.54   4
 -12  -5  -7 12069.0 1515.55   4
  17 -12  -7 8793.30 750.282   4
   5  12  -4 7131.04 1214.05   1
  17 -12  -4 5514.72 541.442   4
 -17   5  -4 4969.22 547.908   1
 -12  -5  -4 4720.27 997.441   2
 -17   5  -4 6911.60 1077.74   2
  12 -17  -4 6313.15 1201.33   2
  17 -12  -4 6257.04 1164.94   3
  12 -17  -4 4021.63 620.395   3
  17 -12  -4 5075.89 903.716   1
  -5  17  -4 5744.86 977.017   1
  12 -17  -4 4417.05 911.313   4
  17 -12  -4 4912.58 974.172   2
 -12  -5  -4 4972.43 1029.81   4
 -17   5  -4 5369.12 908.047   4
  17 -12  -1 16378.9 1570.49   3
 -12  -5  -1 17127.8 1130.28   2
  12 -17  -1 15956.2 1226.23   3
  -5  17  -1 16844.0 1336.53   3
  -5  17  -1 14735.5 1151.68   1
  12 -17  -1 12842.9 957.822   1
  17 -12  -1 15639.7 797.086   1
   5  12  -1 15235.3 975.251   2
  12 -17  -1 16923.0 1368.41   2
  12 -17  -1 17018.4 1202.20   4
 -12  -5  -1 16131.2 1090.35   4
 -17   5  -1 14623.6 742.560   1
 -17   5  -1 17080.6 905.365   4
   5  12  -1 14409.1 1254.07   1
  -5  17   2 4456.02 554.835   3
 -17   5   2 4400.76 677.698   1
  17 -12   2 5773.78 1223.49   3
  12 -17   2 4246.46 630.606   1
  12 -17   2 5195.57 1066.92   3
 -12  -5   2 4226.85 408.513   2
   5  12   2 4353.68 929.945   1
 -12  -5   2 3575.09 564.924   4
   5  12   5 15870.7 1005.68   3
  17 -12   5 17861.5 1898.63   3
  12 -17   5 17458.7 1844.02   3
 -12  -5   5 17817.1 934.646   4
  12 -17   5 16484.9 898.315   1
  17 -12   8 3811.75 1417.54   3
   5  12   8 2611.59 587.896   3
  12 -17   8 4690.78 1475.32   3
  11 -17  -8 5579.15 1475.30   2
 -11  -6  -8 3598.95 1336.83   2
   6  11  -8 4834.66 1328.15   1
 -17   6  -8 3759.64 1239.49   2
 -17   6  -8 4288.79 758.809   1
  11 -17  -8 4942.34 1148.62   4
  -6  17  -8 5156.04 1193.45   1
  17 -11  -8 2329.11 1123.92   1
 -11  -6  -8 3952.86 1194.33   4
  17 -11  -8 3576.29 1051.74   2
  17 -11  -8 2287.29 537.364   4
 -17   6  -8 5251.94 1233.23   4
  11 -17  -5 14169.8 1673.51   2
   6  11  -5 13176.7 1473.82   1
 -17   6  -5 15052.7 1431.89   2
 -17   6  -5 13597.5 744.526   1
  17 -11  -5 16624.4 1362.20   1
  11 -17  -5 16372.3 1307.02   4
 -11  -6  -5 12924.6 1405.12   4
  17 -11  -5 11566.1 543.295   4
  17 -11  -5 15079.9 1252.20   2
 -11  -6  -5 18259.5 1606.24   2
  -6  17  -5 14912.3 1218.83   1
 -17   6  -5 15866.6 1381.56   4
  17 -11  -2 15369.4 1429.22   3
  11 -17  -2 12928.5 1268.20   2
 -11  -6  -2 17153.5 1213.13   2
  -6  17  -2 15565.5 1093.17   1
  11 -17  -2 16076.0 1048.84   3
  17 -11  -2 14692.0 727.242   4
  11 -17  -2 14828.3 1181.43   4
   6  11  -2 15085.9 1278.36   1
  17 -11  -2 15742.2 927.638   1
 -11  -6  -2 15089.3 1151.43   4
 -17   6  -2 13499.9 588.196   1
 -17   6  -2 17369.2 1041.26   4
  17 -11   1 17233.0 1630.00   3
   6  11   1 13648.3 1142.83   2
  -6  17   1 14878.2 1004.49   3
 -11  -6   1 15303.9 832.211   2
  11 -17   1 15396.0 1305.10   3
   6  11   1 12943.3 1174.83   1
  17 -11   1 12096.4 400.588   1
  11 -17   1 14341.6 935.251   1
  -6  17   1 14431.4 1127.21   1
 -17   6   1 15028.2 875.253   1
 -11  -6   1 13939.4 897.291   4
  17 -11   1 14784.9 952.910   4
   6  11   4 15047.5 1122.11   3
  17 -11   4 14698.7 1672.93   3
  11 -17   4 17124.9 1606.59   3
 -11  -6   4 14724.7 899.516   4
  11 -17   4 13945.9 847.732   1
  17 -11   7 2710.40 1401.39   3
   6  11   7 3224.78 708.883   3
  11 -17   7 2030.18 1215.61   3
 -11  -6   7 1890.19 663.991   4
  17 -11  10 1271.39 1457.64   3
  11 -17  10 8403.68 1729.54   3
  10 -17  -9-762.146 1280.10   2
  17 -10  -9 1306.49 892.798   2
 -10  -7  -9 3649.23 1358.07   2
 -17   7  -9 747.132 1115.75   2
   7  10  -9-714.576 1231.16   1
  -7  17  -9 759.931 1011.93   1
  10 -17  -9 709.677 999.437   4
 -17   7  -9 1155.69 633.548   1
 -10  -7  -9 557.456 1117.97   4
  17 -10  -9-83.5434 1094.90   1
 -17   7  -9 526.484 1109.69   4
  -7  17  -6 6776.09 1040.13   1
 -10  -7  -6 5532.43 1244.54   2
 -10  -7  -6 7249.50 1185.97   4
 -17   7  -6 6870.09 573.722   1
 -17   7  -6 5516.18 1212.43   2
   7  10  -6 8028.73 1343.48   1
 -17   7  -6 5807.16 598.560   1
  10 -17  -6 6274.01 1077.56   4
  17 -10  -6 6480.61 1023.27   2
  17 -10  -6 3101.04 293.072   4
  17 -10  -6 5636.97 1066.16   1
 -17   7  -6 5521.55 1131.49   4
  10 -17  -6 5196.65 1386.68   2
  17 -10  -3 168.541 844.088   3
   7  10  -3-359.794 859.660   1
 -17   7  -3 466.176 178.989   1
 -10  -7  -3 496.278 695.299   4
 -10  -7  -3 797.710 750.190   2
  17 -10  -3 302.874 213.073   4
  10 -17  -3 676.379 422.155   3
  17 -10  -3 66.5295 635.584   2
  10 -17  -3 783.886 741.263   4
  10 -17  -3 1126.39 985.214   2
  -7  17  -3-646.218 645.645   1
  17 -10  -3 109.913 166.386   4
  17 -10  -3-244.860 545.272   1
 -17   7  -3 792.122 594.830   4
  17 -10   0 6274.16 494.677   1
   7  10   0 5045.25 932.361   1
  17 -10   0 7395.99 1246.59   3
  10 -17   0 5749.58 974.245   2
  10 -17   0 6896.70 940.023   4
 -10  -7   0 6856.14 748.919   2
  -7  17   0 6321.32 878.435   3
  -7  17   0 8240.42 901.013   1
  10 -17   0 6028.05 871.819   3
   7  10   0 6313.62 927.617   3
 -17   7   0 6652.97 578.927   1
   7  10   0 5721.72 798.878   2
 -10  -7   0 7721.86 808.331   4
  17 -10   0 6906.01 651.417   4
  10 -17   0 5694.79 773.919   1
   7  10   3 754.122 664.124   3
   7  10   3 1372.82 798.009   1
  10 -17   3 1654.42 918.393   3
  10 -17   3 1182.05 557.467   1
  17 -10   3 345.060 919.991   3
 -10  -7   3 927.550 574.007   4
   7  10   6-502.799 682.101   3
  17 -10   6 1871.66 1177.76   3
  10 -17   6 1122.90 1107.54   3
 -10  -7   6 2116.33 698.979   4
 -10  -7   6 700.239 526.787   4
  17 -10   9 1112.59 1262.79   3
   7  10   9 1795.82 749.497   3
  10 -17   9 2119.52 1341.56   3
  17  -9 -10 5351.35 1551.08   1
   9 -17 -10 3047.08 1518.61   2
  -9  -8 -10 4571.67 1469.25   2
   8   9 -10 3887.30 1515.68   1
  -8  17 -10 3261.20 1115.44   1
   9 -17 -10 3534.61 1256.60   4
  -9  -8 -10 5117.25 1411.50   4
 -17   8  -7 4548.62 1137.79   4
   9 -17  -7 2424.86 1248.49   2
  -9  -8  -7 1756.02 1183.86   2
 -17   8  -7 2938.83 542.009   1
   8   9  -7 4609.17 1285.06   1
  -8  17  -7 3152.58 940.212   1
 -17   8  -7 3255.43 518.395   1
  17  -9  -7 4483.14 1000.12   2
  -9  -8  -7 4113.29 1190.53   4
   9 -17  -7 3170.40 1005.46   4
  17  -9  -7 3341.16 1061.09   1
  -9  -8  -4 13193.8 1416.46   2
   8   9  -4 13217.3 1372.98   1
  17  -9  -4 13400.3 1089.31   2
   9 -17  -4 16882.7 1307.48   4
   9 -17  -4 16135.0 1673.47   2
  17  -9  -4 14860.1 1181.13   1
  -9  -8  -4 12410.1 1264.97   4
  -8  17  -4 14391.8 1074.95   1
  17  -9  -1 23587.2 1763.32   3
  -9  -8  -1 24120.0 1319.33   2
  -8  17  -1 22855.9 1208.97   1
  -8  17  -1 21483.7 1485.59   3
   9 -17  -1 19956.2 1188.82   1
   9 -17  -1 22092.3 1231.16   3
   8   9  -1 22491.2 1035.99   2
   8   9  -1 21305.5 1203.70   4
   9 -17  -1 22668.1 1398.66   4
   9 -17  -1 26345.1 1603.57   2
  -9  -8  -1 21577.3 1239.45   4
  17  -9  -1 25177.4 996.904   1
   8   9  -1 21397.5 1470.63   1
  17  -9  -1 24667.0 863.719   4
  -8  17   2 17118.5 889.745   3
  -9  -8   2 17331.5 765.036   2
  17  -9   2 15568.0 1565.48   3
   9 -17   2 17007.3 1416.32   3
   9 -17   2 14517.2 995.109   1
   8   9   2 17755.5 1263.78   1
  -9  -8   2 15639.0 985.861   4
  17  -9   2 15816.9 1058.83   4
   8   9   5 17154.7 1314.89   3
  17  -9   5 18153.1 1908.07   3
   9 -17   5 15904.2 1696.55   3
  -9  -8   5 17786.8 1102.77   4
   9 -17   5 16429.4 1061.66   1
  17  -9   8-306.920 1178.61   3
   8   9   8 3071.75 823.541   3
   9 -17   8 2218.08 1311.55   3
  17  -8  -8 2903.14 1146.64   1
 -17   9  -8 1183.05 512.743   1
   8 -17  -8 1786.94 1349.14   2
  17  -8  -8 1021.19 752.241   2
  -8  -9  -8 1400.54 1134.92   2
   9   8  -8 1779.32 1203.18   1
   8 -17  -8 1765.88 1056.60   4
  -9  17  -8 1567.33 936.420   1
  -8  -9  -8 2119.86 1084.92   4
  -8  -9  -5 19890.6 1692.70   2
   9   8  -5 17997.9 1590.69   1
  -9  17  -5 20514.3 1247.36   1
  17  -8  -5 20416.9 1246.31   2
   8 -17  -5 19200.4 1457.21   4
  17  -8  -5 23831.3 1551.53   1
   8 -17  -5 20732.0 1875.39   2
  -8  -9  -5 18829.3 1548.58   4
  17  -8  -2 13412.3 1433.00   3
  -8  -9  -2 14916.1 1207.43   2
  -8  -9  -2 15270.0 1164.42   4
   8 -17  -2 15536.7 857.155   3
  -9  17  -2 14387.9 988.266   1
   9   8  -2 16074.6 1315.80   1
   9   8  -2 12723.4 678.342   2
   8 -17  -2 15106.3 1216.11   4
   8 -17  -2 15118.2 1374.07   2
  17  -8  -2 14073.1 926.628   1
  17  -8   1 21478.5 1760.47   3
  -9  17   1 23100.3 1228.97   3
   9   8   1 22366.4 1372.56   1
   8 -17   1 22575.6 1453.07   3
   8 -17   1 21338.9 1231.35   1
  17  -8   1 22321.8 745.091   1
   8 -17   1 19459.2 1282.63   4
   8 -17   1 22903.6 1435.34   2
  -8  -9   1 21159.5 1194.74   4
   9   8   1 21136.7 1329.83   2
  17  -8   1 20870.3 1062.37   4
  -8  -9   1 23117.5 1062.49   2
   9   8   4 13357.2 1275.89   3
  17  -8   4 11924.9 1637.25   3
   9   8   4 12524.9 1209.75   1
   8 -17   4 13159.6 1454.77   3
  -8  -9   4 13235.4 1047.55   4
   8 -17   4 11454.8 965.984   1
   9   8   7 2636.57 818.984   3
  17  -8   7 1829.54 1167.34   3
   8 -17   7 2061.82 1198.06   3
  17  -8  10 2688.11 1329.56   3
   8 -17  10 4495.41 1674.86   3
  17  -7  -9 4203.87 1427.08   1
   7 -17  -9 2029.93 1372.60   2
 -17  10  -9 2106.26 643.113   1
  -7 -10  -9 919.399 1340.05   2
  10   7  -9 2646.86 1376.42   1
 -10  17  -9 1855.19 968.886   1
   7 -17  -9-475.257 980.883   4
  -7 -10  -9 2421.90 1147.22   4
   7 -17  -6-503.014 1222.65   2
  17  -7  -6 1233.43 1024.06   1
 -10  17  -6 1604.75 785.959   1
  -7 -10  -6 2926.33 1241.95   2
 -17  10  -6 502.607 211.175   1
  10   7  -6 3025.08 1146.62   1
   7 -17  -6 2734.97 952.226   4
  -7 -10  -6 2547.09 1072.97   4
  17  -7  -6 1607.62 759.016   2
  17  -7  -3 125.057 610.429   1
  -7 -10  -3 987.935 799.490   2
   7 -17  -3 894.910 767.758   4
 -10  17  -3 1112.92 544.103   1
  -7 -10  -3 1974.77 809.390   4
   7 -17  -3 1343.82 1029.96   2
  10   7  -3 581.378 807.076   1
  17  -7   0 6801.50 1229.23   3
 -10  17   0 6722.38 904.339   3
  10   7   0 5496.73 984.118   1
  17  -7   0 6981.07 647.485   1
   7 -17   0 7574.10 910.720   3
  17  -7   0 5771.38 798.205   2
  10   7   0 5993.67 810.099   4
   7 -17   0 6327.54 989.272   2
  -7 -10   0 6631.25 892.045   4
  10   7   0 6997.29 849.663   2
   7 -17   0 6877.16 893.066   1
  17  -7   0 7598.55 630.165   4
   7 -17   0 7704.30 993.042   4
  -7 -10   0 7289.99 869.809   2
  10   7   3-13.3178 755.610   1
  -7 -10   3 348.533 669.366   4
  10   7   3 1716.14 867.049   3
  -7 -10   3 663.330 365.279   2
  17  -7   3 1063.31 992.361   3
   7 -17   3-177.110 852.721   3
   7 -17   3 1143.42 627.882   1
  10   7   6 4806.49 1001.40   3
  17  -7   6 4657.90 1421.54   3
   7 -17   6 4442.79 1360.64   3
  17  -7   9 542.318 1154.60   3
  10   7   9 1480.61 943.352   3
   7 -17   9 893.165 1216.40   3
  17  -6 -10 665.982 1281.38   1
   6 -17 -10 2291.20 1505.12   2
  -6 -11 -10 2297.86 1203.48   4
  -6 -11 -10 2495.60 1404.39   2
  11   6 -10 2315.68 1336.80   1
   6 -17 -10 4280.29 1263.00   4
 -11  17 -10 640.529 978.431   1
 -11  17  -7 3271.20 871.281   1
   6 -17  -7 1591.76 1373.41   2
  17  -6  -7 4178.31 729.378   2
 -17  11  -7 2726.10 387.875   1
  17  -6  -7 6281.87 1205.95   1
  -6 -11  -7 5461.14 1434.22   2
  11   6  -7 2256.08 1193.44   1
   6 -17  -7 3167.17 1049.61   4
  -6 -11  -7 3619.35 1128.68   4
 -17  11  -7 1692.29 358.545   1
  11   6  -4 16553.7 1473.65   1
  17  -6  -4 15062.4 939.266   2
   6 -17  -4 16052.0 1333.79   4
  -6 -11  -4 16367.6 1395.19   4
   6 -17  -4 17238.4 1677.65   2
  17  -6  -4 14908.0 1193.15   1
 -11  17  -4 17566.3 1016.36   1
  -6 -11  -4 19026.2 1627.76   2
  17  -6  -1 18977.6 1684.40   3
 -11  17  -1 18131.4 1465.19   3
  17  -6  -1 17032.1 654.933   4
  17  -6  -1 17582.0 964.842   1
   6 -17  -1 18664.1 1393.35   2
  17  -6  -1 17963.6 1060.29   2
   6 -17  -1 18462.7 1034.28   3
  11   6  -1 18060.9 1038.55   4
   6 -17  -1 18237.3 1337.09   4
  11   6  -1 18733.8 1325.47   1
  -6 -11  -1 18137.6 1261.43   4
  11   6  -1 17458.0 964.945   2
 -11  17  -1 18455.0 1020.70   1
  -6 -11  -1 18160.2 1245.25   2
  11   6   2 12414.3 1263.88   3
 -11  17   2 14315.0 933.168   3
  17  -6   2 13389.4 1538.69   3
   6 -17   2 13681.0 1331.90   3
  17  -6   2 13492.2 637.357   1
  11   6   2 13992.8 1172.79   1
   6 -17   2 14461.2 1167.65   4
  -6 -11   2 13785.6 1081.35   4
  -6 -11   2 14800.2 892.929   2
   6 -17   2 13173.5 1198.06   2
  17  -6   2 11435.3 916.453   4
  11   6   5 12101.2 1382.69   3
  17  -6   5 13361.8 1662.48   3
   6 -17   5 13640.5 1564.89   3
  -6 -11   5 14064.2 1190.40   4
  11   6   8 5865.91 1104.85   3
  17  -6   8 7353.12 1489.77   3
   6 -17   8 3368.01 1301.70   3
   5 -17  -8 5865.41 1542.60   2
 -17  12  -8 4045.49 556.699   1
  17  -5  -8 6221.37 1354.00   1
  17  -5  -8 2509.63 571.594   2
  -5 -12  -8 6976.05 1436.45   2
  12   5  -8 5157.61 1362.33   1
   5 -17  -8 8699.01 1378.30   4
  -5 -12  -8 2580.88 1157.59   4
 -12  17  -8 3779.86 865.401   1
  17  -5  -5 18451.5 963.081   2
   5 -17  -5 17386.0 1850.14   2
  12   5  -5 17339.4 1601.17   1
   5 -17  -5 17017.7 1453.74   4
  -5 -12  -5 14107.1 1378.61   4
  17  -5  -5 16428.6 1403.55   1
 -12  17  -5 15368.8 972.291   1
  -5 -12  -5 17763.5 1705.67   2
  17  -5  -2 5424.86 763.863   1
 -12  17  -2 5280.53 602.315   1
  17  -5  -2 4664.70 612.068   2
   5 -17  -2 7398.60 1172.96   2
  12   5  -2 5383.59 981.075   1
   5 -17  -2 6519.84 1078.01   4
  -5 -12  -2 6639.39 1012.34   4
  12   5  -2 5383.09 527.872   2
  -5 -12  -2 5428.56 964.582   2
 -12  17   1 13607.4 1090.09   3
  17  -5   1 12934.4 1489.19   3
  12   5   1 12436.5 1108.44   1
  17  -5   1 13655.1 818.662   1
   5 -17   1 12091.8 1121.70   3
   5 -17   1 11965.3 1128.61   4
  12   5   1 13724.1 1065.02   4
   5 -17   1 14234.5 1220.38   2
  17  -5   1 14079.9 903.069   4
  -5 -12   1 13503.2 1146.95   4
  -5 -12   1 15147.6 1045.73   2
  12   5   1 14367.6 1144.03   2
  12   5   4 5496.10 1137.18   3
  17  -5   4 3668.81 1238.58   3
  12   5   4 4472.93 847.192   1
   5 -17   4 3492.21 1087.33   3
  -5 -12   4 4391.92 843.134   4
  -5 -12   4 5084.39 583.541   2
  12   5   7 11501.0 1395.16   3
  17  -5   7 12741.4 1779.06   3
   5 -17   7 13819.2 1829.63   3
  17  -5  10 833.720 1301.45   3
  12   5  10 3714.27 1114.99   3
   5 -17  10 448.703 1304.83   3
   4 -17  -9 3772.72 1561.88   2
  17  -4  -9 4504.88 1439.01   1
  -4 -13  -9 3738.65 1414.12   2
  13   4  -9 5275.81 1511.42   1
 -13  17  -9 3707.95 923.934   1
   4 -17  -9 3011.22 1207.45   4
  -4 -13  -9 2831.81 1190.76   4
   4 -17  -6 5327.24 1438.89   2
  17  -4  -6 2419.31 456.538   2
  -4 -13  -6 4754.46 1249.60   2
  17  -4  -6 1732.12 989.954   1
   4 -17  -6 2516.04 993.056   4
 -13  17  -6 4728.39 781.688   1
  13   4  -6 2812.87 1188.44   1
  -4 -13  -6 3742.21 1090.62   4
  17  -4  -3 15900.0 865.645   2
  13   4  -3 17390.1 1382.90   1
  17  -4  -3 18963.8 1256.91   1
   4 -17  -3 17492.1 1402.94   4
  -4 -13  -3 16061.9 1318.05   4
   4 -17  -3 21060.0 1763.79   2
 -13  17  -3 17291.0 828.875   1
  -4 -13  -3 18499.3 1517.39   2
  17  -4   0 2573.72 1058.90   3
 -13  17   0 2554.87 806.014   3
   4 -17   0 3761.59 853.156   4
  17  -4   0 2887.84 511.013   4
  17  -4   0 3920.05 697.988   2
   4 -17   0 5250.77 834.915   3
  17  -4   0 4152.58 714.102   1
  -4 -13   0 3243.08 795.048   2
  -4 -13   0 3164.34 856.662   4
  13   4   0 4081.74 879.822   1
  13   4   0 4171.98 741.895   4
   4 -17   0 3715.42 948.301   2
  13   4   0 3871.95 709.884   2
  13   4   3 10154.7 1364.59   3
  13   4   3 10020.4 1042.48   1
  17  -4   3 8520.45 1363.57   3
   4 -17   3 11841.8 1345.44   3
  17  -4   3 12737.7 762.879   1
  -4 -13   3 10099.2 1099.08   4
   4 -17   3 10910.6 1055.53   2
  -4 -13   3 10308.4 827.331   2
  13   4   6 146.958 926.731   3
  17  -4   6 2025.74 1183.64   3
  -4 -13   6 987.518 351.166   2
   4 -17   6 2149.63 1213.70   3
  -4 -13   6 2217.84 468.266   2
  17  -4   9 7118.48 1603.43   3
  13   4   9 3078.05 1100.34   3
   4 -17   9 8053.58 1689.08   3
   3 -17  -7 5291.79 1521.34   2
  14   3  -7 7838.78 1468.72   1
  -3 -14  -7 3982.72 1371.83   2
 -14  17  -7 4614.20 744.486   1
  17  -3  -7 2286.13 1095.44   1
   3 -17  -7 3939.70 1178.88   4
  -3 -14  -7 5423.09 1258.29   4
  17  -3  -4 9204.47 1160.04   1
  -3 -14  -4 6011.77 1206.52   2
  14   3  -4 10490.1 1277.48   1
  17  -3  -4 7624.40 560.662   2
 -14  17  -4 7813.62 597.419   1
   3 -17  -4 9879.17 1215.18   4
  -3 -14  -4 9973.92 1212.85   4
   3 -17  -4 10033.9 1478.82   2
  17  -3  -4 8375.80 622.357   2
  17  -3  -1 7167.65 1285.20   3
  14   3  -1 5958.42 938.864   1
  17  -3  -1 5218.52 718.699   2
  17  -3  -1 6452.65 828.794   1
  17  -3  -1 6785.27 547.071   4
   3 -17  -1 8118.31 1081.45   4
  -3 -14  -1 8178.77 1064.22   4
  14   3  -1 6464.95 690.760   4
   3 -17  -1 7959.05 1191.69   2
  -3 -14  -1 8118.04 1068.19   2
  14   3  -1 7187.97 726.102   2
  14   3   2 3448.78 1111.56   3
  17  -3   2 5065.88 781.987   4
  17  -3   2 3765.61 1147.41   3
  17  -3   2 4760.01 663.189   1
   3 -17   2 5287.23 987.251   3
   3 -17   2 7718.06 1082.55   4
   3 -17   2 5249.03 944.608   2
  -3 -14   2 4568.33 933.936   4
  -3 -14   2 4239.99 772.176   2
  14   3   2 3625.65 782.134   1
  14   3   5 1215.36 1101.72   3
  17  -3   5 1244.60 1020.96   3
   3 -17   5 139.125 1020.94   3
  -3 -14   5 2008.83 484.123   2
  -3 -14   5 2972.40 901.443   4
  -3 -14   5 332.806 532.152   2
  14   3   8 5536.37 1260.80   3
  17  -3   8 7491.99 1568.99   3
   3 -17   8 5019.19 1469.49   3
  -3 -14   8 4590.47 580.051   2
 -15  17  -8 2760.49 707.905   1
   2 -17  -8 3080.99 1416.82   2
  -2 -15  -8 3954.35 1363.54   2
  17  -2  -8 409.599 1182.39   1
  15   2  -8 4734.80 1373.12   1
   2 -17  -8 2817.53 1246.72   4
  -2 -15  -8 3264.82 1193.28   4
  17  -2  -5 23965.8 1660.41   1
  15   2  -5 19766.7 1645.28   1
 -15  17  -5 18263.9 760.310   1
   2 -17  -5 18933.8 1569.30   4
  -2 -15  -5 22917.1 1710.59   4
   2 -17  -5 20239.2 1984.35   2
  -2 -15  -5 21327.8 1882.14   2
  17  -2  -2 8148.28 724.333   2
  -2 -15  -2 8065.96 1150.66   4
  17  -2  -2 8340.42 1003.67   1
  15   2  -2 7938.89 1098.34   1
   2 -17  -2 9096.78 1345.46   2
   2 -17  -2 8398.27 1127.23   4
  -2 -15  -2 6712.58 1108.70   2
  15   2  -2 6305.38 620.820   2
  15   2   1 6999.54 905.665   1
 -15  17   1 6787.77 961.435   3
  17  -2   1 9836.35 1438.78   3
  15   2   1 6477.67 1247.43   3
  -2 -15   1 7868.82 1066.08   4
  15   2   1 6431.61 853.202   4
   2 -17   1 8227.77 1075.89   3
   2 -17   1 7898.73 1079.78   4
   2 -17   1 6902.90 983.449   2
  17  -2   1 7350.16 806.489   4
  -2 -15   1 7306.96 992.072   2
  17  -2   1 6907.92 835.685   1
  15   2   1 6092.65 921.918   2
  15   2   4 1178.32 1121.10   3
  17  -2   4 1438.14 1159.54   3
   2 -17   4 3218.24 814.386   2
   2 -17   4 3238.76 1196.32   3
  -2 -15   4 3569.59 905.194   4
  15   2   4 3301.41 784.262   1
  -2 -15   4 2735.52 693.703   2
  15   2   7 18911.7 1853.41   3
  17  -2   7 19360.9 1995.39   3
   2 -17   7 22956.1 2070.90   3
  -2 -15   7 22217.5 2130.08   3
  -2 -15   7 20901.3 1052.28   2
   1 -17  -9 12951.2 2015.09   2
  17  -1  -9 13633.2 1871.01   1
  -1 -16  -9 18631.4 2268.56   2
  16   1  -9 13072.6 1837.16   1
   1 -17  -9 11280.5 1653.63   4
  -1 -16  -9 12330.3 1678.88   4
 -16  17  -6 6209.54 505.118   1
  17  -1  -6 10446.0 1432.13   1
   1 -17  -6 7260.30 1429.24   2
  16   1  -6 9756.31 1381.04   1
   1 -17  -6 8802.47 1325.89   4
  -1 -16  -6 9666.80 1337.15   4
  -1 -16  -6 10485.5 1705.06   2
  17  -1  -3 13864.5 753.723   2
  17  -1  -3 14730.7 1264.21   1
  16   1  -3 13723.8 1309.10   1
  -1 -16  -3 14174.5 1398.27   4
   1 -17  -3 16043.6 1631.20   2
  -1 -16  -3 14817.6 1535.03   2
  16   1  -3 11683.8 600.801   2
   1 -17  -3 13876.3 1422.57   4
  16   1   0 6683.08 1316.77   3
  16   1   0 7140.74 844.974   2
   1 -17   0 7862.33 1150.96   2
  17  -1   0 7492.45 1356.03   3
  17  -1   0 7680.46 886.077   2
  17  -1   0 8399.07 794.397   4
   1 -17   0 9305.55 1145.55   4
  17  -1   0 7549.46 915.992   1
  -1 -16   0 6757.41 1139.72   4
  -1 -16   0 7159.21 1087.86   2
  16   1   0 6919.25 795.219   4
  16   1   0 9325.28 1050.46   1
  16   1   3 27226.8 2098.83   3
  17  -1   3 25497.5 2174.79   3
  17  -1   3 31899.0 1404.54   1
   1 -17   3 31436.1 1550.15   2
   1 -17   3 28267.4 1688.35   4
   1 -17   3 33697.8 2001.66   3
  -1 -16   3 29580.7 1716.53   4
  -1 -16   3 31567.7 1447.45   2
  16   1   3 36082.2 1592.85   1
  16   1   6 4220.14 1337.75   3
  17  -1   6 4707.87 1305.51   3
  -1 -16   6 5113.49 700.450   2
   1 -17   6 6481.05 1409.53   3
  -1 -16   6 4208.61 1285.40   3
  -1 -16   6 4501.18 760.203   2
   1 -17   6 5378.87 865.377   2
  16   1   9 5870.07 1397.28   3
  17  -1   9 6913.23 1568.74   3
   1 -17   9 7899.42 1707.81   3
  -1 -16   9 4152.68 1496.29   3
   0 -17  -7-1236.90 1357.77   2
  17   0  -7 1704.70 1130.77   1
   0 -17  -7 1490.28 1011.64   4
 -17  17  -7-140.989 302.062   1
   0 -17  -4 2225.25 1126.41   2
  17   0  -4 5122.74 1129.49   1
   0 -17  -4 3498.39 998.799   4
  17   0  -1-148.423 810.127   1
  17   0  -1 123.138 560.238   2
  17   0  -1-184.046 507.448   4
   0 -17  -1-334.936 888.622   4
   0 -17  -1 13.1314 918.258   2
  17   0   2 10869.2 1611.66   3
   0 -17   2 15590.7 1329.34   4
  17   0   2 12175.5 1041.22   1
   0 -17   2 11754.1 1124.86   2
  17   0   5 612.670 1196.48   3
   0 -17   5-1503.18 1108.79   3
   0 -17   5 270.289 674.833   2
  17   0   8 3539.07 1261.86   3
   0 -17   8 1992.76 1339.54   3
   0 -17   8 3268.20 796.141   2
  18 -18  -9 697.961 1253.85   2
  18 -18  -9 1863.28 1535.90   1
 -18   0  -9-1272.44 1139.06   4
 -18   0  -9 1885.16 1280.91   2
   0  18  -9 2533.61 1372.86   1
  18 -18  -6 38998.9 2097.90   3
 -18   0  -6 40868.8 2371.54   2
  18 -18  -6 47079.3 1956.38   4
   0  18  -6 42174.3 2357.94   1
  18 -18  -6 39204.4 2351.78   2
 -18   0  -6 49021.1 2487.85   4
  18 -18  -3-1470.55 940.506   3
 -18   0  -3 1726.87 829.835   2
  18 -18  -3-749.561 973.956   2
  18 -18  -3 884.568 762.849   4
   0  18  -3-470.804 944.653   1
 -18   0  -3 577.662 734.696   4
  18 -18   0 26772.5 1942.76   3
  18 -18   0 24364.6 1024.64   1
   0  18   0 23088.0 1578.36   3
   0  18   0 24293.8 1669.82   1
 -18   0   0 23735.8 1091.99   4
  18 -18   3 227.102 1101.67   3
   0  18   3-114.498 456.009   3
   0  18   3 1273.99 898.385   1
  18 -18   6 22981.5 2213.11   3
  18 -18   9-349.764 1442.82   3
   1  17  -7 4891.13 1339.24   1
  18 -17  -7 7277.49 1246.20   3
  17 -18  -7 4263.48 937.374   3
 -18   1  -7 9274.93 1556.11   2
  -1  18  -7 8509.21 1457.70   1
 -17  -1  -7 7409.76 1447.51   2
  18 -17  -7 9875.72 1572.33   1
  18 -17  -7 8599.47 1083.81   4
 -18   1  -7 10062.9 1454.56   4
  17 -18  -7 8179.99 1190.36   4
  18 -17  -7 7643.58 1480.87   2
  17 -18  -7 7229.64 1494.85   2
 -17  -1  -7 6564.48 1375.41   4
  18 -17  -4 2725.48 1034.48   3
  17 -18  -4 2268.57 903.425   3
   1  17  -4 2088.61 1112.07   1
 -17  -1  -4 1456.21 825.249   2
  -1  18  -4 2563.09 1120.51   1
 -18   1  -4 2648.85 925.617   2
  18 -17  -4 1303.35 714.469   4
  17 -18  -4 2298.04 798.862   4
  18 -17  -4-468.989 1072.58   2
  17 -18  -4 1518.58 1105.42   2
 -18   1  -4 1384.26 731.625   1
 -17  -1  -4 2314.77 907.812   4
 -18   1  -4 1869.17 953.672   4
 -18   1  -1 14486.2 1027.61   1
  18 -17  -1 19353.9 1702.25   3
  17 -18  -1 19915.9 1635.77   3
   1  17  -1 17655.3 1452.99   1
  -1  18  -1 16545.6 1423.47   1
  18 -17  -1 17825.5 1014.51   1
 -17  -1  -1 18156.2 1211.27   2
 -18   1  -1 19290.7 1215.99   2
  17 -18  -1 16496.6 1447.02   2
  17 -18  -1 20086.5 1311.26   4
  17 -18  -1 16528.8 1006.56   1
  18 -17  -1 19128.4 1254.09   4
 -17  -1  -1 19308.4 1142.62   4
 -18   1  -1 18513.2 1072.57   4
  17 -18   2 3342.80 409.237   1
   1  17   2 3326.31 978.740   1
  18 -17   2 2533.50 1168.73   3
  17 -18   2 2631.15 1094.02   3
  -1  18   2 3852.48 683.132   3
   1  17   2 1976.95 637.654   3
  -1  18   2 5906.69 1069.93   1
 -17  -1   2 3572.45 438.977   4
 -18   1   2 2808.13 308.768   4
  18 -17   5 11890.8 1736.64   3
  17 -18   5 12805.2 1743.47   3
  18 -17   8 11414.4 1889.92   3
  17 -18   8 10089.3 1756.87   3
  18 -16  -8 3479.17 1085.81   3
  16 -18  -8 4481.50 1136.85   4
 -16  -2  -8 393.771 1124.98   2
 -18   2  -8 1939.86 1180.67   2
  18 -16  -8 3731.33 1395.54   1
   2  16  -8 2651.09 1318.83   1
  18 -16  -8 4844.48 975.975   4
 -16  -2  -8 2624.26 1207.24   4
 -18   2  -8 2732.31 1230.76   4
  18 -16  -8 4381.99 1274.74   2
  -2  18  -8 2323.49 1281.46   1
  16 -18  -8-256.979 1247.62   2
  16 -18  -5 6287.28 1013.05   3
 -18   2  -5 4395.48 835.436   1
  18 -16  -5 4661.35 1092.17   3
   2  16  -5 6030.99 1359.19   1
  -2  18  -5 6267.39 1186.17   1
 -18   2  -5 7430.66 1165.48   2
 -16  -2  -5 4159.10 1113.57   2
  18 -16  -5 6772.94 1188.32   1
  16 -18  -5 7583.67 1046.19   4
  18 -16  -5 5967.36 842.038   4
 -16  -2  -5 6448.28 1158.83   4
  16 -18  -5 5975.74 1328.33   2
 -18   2  -5 6540.15 1150.98   4
  18 -16  -5 4867.00 1162.42   2
  16 -18  -2 11830.9 1121.23   4
  -2  18  -2 10583.0 1182.89   1
  18 -16  -2 9697.25 1268.22   3
 -18   2  -2 10452.1 842.192   1
  16 -18  -2 11396.1 1273.08   3
  18 -16  -2 12634.6 1039.46   4
 -16  -2  -2 12705.1 1155.20   2
 -18   2  -2 12586.7 1149.26   2
   2  16  -2 8814.55 1239.60   1
  18 -16  -2 12450.2 1319.15   2
  16 -18  -2 12212.4 1301.83   2
 -16  -2  -2 12887.0 1067.80   4
 -18   2  -2 10867.5 981.879   4
  18 -16   1 3263.67 1063.15   3
  16 -18   1 2609.55 1023.44   3
   2  16   1 1910.78 981.942   1
  -2  18   1 1118.72 713.961   3
  16 -18   1 1636.21 534.037   1
   2  16   1 2411.88 762.573   3
  18 -16   1 874.978 298.719   1
  -2  18   1 1583.52 817.734   1
 -16  -2   1 1867.93 483.466   4
  18 -16   1 1414.78 256.271   1
 -18   2   1 2138.22 397.097   4
   2  16   4 723.327 422.983   3
  18 -16   4 766.892 1109.21   3
  16 -18   4 583.757 980.264   3
   2  16   4 256.080 376.898   3
 -16  -2   4 115.940 202.221   4
  16 -18   4 283.966 232.199   1
  18 -16   7 1688.98 1272.36   3
  16 -18   7 1418.01 1339.17   3
  18 -15  -9 1067.18 992.419   3
  15 -18  -9 1961.59 1301.42   2
  18 -15  -9-1209.54 1153.96   2
 -15  -3  -9-372.533 1286.94   2
 -18   3  -9 2543.35 1318.04   2
   3  15  -9 2987.10 1382.72   1
  18 -15  -9 1489.22 1241.77   1
  15 -18  -9 1133.00 1082.12   4
  -3  18  -9-646.990 1170.86   1
 -15  -3  -9 1481.98 1151.28   4
 -18   3  -9 60.0065 1126.85   4
  18 -15  -6 12661.0 1428.00   3
  15 -18  -6 10574.2 1008.99   3
 -15  -3  -6 12003.8 1514.79   2
 -18   3  -6 13473.6 1483.61   2
   3  15  -6 13917.0 1580.02   1
  -3  18  -6 11964.1 1405.41   1
  18 -15  -6 14405.9 1497.47   1
 -18   3  -6 9800.66 1009.84   1
  18 -15  -6 10118.2 1370.58   2
  15 -18  -6 11173.1 1219.18   4
  15 -18  -6 9874.90 1558.09   2
  18 -15  -6 13368.5 1021.83   4
 -15  -3  -6 13260.9 1487.29   4
 -18   3  -6 12690.4 1449.09   4
  18 -15  -3 4516.81 1090.39   3
  15 -18  -3 3202.41 830.424   3
  15 -18  -3 3828.03 1144.94   2
 -15  -3  -3 4786.17 947.729   2
  18 -15  -3 3943.56 1023.93   2
   3  15  -3 5196.03 1101.51   1
  18 -15  -3 4066.37 712.965   4
 -18   3  -3 4894.08 945.745   2
 -18   3  -3 3209.33 615.239   1
  15 -18  -3 4488.20 911.058   4
  18 -15  -3 4402.55 795.483   1
 -15  -3  -3 4856.46 914.660   4
  -3  18  -3 3623.71 941.885   1
 -18   3  -3 4090.91 817.704   4
  18 -15   0 32425.8 1011.19   1
  18 -15   0 28759.7 1976.96   3
  15 -18   0 29890.4 1196.68   1
  18 -15   0 29647.7 908.958   1
 -15  -3   0 28375.0 1222.23   4
  15 -18   0 30352.7 1914.74   3
   3  15   0 29250.1 1687.26   1
  -3  18   0 26470.9 1597.08   3
 -15  -3   0 29614.4 1295.29   2
   3  15   0 24454.2 1520.72   3
  15 -18   0 27479.5 1472.04   4
  -3  18   0 25972.1 1599.47   1
 -18   3   0 25661.8 1176.62   1
 -18   3   0 31023.2 1106.38   4
   3  15   3 710.546 580.657   3
   3  15   3 763.992 947.788   1
  15 -18   3 1068.28 393.672   1
  -3  18   3 766.404 262.933   3
  18 -15   3 1077.19 1028.82   3
  15 -18   3 13.8052 964.878   3
   3  15   3 306.156 501.767   3
 -15  -3   3 1584.40 407.785   4
  18 -15   6 13012.6 1796.02   3
  15 -18   6 13231.8 1799.70   3
 -15  -3   6 11019.9 596.843   4
 -15  -3   6 9274.92 524.446   4
  18 -15   9-267.854 1348.76   3
  15 -18   9-278.369 1430.78   3
  18 -14  -7 2240.24 992.173   3
  -4  18  -7 5849.61 1242.74   1
  14 -18  -7 2218.06 527.374   3
 -14  -4  -7 5509.89 1322.56   2
 -18   4  -7 4568.30 1260.58   2
  14 -18  -7 5607.43 1122.93   4
  18 -14  -7 6137.11 1263.86   1
  18 -14  -7 5105.10 754.469   4
   4  14  -7 3540.40 1346.62   1
 -14  -4  -7 5961.31 1265.32   4
  18 -14  -7 1976.55 1058.19   2
  14 -18  -7 7475.56 1615.41   2
 -18   4  -7 4456.27 1245.46   4
  18 -14  -4 8153.41 1254.00   3
  18 -14  -4 7202.84 945.729   1
  14 -18  -4 7815.84 914.127   3
 -14  -4  -4 8917.88 1244.35   2
 -18   4  -4 6456.18 681.826   1
 -18   4  -4 7654.58 1190.05   2
   4  14  -4 7496.12 1249.64   1
  14 -18  -4 8465.30 1334.49   2
  18 -14  -4 6883.38 710.419   4
  14 -18  -4 6337.21 972.049   4
  -4  18  -4 8371.04 1157.87   1
  18 -14  -4 6110.35 1061.01   2
 -14  -4  -4 6363.54 1039.15   4
 -18   4  -4 9459.71 1117.62   4
   4  14  -1 3337.80 1001.07   1
  18 -14  -1 3345.53 539.106   1
  14 -18  -1 3466.14 686.035   1
 -18   4  -1 2373.26 501.449   1
  18 -14  -1 3040.58 1014.68   3
  14 -18  -1 2438.59 886.235   2
  14 -18  -1 2335.76 824.389   3
  -4  18  -1 2892.39 901.391   3
 -14  -4  -1 3808.49 735.305   2
  14 -18  -1 1886.91 746.041   4
   4  14  -1 308.469 569.796   2
 -14  -4  -1 2868.82 662.255   4
 -18   4  -1 3649.82 620.538   4
  -4  18  -1 2402.35 815.335   1
  18 -14   2 18904.7 1761.98   3
  -4  18   2 18882.4 979.598   3
  14 -18   2 18649.9 1653.12   3
  14 -18   2 19301.8 944.030   1
  -4  18   2 22239.0 1522.88   1
   4  14   2 17571.1 1142.57   3
 -14  -4   2 18664.5 891.825   4
   4  14   2 18620.1 1432.00   1
 -14  -4   5 2498.28 496.843   4
   4  14   5 3388.91 585.977   3
  18 -14   5 2346.87 1249.64   3
  14 -18   5 3172.05 519.014   1
  14 -18   5 1793.35 1285.59   3
 -14  -4   5 2162.93 421.630   4
  18 -14   8 5086.73 1441.31   3
  14 -18   8 7278.00 1764.03   3
 -14  -4   8 5467.83 663.170   4
  18 -13  -8 6947.67 1218.11   2
 -13  -5  -8 8077.63 1600.77   2
   5  13  -8 11154.7 1628.23   1
  -5  18  -8 8853.30 1327.73   1
 -18   5  -8 9916.41 1492.93   2
  18 -13  -8 10979.0 1580.71   1
  13 -18  -8 8166.29 1319.92   4
 -13  -5  -8 11060.6 1517.72   4
  13 -18  -8 11351.9 1697.48   2
  18 -13  -8 7234.08 766.843   4
 -18   5  -8 9591.01 1448.73   4
  18 -13  -5 4317.06 1171.28   3
  13 -18  -5 2809.94 546.512   3
  -5  18  -5 4609.13 1028.56   1
 -13  -5  -5 2962.98 1125.15   2
 -18   5  -5 4437.17 1028.35   2
  18 -13  -5 3578.41 525.082   4
  13 -18  -5 4287.55 972.687   4
  18 -13  -5 3584.53 972.261   2
  18 -13  -5 3318.19 957.480   1
  13 -18  -5 5649.42 1455.53   2
 -13  -5  -5 3754.71 947.653   4
   5  13  -5 4637.25 1204.70   1
 -18   5  -5 2783.41 925.666   4
 -18   5  -5 3578.04 638.990   1
  18 -13  -2 29469.6 1962.96   3
  -5  18  -2 26095.9 1479.46   1
  13 -18  -2 28023.9 1513.28   3
 -13  -5  -2 28308.8 1522.89   2
  18 -13  -2 25828.2 1087.78   4
  13 -18  -2 29094.2 1534.16   4
  13 -18  -2 25700.1 1675.06   2
  18 -13  -2 26326.4 1177.49   1
   5  13  -2 28159.2 1708.48   1
 -13  -5  -2 26531.0 1447.85   4
 -18   5  -2 26169.6 918.054   1
 -18   5  -2 30327.1 1357.89   4
 -13  -5   1 7665.85 725.637   4
  18 -13   1 10335.6 1388.02   3
  18 -13   1 5284.73 266.903   1
  -5  18   1 8350.89 874.090   3
  13 -18   1 7128.90 1152.64   3
 -13  -5   1 9448.91 716.300   2
  18 -13   1 5244.28 262.201   1
 -18   5   1 6755.97 705.498   1
  -5  18   1 8933.10 1007.86   1
   5  13   1 8735.20 1151.22   1
   5  13   1 7442.92 928.429   3
  13 -18   1 7095.61 741.091   1
  18 -13   1 7211.27 801.664   4
   5  13   4 11775.9 1039.31   3
  18 -13   4 14295.8 1719.44   3
  13 -18   4 13204.8 1585.73   3
 -13  -5   4 11810.4 768.195   4
  13 -18   4 12186.4 772.651   1
 -13  -5   7 1984.91 586.271   4
  18 -13   7 4429.57 1401.43   3
   5  13   7 1625.77 527.435   3
  13 -18   7 2243.75 1277.04   3
  12 -18  -9 685.637 1252.33   2
  18 -12  -9 3710.77 1171.25   2
   6  12  -9 684.090 1211.70   1
 -12  -6  -9 1119.59 1201.91   2
 -18   6  -9 3345.91 1330.64   2
 -18   6  -9 1815.63 678.671   1
  12 -18  -9 2960.90 1180.50   4
  -6  18  -9 2764.34 1133.70   1
  18 -12  -9 3199.28 1314.30   1
 -12  -6  -9 2052.40 1262.37   4
 -18   6  -9 2247.81 1234.19   4
 -12  -6  -6 19451.3 1753.82   2
   6  12  -6 19285.1 1746.50   1
 -18   6  -6 15588.9 1498.48   2
  12 -18  -6 14023.3 1362.84   4
  -6  18  -6 19541.2 1493.65   1
 -18   6  -6 14559.9 885.822   1
  18 -12  -6 19183.8 1558.01   1
  18 -12  -6 18581.5 1518.88   2
  12 -18  -6 17305.2 1832.67   2
 -12  -6  -6 15661.0 1549.95   4
 -18   6  -6 18282.1 1532.60   4
  -6  18  -3 4585.01 865.612   1
  18 -12  -3 3282.58 1164.53   3
  12 -18  -3 4350.58 686.282   3
   6  12  -3 4974.22 1097.37   1
 -12  -6  -3 4952.22 955.406   2
  18 -12  -3 5570.09 966.718   2
  12 -18  -3 5534.77 961.450   4
  18 -12  -3 4799.93 511.852   4
 -12  -6  -3 5049.18 940.926   4
  12 -18  -3 3547.27 1126.78   2
  18 -12  -3 3930.26 706.845   1
 -18   6  -3 3697.81 401.273   1
 -18   6  -3 6106.65 868.156   4
  18 -12   0 14680.1 1509.98   3
   6  12   0 13839.7 1267.37   1
   6  12   0 15005.8 1091.45   2
  -6  18   0 15399.2 1233.69   3
 -12  -6   0 15751.8 1009.11   2
  12 -18   0 12536.5 1171.27   3
  12 -18   0 15846.1 1214.26   4
 -18   6   0 13458.6 793.881   1
  12 -18   0 11880.1 1277.48   2
 -12  -6   0 13444.1 960.371   4
  18 -12   0 15974.7 680.888   1
  18 -12   0 14702.3 895.569   4
  12 -18   0 15227.3 1038.48   1
  -6  18   0 15814.3 1228.12   1
   6  12   3 1716.28 724.432   3
  18 -12   3 4006.30 1195.91   3
  12 -18   3 1746.96 1015.81   3
  12 -18   3 1601.86 542.528   1
   6  12   3 3406.30 967.283   1
 -12  -6   3 2017.05 572.302   4
   6  12   6 1216.89 611.071   3
  18 -12   6 2315.72 1204.92   3
  12 -18   6 747.423 554.676   1
  12 -18   6 1897.86 1237.89   3
 -12  -6   6 1547.05 610.555   4
 -12  -6   6 1684.50 521.282   4
  18 -12   9 5511.34 1579.26   3
  12 -18   9 5935.11 1648.29   3
 -11  -7  -7 8549.78 1493.03   2
   7  11  -7 7272.32 1483.09   1
  -7  18  -7 7920.91 1196.76   1
 -18   7  -7 6689.42 1273.88   2
 -18   7  -7 6678.84 637.857   1
  18 -11  -7 8468.41 1335.63   1
  18 -11  -7 8787.39 1193.99   2
  11 -18  -7 5835.75 1135.16   4
 -11  -7  -7 8581.90 1482.31   4
 -18   7  -7 7625.56 1263.04   4
  11 -18  -7 6849.78 1485.25   2
  18 -11  -4 28309.9 1971.07   3
 -11  -7  -4 30675.5 1849.34   2
  11 -18  -4 27984.1 1627.50   4
  11 -18  -4 28322.9 2030.26   2
  11 -18  -4 22596.1 784.902   3
   7  11  -4 26310.4 1831.28   1
  18 -11  -4 28190.7 1522.68   1
 -11  -7  -4 28674.3 1752.50   4
  -7  18  -4 29404.9 1528.83   1
  18 -11  -4 30767.1 1597.02   2
 -18   7  -4 31740.3 1651.88   4
  18 -11  -1 10596.4 1409.15   3
 -11  -7  -1 8733.96 921.274   2
  -7  18  -1 8227.79 1104.55   3
  11 -18  -1 6687.94 807.187   1
  11 -18  -1 8341.73 933.235   3
  11 -18  -1 8114.08 1021.27   4
   7  11  -1 8065.85 773.476   2
 -11  -7  -1 7630.49 857.786   4
  18 -11  -1 7909.17 640.781   1
 -18   7  -1 7999.35 560.500   1
  -7  18  -1 7525.18 901.199   1
  11 -18  -1 8253.38 1134.96   2
   7  11  -1 8007.72 1083.45   1
  18 -11  -1 8555.14 630.530   4
  -7  18   2 26601.4 1087.27   3
  18 -11   2 28999.1 2069.13   3
 -11  -7   2 26529.7 880.941   2
  11 -18   2 27017.7 1783.66   3
  11 -18   2 24269.7 1146.74   1
 -11  -7   2 28082.0 1217.80   4
   7  11   2 28126.9 1634.21   1
   7  11   5 2917.84 789.365   3
  18 -11   5 3836.47 1263.30   3
  11 -18   5 4734.85 1358.94   3
 -11  -7   5 4009.89 733.851   4
  11 -18   5 4708.21 694.867   1
   7  11   8 8218.48 986.234   3
  18 -11   8 8891.30 1676.30   3
  11 -18   8 7567.31 1566.14   3
 -10  -8  -8 18110.0 1924.34   2
   8  10  -8 19214.3 1924.39   1
  -8  18  -8 19002.3 1551.47   1
 -18   8  -8 19061.1 963.265   1
  10 -18  -8 23313.3 1846.73   4
  18 -10  -8 19073.7 1819.76   1
 -10  -8  -8 18943.8 1862.40   4
  10 -18  -8 21571.9 2172.25   2
  18 -10  -8 17746.4 1440.95   2
 -10  -8  -5 5885.12 1215.74   2
   8  10  -5 7968.60 1359.55   1
  18 -10  -5 6804.40 991.820   2
  -8  18  -5 7780.71 1029.15   1
  10 -18  -5 7393.09 1114.11   4
 -10  -8  -5 6911.26 1176.77   4
  10 -18  -5 6812.37 1530.52   2
  18 -10  -5 6982.48 1105.40   1
 -18   8  -5 5886.83 1053.35   4
  18 -10  -2 33598.6 2124.53   3
 -10  -8  -2 33017.7 1664.63   2
  10 -18  -2 33108.1 1324.90   3
  -8  18  -2 31927.0 1462.17   1
  18 -10  -2 29724.9 1237.61   1
   8  10  -2 28761.2 1042.44   2
  18 -10  -2 29037.6 827.367   4
  10 -18  -2 30039.1 1622.99   4
   8  10  -2 29280.4 1691.96   1
  10 -18  -2 31833.1 1828.91   2
 -10  -8  -2 29331.1 1529.43   4
  18 -10  -2 29408.4 809.327   4
  18 -10   1 20041.8 1770.61   3
 -10  -8   1 21920.3 1055.34   2
  -8  18   1 21374.2 1223.77   3
   8  10   1 19323.4 1358.39   1
  10 -18   1 20035.2 1477.09   3
  18 -10   1 17629.1 576.104   1
  10 -18   1 19351.9 1165.03   1
  10 -18   1 17363.7 1235.52   4
  10 -18   1 20638.1 1400.58   2
 -10  -8   1 21126.5 1173.87   4
   8  10   1 19367.0 1324.20   2
  18 -10   1 21123.2 1128.69   4
   8  10   4 18446.7 1356.56   3
 -10  -8   4 19351.5 1131.71   4
  10 -18   4 19327.8 1816.56   3
   8  10   4 23615.8 1562.02   1
  18 -10   4 20422.6 1914.93   3
  10 -18   4 18788.8 1097.22   1
   8  10   7 11366.4 1145.27   3
  18 -10   7 15272.3 1958.00   3
  10 -18   7 14727.6 1826.41   3
 -10  -8   7 11724.4 1025.53   4
  18  -9  -9 3801.84 1317.27   1
   9 -18  -9 3680.15 1409.04   2
  18  -9  -9 3411.30 955.769   2
   9 -18  -9 1802.77 1072.40   4
  -9  -9  -9 1377.35 1188.39   2
   9   9  -9 2990.27 1342.58   1
  -9  18  -9 267.771 972.330   1
  -9  -9  -9 1166.80 1091.43   4
  18  -9  -6 3657.30 1051.32   1
  -9  18  -6 3968.88 937.786   1
  -9  -9  -6 4469.16 1265.23   2
 -18   9  -6 2040.86 292.839   1
  -9  -9  -6 2117.48 971.099   4
   9   9  -6 2792.84 1241.23   1
   9 -18  -6 4952.64 1103.38   4
  18  -9  -6 4357.15 905.328   2
   9 -18  -6 5363.66 1375.73   2
  18  -9  -3 7108.82 1339.37   3
   9   9  -3 5367.76 1087.54   1
  -9  -9  -3 7034.68 1112.67   2
  -9  18  -3 5399.07 827.427   1
   9 -18  -3 6368.69 1277.00   2
   9 -18  -3 5367.20 471.957   3
  18  -9  -3 6869.30 892.331   2
  -9  -9  -3 7520.11 1065.37   4
   9 -18  -3 5381.79 1007.60   4
  18  -9  -3 6138.80 815.245   1
  18  -9   0-641.001 1016.47   3
  -9  -9   0 281.008 572.375   2
  -9  18   0 1476.19 692.353   3
   9   9   0 887.155 602.609   2
  -9  18   0 54.6943 593.905   1
   9 -18   0 1049.54 706.026   3
  18  -9   0-187.521 400.663   1
   9 -18   0-1289.70 727.663   4
   9 -18   0 650.901 670.961   1
   9 -18   0-238.539 842.471   2
  -9  -9   0-616.211 673.985   4
  18  -9   0-254.537 405.820   4
   9   9   0 711.587 801.673   1
   9   9   3 6419.12 1048.79   3
  -9  -9   3 5003.31 393.844   2
   9 -18   3 5264.65 800.436   1
   9   9   3 6012.92 981.350   1
  18  -9   3 7059.64 1342.25   3
   9 -18   3 8868.58 1228.57   3
  -9  -9   3 5552.93 824.345   4
  -9  -9   6 2673.61 767.141   4
   9   9   6 3770.67 953.240   3
  18  -9   6 3867.83 1318.37   3
   9 -18   6 3339.49 1328.99   3
  18  -9   9 857.733 1288.91   3
   9   9   9 2349.14 869.653   3
   9 -18   9 2079.65 1390.01   3
  -8 -10  -7 15604.9 1806.22   2
  10   8  -7 14901.2 1803.21   1
  18  -8  -7 15049.6 1559.40   1
 -10  18  -7 14389.2 1233.30   1
   8 -18  -7 16535.8 1572.13   4
  -8 -10  -7 14688.8 1605.66   4
  18  -8  -7 14905.0 1184.58   2
 -18  10  -7 12200.5 550.989   1
  -8 -10  -4 23703.9 1736.04   2
  10   8  -4 19854.3 1595.78   1
   8 -18  -4 21064.5 1808.59   2
   8 -18  -4 18901.8 1458.01   4
  18  -8  -4 16242.1 1116.88   2
  -8 -10  -4 20855.2 1538.84   4
  18  -8  -4 20598.9 1358.88   1
 -10  18  -4 19765.8 1178.40   1
  18  -8  -1 22340.8 1798.71   3
  18  -8  -1 20744.5 999.791   1
 -10  18  -1 20628.5 1558.66   3
   8 -18  -1 20465.6 1401.97   4
 -10  18  -1 22325.9 1193.16   1
   8 -18  -1 20791.0 1176.79   3
  18  -8  -1 19593.2 1175.25   2
  10   8  -1 19225.9 1156.44   4
  10   8  -1 19158.7 1461.79   1
  10   8  -1 20522.2 1060.96   2
  -8 -10  -1 20208.4 1301.60   4
   8 -18  -1 22372.9 1563.54   2
  18  -8  -1 21368.3 770.059   4
  -8 -10  -1 20062.6 1299.82   2
  10   8   2 32353.2 1870.47   3
 -10  18   2 32117.1 1268.58   3
  18  -8   2 33329.9 2188.61   3
   8 -18   2 31893.9 1805.58   3
   8 -18   2 25115.8 1376.60   1
  10   8   2 32164.2 1666.74   1
   8 -18   2 33062.1 1673.96   2
  18  -8   2 29836.7 1408.36   4
  -8 -10   2 29751.1 1422.31   4
  -8 -10   2 33190.0 1153.16   2
  10   8   5 7292.62 1098.57   3
  18  -8   5 4440.05 1347.18   3
   8 -18   5 6550.25 1465.05   3
  -8 -10   5 6388.69 932.499   4
  10   8   8 17599.5 1502.27   3
  18  -8   8 20461.3 2197.24   3
   8 -18   8 18876.9 2025.17   3
 -18  11  -8 8019.63 582.904   1
  -7 -11  -8 9628.74 1598.34   2
  11   7  -8 10776.3 1594.81   1
 -11  18  -8 9516.54 1151.20   1
   7 -18  -8 10292.6 1437.92   4
  -7 -11  -8 9682.95 1502.39   4
  18  -7  -8 10142.2 1543.84   1
   7 -18  -8 11794.9 1826.18   2
  18  -7  -8 7959.45 881.895   2
  18  -7  -5 4420.48 989.388   1
  -7 -11  -5 5582.30 1275.29   2
 -11  18  -5 3902.29 810.099   1
  11   7  -5 3092.08 1176.63   1
   7 -18  -5 4379.48 1012.92   4
  18  -7  -5 4296.50 774.003   2
  -7 -11  -5 2374.03 933.611   4
   7 -18  -5 5472.04 1501.60   2
  18  -7  -2 29691.5 1320.23   1
   7 -18  -2 29518.3 1686.87   4
  11   7  -2 25750.9 907.708   2
   7 -18  -2 28398.9 1059.98   3
  18  -7  -2 25626.9 1222.13   2
  11   7  -2 27554.2 1628.92   1
   7 -18  -2 33211.3 1935.82   2
  -7 -11  -2 25684.8 1507.99   4
  18  -7  -2 28211.5 2015.10   3
 -11  18  -2 28481.0 1253.50   1
  -7 -11  -2 29406.5 1671.96   2
  18  -7   1 8405.57 1326.88   3
 -11  18   1 8650.98 943.282   3
  11   7   1 6705.85 1002.99   1
   7 -18   1 7784.11 1028.93   3
   7 -18   1 7200.56 1017.79   4
   7 -18   1 8293.65 1042.53   2
  -7 -11   1 7394.61 911.141   4
  18  -7   1 8345.14 650.506   1
  18  -7   1 7518.14 733.765   4
  11   7   1 6605.47 950.829   2
  -7 -11   1 7892.68 852.379   2
  11   7   4 27567.1 1842.95   3
  18  -7   4 26096.4 2098.92   3
   7 -18   4 28995.3 2053.30   3
  -7 -11   4 26591.9 1430.00   4
  -7 -11   4 23736.9 711.402   2
  11   7   4 26114.4 1605.81   1
  11   7   7 6941.05 1156.63   3
  18  -7   7 7323.54 1532.17   3
   7 -18   7 5613.45 1442.59   3
   6 -18  -9 3269.81 1489.32   2
  -6 -12  -9 3229.02 1511.12   2
  12   6  -9 5836.58 1458.27   1
  18  -6  -9 7349.35 1500.13   1
   6 -18  -9 984.523 1138.39   4
  -6 -12  -9 5725.58 1377.24   4
 -12  18  -9 3798.54 967.896   1
   6 -18  -6 3382.54 1517.09   2
  18  -6  -6 4903.64 1103.72   1
  -6 -12  -6 2256.71 1188.80   2
 -12  18  -6 3317.81 778.231   1
  12   6  -6 3708.17 1304.15   1
  18  -6  -6 4677.61 745.976   2
   6 -18  -6 3251.57 1064.81   4
  -6 -12  -6 1979.81 917.581   4
  -6 -12  -3 228.115 819.619   2
 -12  18  -3 789.866 531.806   1
   6 -18  -3 2164.86 890.520   4
  18  -6  -3 1617.78 748.426   1
  18  -6  -3 1476.36 511.527   2
  -6 -12  -3 1198.08 874.146   4
   6 -18  -3 1673.09 1135.05   2
  12   6  -3 2368.52 971.461   1
  18  -6   0 11267.3 1495.68   3
 -12  18   0 15640.4 1302.54   3
  18  -6   0 13434.0 1059.01   2
  18  -6   0 13710.9 861.202   1
   6 -18   0 15678.6 1180.11   3
   6 -18   0 13145.0 1204.79   4
  12   6   0 11509.3 997.223   4
  18  -6   0 12879.8 792.621   4
   6 -18   0 13325.9 1279.56   2
  12   6   0 11807.8 1017.92   2
  12   6   0 15360.3 1275.72   1
  -6 -12   0 15353.6 1162.70   2
  -6 -12   0 13924.8 1153.39   4
  12   6   3 3941.40 1024.90   3
  18  -6   3 4312.03 1240.82   3
   6 -18   3 4114.23 906.740   2
   6 -18   3 6295.78 1153.38   3
  -6 -12   3 6898.58 978.449   4
  -6 -12   3 5897.69 689.943   2
  12   6   3 5735.57 926.352   1
  12   6   6 13392.7 1469.32   3
  18  -6   6 12825.1 1734.01   3
   6 -18   6 14347.7 1677.78   3
  -6 -12   6 15250.6 1248.43   4
  18  -6   9 3310.26 1383.97   3
  12   6   9 3335.53 1039.11   3
   6 -18   9 2174.27 1476.87   3
   5 -18  -7 2573.87 1355.06   2
  18  -5  -7 1521.81 468.735   2
  18  -5  -7 1205.72 1071.08   1
  -5 -13  -7 3314.13 1368.12   2
 -13  18  -7 1759.68 737.395   1
  13   5  -7 3686.67 1229.35   1
   5 -18  -7 2238.29 989.760   4
  -5 -13  -7 3157.13 1167.08   4
   5 -18  -4 14777.1 1770.53   2
 -13  18  -4 13563.5 893.843   1
  13   5  -4 11143.2 1348.27   1
  18  -5  -4 12495.5 785.146   2
  18  -5  -4 11344.7 829.479   2
   5 -18  -4 13677.9 1374.11   4
  -5 -13  -4 13789.0 1406.96   4
  -5 -13  -4 13763.7 1503.92   2
  18  -5  -4 12460.0 1242.26   1
  18  -5  -1 5168.41 1257.92   3
  18  -5  -1 6814.34 514.554   4
  18  -5  -1 7169.48 824.706   1
  18  -5  -1 7548.32 807.425   2
   5 -18  -1 8357.51 818.515   3
  13   5  -1 5978.72 780.939   4
  13   5  -1 9662.61 1164.84   1
   5 -18  -1 9112.31 1239.52   2
  -5 -13  -1 7075.49 1012.78   4
  13   5  -1 7402.51 805.690   2
  -5 -13  -1 8826.22 1092.48   2
   5 -18  -1 10378.0 1225.17   4
 -13  18   2 27448.5 1351.65   3
  13   5   2 27511.7 1913.23   3
  18  -5   2 29324.4 2172.89   3
  18  -5   2 26821.0 1017.65   1
  13   5   2 28967.5 1548.67   1
   5 -18   2 28655.9 1747.63   3
   5 -18   2 27019.9 1589.13   4
   5 -18   2 26680.4 1545.50   2
  -5 -13   2 27646.0 1521.50   4
  18  -5   2 25770.3 1306.57   4
  -5 -13   2 27344.1 1267.03   2
  -5 -13   5 4942.50 970.270   4
  13   5   5 3534.02 1152.84   3
  18  -5   5 2934.86 1182.48   3
  -5 -13   5 2160.04 372.577   2
   5 -18   5 4071.79 1276.83   3
  -5 -13   5 3688.59 520.214   2
  13   5   8 6265.35 1221.56   3
  18  -5   8 7577.79 1512.13   3
   5 -18   8 10089.3 1713.31   3
  -4 -14  -8 9410.79 1841.16   2
  14   4  -8 7396.23 1446.53   1
 -14  18  -8 8486.48 967.472   1
   4 -18  -8 9369.13 1431.92   4
  -4 -14  -8 6858.33 1326.09   4
  18  -4  -8 11291.8 1559.64   1
   4 -18  -5 3492.94 1407.50   2
 -14  18  -5 3728.40 644.692   1
  -4 -14  -5 3166.58 1164.38   2
  18  -4  -5 2210.78 1014.94   1
  18  -4  -5 2957.65 436.808   2
  -4 -14  -5 2840.59 1018.39   4
  14   4  -5 5532.01 1194.58   1
  18  -4  -5 3049.01 549.584   2
   4 -18  -5 4682.95 1069.14   4
  18  -4  -2 20132.8 1257.64   1
  18  -4  -2 18246.8 1018.49   2
   4 -18  -2 22767.1 1722.12   2
  14   4  -2 20391.0 1520.41   1
   4 -18  -2 18768.8 1526.09   4
  -4 -14  -2 16880.7 1374.97   4
  14   4  -2 16662.9 833.674   2
  -4 -14  -2 20641.1 1584.22   2
  14   4   1 2070.52 1101.04   3
  14   4   1 2091.09 794.018   2
 -14  18   1 1910.47 754.116   3
  18  -4   1 995.944 1057.34   3
  14   4   1 1856.84 814.755   1
  14   4   1 2587.89 770.021   4
   4 -18   1 2135.00 857.225   3
   4 -18   1 1015.10 896.668   4
  18  -4   1 2723.81 661.242   1
  -4 -14   1 1936.37 917.687   4
   4 -18   1 1441.67 877.098   2
  18  -4   1 2113.30 590.705   4
  -4 -14   1 2018.13 745.265   2
   4 -18   4 5972.41 967.133   2
  14   4   4 6628.42 1287.39   3
  18  -4   4 3737.03 1270.90   3
   4 -18   4 8403.48 1400.96   3
  -4 -14   4 6428.72 1039.48   4
  -4 -14   4 6804.68 750.503   2
  14   4   4 5490.02 939.772   1
  14   4   7 3606.92 1246.09   3
  18  -4   7 5524.85 1448.25   3
   4 -18   7 5986.22 1423.30   3
  -4 -14   7 3026.04 435.805   2
   3 -18  -9 855.460 1375.57   2
  -3 -15  -9 1934.20 1220.85   4
  -3 -15  -9 182.726 1380.79   2
  18  -3  -9-1269.71 1278.46   1
  15   3  -9-3778.42 1482.53   1
   3 -18  -9 5.23226 1118.16   4
  18  -3  -6 14792.2 1556.32   1
   3 -18  -6 14478.4 1817.64   2
  15   3  -6 14865.4 1624.07   1
  -3 -15  -6 12367.3 1504.74   4
   3 -18  -6 14453.4 1511.64   4
 -15  18  -6 15296.3 884.564   1
  -3 -15  -6 18094.2 1843.00   2
  -3 -15  -3 1987.41 1044.62   2
   3 -18  -3 1963.85 1177.16   2
  18  -3  -3 1115.78 465.084   2
  18  -3  -3 1741.43 805.935   1
   3 -18  -3 1444.50 936.195   4
  -3 -15  -3 34.4565 891.222   4
  15   3  -3 1138.69 950.197   1
  15   3  -3 226.884 212.068   2
  18  -3   0 24045.0 2039.32   3
  18  -3   0 23884.0 1343.18   2
   3 -18   0 29242.5 1504.34   3
  18  -3   0 27998.2 1313.13   1
   3 -18   0 28601.0 1705.54   4
  15   3   0 25558.6 1319.43   4
  -3 -15   0 24745.9 1623.73   4
   3 -18   0 29335.8 1764.19   2
  18  -3   0 26991.2 1125.22   4
  15   3   0 28276.4 1578.51   1
  -3 -15   0 29213.5 1609.11   2
  15   3   0 24354.7 1308.90   2
  15   3   3 2998.54 1190.51   3
  18  -3   3 5307.30 1343.96   3
  15   3   3 3553.12 882.976   1
  18  -3   3 4235.50 663.156   1
  -3 -15   3 3214.19 932.138   4
   3 -18   3 3696.85 1194.96   3
   3 -18   3 4485.17 965.748   4
   3 -18   3 3289.83 868.694   2
  -3 -15   3 2443.84 749.812   2
  15   3   6 13115.4 1649.58   3
  18  -3   6 15272.8 1858.79   3
  -3 -15   6 9311.05 722.310   2
   3 -18   6 14353.8 1762.66   3
  -3 -15   6 11114.8 800.840   2
  15   3   9 489.265 1051.63   3
  18  -3   9 32.8324 1174.71   3
   3 -18   9 1721.73 1419.33   3
   2 -18  -7 1903.15 1373.08   2
  -2 -16  -7 1894.88 1271.55   2
  18  -2  -7 757.384 1106.11   1
  16   2  -7 1962.94 1226.20   1
 -16  18  -7 1243.62 513.378   1
   2 -18  -7 1386.75 1021.72   4
  -2 -16  -7 2105.39 1027.84   4
   2 -18  -4 105.609 1184.82   2
  -2 -16  -4 290.838 1142.38   2
  18  -2  -4 1285.87 343.906   2
  18  -2  -4 993.540 367.472   2
  18  -2  -4 1670.42 972.405   1
  -2 -16  -4 1443.08 968.578   4
  16   2  -4 1808.52 1056.02   1
   2 -18  -4 2269.84 1104.41   4
  18  -2  -1 1551.08 1136.72   3
  16   2  -1 1206.40 611.423   2
  16   2  -1 1413.61 846.227   1
  18  -2  -1 1554.56 621.803   2
   2 -18  -1 1488.03 938.849   4
  16   2  -1 2304.92 642.423   4
  18  -2  -1 1861.98 505.206   4
  -2 -16  -1 1834.19 856.678   4
   2 -18  -1 1398.70 991.494   2
  18  -2  -1 2802.06 842.654   1
  -2 -16  -1 643.849 955.594   2
  16   2   2 8061.39 1445.80   3
  18  -2   2 9682.66 1582.24   3
   2 -18   2 9982.82 1138.43   2
  18  -2   2 10289.8 927.580   1
  16   2   2 9771.11 1014.25   1
   2 -18   2 9362.96 1273.43   3
   2 -18   2 9979.49 1207.16   4
  -2 -16   2 9714.91 1128.84   4
  -2 -16   2 11159.3 1076.17   2
  16   2   5 6373.29 1349.55   3
  18  -2   5 3565.36 1410.61   3
   2 -18   5 4254.43 1376.88   3
  -2 -16   5 5496.54 1087.54   4
   2 -18   5 6031.57 966.681   2
  -2 -16   5 6395.96 812.436   2
  16   2   8 2963.08 1321.58   3
  18  -2   8 396.968 1139.25   3
   2 -18   8 2315.76 1314.78   3
  18  -1  -8 13066.3 1676.33   1
  17   1  -8 12944.4 1764.27   1
   1 -18  -8 11021.0 1822.56   2
   1 -18  -8 12433.6 1608.97   4
  -1 -17  -8 11119.8 1642.26   4
  -1 -17  -8 11077.9 1816.35   2
  18  -1  -5 10809.0 1305.97   1
  17   1  -5 12063.7 1480.79   1
   1 -18  -5 13914.7 1492.43   4
  -1 -17  -5 11683.6 1469.37   4
   1 -18  -5 13387.9 1755.74   2
  -1 -17  -5 9505.51 1546.12   2
  17   1  -2 3014.13 620.903   2
  18  -1  -2 3197.52 632.640   2
  -1 -17  -2 4276.76 1248.56   2
   1 -18  -2 3537.65 1052.86   4
  -1 -17  -2 3040.71 973.516   4
  18  -1  -2 3935.83 937.073   1
  17   1  -2 3529.47 975.023   1
   1 -18  -2 2278.10 1112.52   2
  17   1   1 19414.2 1338.61   1
  17   1   1 19122.4 1964.53   3
  18  -1   1 20545.8 1993.68   3
  17   1   1 17124.0 1212.67   4
   1 -18   1 19182.8 1476.61   4
  -1 -17   1 19717.5 1499.29   4
  18  -1   1 17431.7 1152.78   4
   1 -18   1 19684.6 1499.47   2
  -1 -17   1 19689.4 1420.79   2
  18  -1   1 17736.6 1240.00   1
  17   1   4 1569.00 1143.66   3
  18  -1   4 2909.30 1202.07   3
  17   1   4 1106.98 699.885   1
   1 -18   4 1098.63 1124.15   3
   1 -18   4 1872.89 930.891   4
  -1 -17   4 3824.76 1076.35   4
  -1 -17   4 1895.80 745.176   2
   1 -18   4 876.050 796.378   2
  17   1   7 6162.73 1462.98   3
  18  -1   7 6914.06 1517.42   3
   1 -18   7 7686.67 1007.66   2
   1 -18   7 6368.31 1616.00   3
  -1 -17   7 6037.09 1471.87   3
  -1 -17   7 6682.50 835.552   2
   0 -18  -9 430.053 1390.39   2
  18   0  -9-1166.02 1413.87   1
   0 -18  -9-1387.99 1155.00   4
  18   0  -6 23496.3 1881.10   1
   0 -18  -6 21346.1 1816.57   4
   0 -18  -6 21410.3 2150.03   2
   0 -18  -3-704.926 1136.68   2
  18   0  -3-159.428 412.220   2
   0 -18  -3 2281.36 1056.29   4
  18   0  -3-360.976 909.367   1
  18   0   0 29709.8 2309.64   3
  18   0   0 26861.7 1310.70   4
  18   0   0 28205.1 1573.93   1
   0 -18   0 28708.8 1779.36   2
   0 -18   0 27385.9 1739.19   4
  18   0   3-694.328 1167.52   3
   0 -18   3-626.131 787.429   2
   0 -18   3-417.276 994.870   4
  18   0   3-298.183 657.783   1
  18   0   6 39697.4 2659.72   3
   0 -18   6 40469.1 1687.24   2
   0 -18   6 46682.0 2759.40   3
  18   0   9-1187.81 1241.80   3
   0 -18   9-512.443 1442.38   3
  19 -19  -7 503.509 859.898   3
   0  19  -7 545.510 1240.08   1
  19 -19  -7 1078.19 1222.01   1
 -19   0  -7-1074.83 1225.45   2
  19 -19  -7-709.587 927.647   4
  19 -19  -7-247.476 1217.29   2
 -19   0  -7 3116.57 1190.34   4
  19 -19  -4 1185.19 913.604   3
 -19   0  -4 261.895 899.942   2
  19 -19  -4-288.225 1112.59   2
   0  19  -4 732.704 1033.68   1
  19 -19  -4-40.5457 780.502   4
 -19   0  -4-313.433 804.638   4
  19 -19  -1 1096.02 1003.01   3
  19 -19  -1 183.303 542.092   1
 -19   0  -1 238.791 664.335   2
  19 -19  -1-496.523 811.052   4
  19 -19  -1 1209.83 1056.51   2
   0  19  -1 863.155 943.715   1
 -19   0  -1-346.793 576.107   4
  19 -19   2 12783.0 438.422   1
   0  19   2 14572.8 1129.19   3
 -19   0   2 16051.4 655.061   4
  19 -19   5-1350.59 1259.48   3
  19 -19   8 6247.59 1674.72   3
   1  18  -8 1311.37 1397.80   1
  -1  19  -8 1259.56 1263.38   1
 -18  -1  -8 1953.66 1292.39   2
 -19   1  -8 1916.14 1238.82   2
  18 -19  -8-303.380 1298.73   1
  19 -18  -8 50.8519 1246.39   1
  18 -19  -8-327.202 882.072   4
  19 -18  -8 854.605 897.995   4
 -18  -1  -8 540.096 1131.10   4
 -19   1  -8 1553.78 1112.84   4
  19 -18  -8 668.516 1171.93   2
  18 -19  -8 1119.77 1310.24   2
  19 -18  -5-823.405 973.188   3
  18 -19  -5 1747.77 953.708   3
   1  18  -5 2642.53 1125.24   1
  -1  19  -5 2358.67 1123.64   1
 -18  -1  -5 1007.21 1005.90   2
 -19   1  -5-811.995 946.485   2
  18 -19  -5-151.395 801.315   4
  19 -18  -5 995.995 756.034   4
  19 -18  -5-396.107 1039.92   2
  18 -19  -5-471.910 1162.10   2
 -18  -1  -5 533.618 883.602   4
 -19   1  -5 270.398 848.732   4
   1  18  -2 2583.00 1002.67   1
  19 -18  -2 4872.85 1200.94   3
  -1  19  -2 3064.86 971.918   1
  18 -19  -2 3102.57 1053.57   3
  18 -19  -2 3567.60 1130.85   2
 -19   1  -2 3175.35 727.947   1
 -18  -1  -2 2386.47 815.116   2
 -19   1  -2 3545.53 916.039   2
  19 -18  -2 7595.99 1198.50   2
  19 -18  -2 4053.58 899.518   4
  18 -19  -2 4881.95 911.378   4
 -18  -1  -2 4655.52 855.775   4
 -19   1  -2 5362.24 869.169   4
  19 -18   1 5136.19 1252.13   3
  18 -19   1 4250.10 1226.05   3
  -1  19   1 2419.42 789.636   3
   1  18   1 3338.68 820.374   3
   1  18   1 3760.39 1050.72   1
  18 -19   1 4918.52 609.219   1
  19 -18   1 2954.68 459.227   1
  -1  19   1 5398.34 1059.52   1
 -19   1   1 3388.23 501.905   4
 -18  -1   1 2780.05 519.694   4
   1  18   4 1661.64 388.937   3
   1  18   4 2519.41 396.734   3
  18 -19   4 3078.69 1263.24   3
  19 -18   7 1563.56 1355.68   3
  18 -19   7 584.356 1244.67   3
  -2  19  -9 5240.57 1446.87   1
  19 -17  -9 4669.39 1440.48   2
  17 -19  -9 6710.41 1614.89   2
 -17  -2  -9 9476.35 1701.11   2
 -19   2  -9 6885.00 1493.24   2
   2  17  -9 8481.51 1648.57   1
  19 -17  -6 8948.64 1365.59   3
  17 -19  -6 7579.20 1034.60   3
   2  17  -6 7569.58 1421.69   1
 -17  -2  -6 6482.25 1347.49   2
 -19   2  -6 9087.66 1443.31   2
  -2  19  -6 9616.15 1431.59   1
  19 -17  -6 8986.45 1446.19   1
  19 -17  -6 9693.54 1475.96   2
  17 -19  -6 10191.3 1231.95   4
  19 -17  -6 8623.95 1017.15   4
 -17  -2  -6 9433.01 1346.69   4
  17 -19  -6 7723.77 1558.01   2
 -19   2  -6 10377.5 1437.02   4
  19 -17  -3 9593.07 1312.96   2
  19 -17  -3 7948.03 1280.78   3
  17 -19  -3 9981.21 1257.44   3
 -19   2  -3 6710.25 805.616   1
  17 -19  -3 7911.67 1021.51   4
 -17  -2  -3 8376.20 1199.60   2
 -19   2  -3 6803.21 1098.44   2
 -17  -2  -3 6552.22 1020.77   4
  19 -17  -3 9638.35 1012.80   4
  17 -19  -3 6125.12 1243.94   2
   2  17  -3 6619.73 1228.99   1
 -19   2  -3 9493.00 1076.88   4
  -2  19  -3 7166.24 1106.89   1
  17 -19   0 5346.01 680.317   1
  19 -17   0 5192.89 1267.27   3
  -2  19   0 5247.06 1016.37   3
  -2  19   0 4688.06 974.931   1
  17 -19   0 3678.82 1119.43   3
 -17  -2   0 5350.89 746.370   2
  19 -17   0 4715.72 573.880   1
  19 -17   0 3960.81 512.989   1
  17 -19   0 4752.60 892.949   4
 -17  -2   0 4617.19 668.539   4
 -19   2   0 4687.07 593.015   4
   2  17   0 4289.95 1050.72   1
  -2  19   3 6817.06 574.028   3
  17 -19   3 9405.45 1473.84   3
   2  17   3 7022.57 762.198   3
 -17  -2   3 7447.06 476.418   4
  17 -19   3 7032.80 428.321   1
   2  17   3 7844.46 1287.98   1
  19 -17   6 9476.99 1712.05   3
  17 -19   6 6620.43 1555.03   3
  19 -17   9 5518.09 1630.87   3
  17 -19   9 6623.51 1817.98   3
  19 -16  -7 3288.75 1123.53   3
  -3  19  -7 3787.75 1268.36   1
  16 -19  -7 4480.18 1085.50   4
  16 -19  -7 3035.52 716.475   3
 -16  -3  -7 5476.08 1399.28   2
  19 -16  -7 4660.99 1279.46   1
 -19   3  -7 2508.18 1099.25   2
  19 -16  -7 3678.70 765.735   4
  19 -16  -7 4817.54 1317.48   2
  16 -19  -7 5839.10 1473.93   2
 -16  -3  -7 2633.92 1107.41   4
   3  16  -7 1891.01 1222.98   1
 -19   3  -7 5109.60 1204.16   4
  19 -16  -4 5172.83 946.394   1
  19 -16  -4 3415.03 1160.84   3
  16 -19  -4 4570.98 994.955   3
   3  16  -4 3527.37 1174.60   1
 -16  -3  -4 4822.46 1034.46   2
  16 -19  -4 2116.86 817.587   4
 -19   3  -4 3536.04 1034.23   2
  -3  19  -4 4436.45 1082.85   1
  19 -16  -4 4545.92 780.111   4
 -19   3  -4 3559.82 723.804   1
  19 -16  -4 3187.22 1050.79   2
  16 -19  -4 3304.01 1291.75   2
 -16  -3  -4 1717.06 874.280   4
 -19   3  -4 2665.18 868.921   4
  19 -16  -1 4575.02 1308.99   3
   3  16  -1 3325.55 1079.01   1
  16 -19  -1 5394.64 1066.53   3
 -16  -3  -1 3962.74 821.375   2
  16 -19  -1 4019.62 703.156   1
  19 -16  -1 5406.71 827.281   4
  16 -19  -1 5312.46 1000.42   4
  19 -16  -1 4392.82 609.186   1
  16 -19  -1 5002.31 1154.88   2
 -16  -3  -1 5818.82 810.869   4
 -19   3  -1 3684.17 672.016   1
  -3  19  -1 3706.36 947.254   1
 -19   3  -1 3492.47 624.223   4
   3  16   2 8931.46 1235.92   1
  19 -16   2 8062.70 1440.34   3
  -3  19   2 9332.72 853.714   3
  16 -19   2 10484.5 1446.32   3
  16 -19   2 9165.05 702.884   1
   3  16   2 6324.38 849.091   3
  -3  19   2 8138.58 1191.87   1
 -16  -3   2 8364.24 642.206   4
   3  16   5 1891.81 396.342   3
  19 -16   5 3198.31 1305.36   3
  16 -19   5 3368.07 1317.44   3
   3  16   5 1918.16 374.046   3
 -16  -3   5 1818.33 308.067   4
 -16  -3   5 1808.90 276.299   4
  19 -16   8 11391.6 1893.46   3
  16 -19   8 10660.4 1829.59   3
  15 -19  -8 3441.44 1401.42   2
  -4  19  -8 1829.65 1182.19   1
  19 -15  -8 1684.48 1123.59   3
 -15  -4  -8 2205.23 1200.84   2
 -19   4  -8-256.680 1100.58   2
  15 -19  -8 1962.23 1035.26   4
  19 -15  -8-1499.91 1177.16   1
   4  15  -8 2803.33 1293.05   1
 -15  -4  -8-336.782 1059.44   4
 -19   4  -8-1222.06 1077.57   4
  19 -15  -8 1656.82 1151.32   2
  19 -15  -5 10181.2 1427.71   3
  15 -19  -5 13208.3 1052.39   3
 -15  -4  -5 12617.6 1528.98   2
 -19   4  -5 11159.7 892.656   1
 -19   4  -5 13462.6 1438.15   2
   4  15  -5 10640.2 1483.64   1
  19 -15  -5 11641.4 1271.98   1
  19 -15  -5 10848.4 1348.81   2
  15 -19  -5 13684.6 1254.72   4
  -4  19  -5 11954.7 1355.29   1
  15 -19  -5 14263.3 1739.19   2
  19 -15  -5 12929.0 897.474   4
 -15  -4  -5 14700.9 1446.54   4
 -19   4  -5 13904.0 1408.10   4
  15 -19  -2 5691.51 1219.32   2
  19 -15  -2 3087.28 1060.09   3
  15 -19  -2 6628.71 1002.98   3
 -15  -4  -2 7090.97 1011.25   2
  -4  19  -2 4505.44 1005.27   1
  19 -15  -2 6672.85 1151.22   2
  19 -15  -2 6280.81 782.871   4
  15 -19  -2 6671.77 1058.02   4
  19 -15  -2 5896.71 738.808   1
   4  15  -2 4776.91 1130.56   1
 -15  -4  -2 5221.63 877.778   4
 -19   4  -2 7172.53 888.098   4
 -19   4  -2 5594.87 645.663   1
   4  15   1 5649.22 1069.20   1
  19 -15   1 5108.21 1235.38   3
  15 -19   1 4097.33 680.694   1
  -4  19   1 3180.67 743.366   3
  15 -19   1 3456.57 1028.37   3
  -4  19   1 4525.91 1009.27   1
 -15  -4   1 5217.27 633.371   2
   4  15   1 3253.09 812.097   3
 -15  -4   1 4934.98 655.988   4
  19 -15   1 3409.84 274.940   1
 -19   4   1 2738.26 629.750   1
  19 -15   1 3336.58 234.481   1
   4  15   4-339.651 572.214   3
  19 -15   4-9.43695 1182.83   3
  15 -19   4-384.361 982.539   3
   4  15   4 284.993 539.769   3
 -15  -4   4 295.712 398.905   4
  15 -19   4 7.99010 391.640   1
  19 -15   7 3517.66 1524.73   3
  15 -19   7 5257.49 1468.87   3
 -15  -4   7 5105.69 576.324   4
  14 -19  -9 5795.25 1652.86   2
  19 -14  -9 4882.98 1177.49   2
 -14  -5  -9 4088.95 1398.44   2
 -19   5  -9 5171.37 1480.89   2
   5  14  -9 6457.12 1551.88   1
  14 -19  -9 5113.16 1243.02   4
  19 -14  -9 4685.64 1366.14   1
 -14  -5  -9 6141.28 1523.29   4
  -5  19  -9 5647.89 1411.19   1
 -19   5  -9 4974.52 1350.96   4
  19 -14  -6 4662.98 1167.76   3
  14 -19  -6 1719.01 423.736   3
  -5  19  -6 2314.99 1094.22   1
 -14  -5  -6 5029.09 1274.78   2
 -19   5  -6 3938.32 1147.74   2
  14 -19  -6 5554.72 1091.74   4
  19 -14  -6 1839.39 956.228   1
  19 -14  -6 2742.92 1060.89   2
  19 -14  -6 2156.86 502.465   4
 -14  -5  -6 3141.28 1109.14   4
  14 -19  -6 5390.48 1580.43   2
   5  14  -6 4478.60 1265.28   1
 -19   5  -6 4003.95 1070.29   4
  -5  19  -3 20729.9 1426.18   1
 -19   5  -3 18681.3 830.807   1
  19 -14  -3 22227.6 1840.49   3
  14 -19  -3 22240.8 1376.92   3
 -14  -5  -3 20694.2 1563.20   2
 -14  -5  -3 19324.3 1391.47   4
  19 -14  -3 20453.6 1237.11   1
  14 -19  -3 16659.1 1615.80   2
  19 -14  -3 18202.9 1434.31   2
  14 -19  -3 20449.0 1411.10   4
  19 -14  -3 21206.9 1003.01   4
   5  14  -3 20761.5 1657.03   1
 -19   5  -3 21143.1 1346.51   4
  14 -19   0 2420.79 668.950   1
  19 -14   0 2500.63 1090.46   3
  -5  19   0 2308.50 797.594   3
  14 -19   0 2272.21 932.073   3
 -14  -5   0 2871.91 681.308   2
   5  14   0 4087.60 984.992   1
  -5  19   0 3476.41 921.893   1
  19 -14   0 2510.22 418.587   1
 -14  -5   0 1910.49 622.875   4
  14 -19   0 2865.69 833.179   4
 -19   5   0 2388.26 520.784   1
  14 -19   0 1712.07 939.336   2
  19 -14   0 2758.14 562.733   4
   5  14   3 16463.1 1227.84   3
  14 -19   3 16215.8 886.700   1
  19 -14   3 19279.1 1904.44   3
  14 -19   3 16488.1 1668.10   3
   5  14   3 18001.6 1618.39   1
   5  14   3 15514.3 1067.69   3
 -14  -5   3 14901.1 844.598   4
   5  14   6 279.674 458.026   3
  19 -14   6-852.335 1357.44   3
  14 -19   6-593.379 1180.86   3
 -14  -5   6-630.756 538.831   4
  14 -19   9 9541.33 1795.64   3
  19 -14   9 4261.44 1500.32   3
 -13  -6  -7 10240.6 1518.08   2
 -19   6  -7 7297.66 1328.65   2
  -6  19  -7 9193.34 1332.75   1
  13 -19  -7 8874.23 1279.02   4
  19 -13  -7 7591.34 1278.85   2
   6  13  -7 6348.79 1446.60   1
 -13  -6  -7 8888.92 1484.70   4
  19 -13  -7 5464.55 532.914   4
  19 -13  -7 7559.17 1275.75   1
 -19   6  -7 6712.96 1258.63   4
  13 -19  -7 7024.39 1607.22   2
  19 -13  -4 3863.34 1179.08   3
  19 -13  -4 7061.45 1114.05   2
 -19   6  -4 4974.98 472.194   1
   6  13  -4 4624.39 1262.95   1
  13 -19  -4 5223.48 682.895   3
 -13  -6  -4 3577.53 1015.75   2
  19 -13  -4 5193.96 924.763   1
  19 -13  -4 5040.82 501.079   4
  -6  19  -4 4559.30 975.647   1
  13 -19  -4 5371.69 1015.10   4
  13 -19  -4 4574.75 1382.66   2
 -13  -6  -4 4155.39 967.141   4
 -19   6  -4 4942.63 959.961   4
  19 -13  -1 14076.3 1560.62   3
 -13  -6  -1 13194.6 1096.12   2
  13 -19  -1 14048.7 1241.20   3
  -6  19  -1 14154.7 1211.43   1
   6  13  -1 12281.2 975.571   2
  13 -19  -1 14801.8 1250.12   4
  13 -19  -1 12249.1 1389.52   2
 -19   6  -1 11521.0 710.633   1
  19 -13  -1 13347.5 807.504   1
 -13  -6  -1 14315.7 1088.66   4
   6  13  -1 12100.9 1315.47   1
  19 -13  -1 12744.1 813.406   4
  -6  19   2 17231.3 943.187   3
  19 -13   2 17403.0 1830.16   3
  13 -19   2 15337.9 1539.58   3
  13 -19   2 14786.4 978.884   1
 -13  -6   2 18577.5 757.566   2
   6  13   2 17876.9 1199.17   3
 -13  -6   2 16189.3 953.150   4
   6  13   2 20751.9 1521.18   1
   6  13   5 3059.30 705.884   3
  13 -19   5 3718.35 1277.91   3
 -13  -6   5 3549.82 646.191   4
  13 -19   5 2519.57 589.346   1
  19 -13   8 11437.3 1815.20   3
  13 -19   8 10914.0 1800.95   3
 -13  -6   8 8500.48 860.769   4
  19 -12  -8 1454.62 952.771   2
  12 -19  -8 3066.56 1400.77   2
  -7  19  -8 1506.83 1056.31   1
 -12  -7  -8 1578.71 1222.14   2
 -19   7  -8 1239.78 1202.00   2
   7  12  -8 2944.92 1459.12   1
 -19   7  -8 2171.77 593.998   1
  12 -19  -8 2547.38 1122.79   4
 -12  -7  -8 2872.63 1179.95   4
  19 -12  -8 235.727 1024.80   1
 -19   7  -8 3581.22 1212.22   4
  19 -12  -5 14778.3 1704.62   3
 -12  -7  -5 12792.9 1543.73   2
 -19   7  -5 10260.5 541.710   1
  19 -12  -5 11974.2 1270.74   2
   7  12  -5 12640.2 1501.37   1
  12 -19  -5 13464.2 1351.05   4
  12 -19  -5 13288.0 1736.09   2
  -7  19  -5 10657.3 1162.97   1
  19 -12  -5 13218.4 1259.13   1
 -12  -7  -5 13871.5 1478.24   4
 -19   7  -5 14408.0 1410.54   4
  19 -12  -2 1899.78 570.670   1
  19 -12  -2 3436.85 1171.54   3
  19 -12  -2 2081.28 501.715   4
 -12  -7  -2 2069.76 739.495   2
  12 -19  -2 2826.40 707.797   3
   7  12  -2 1298.57 1014.27   1
  12 -19  -2 2905.00 866.670   4
  12 -19  -2 2234.28 1047.72   2
  -7  19  -2 2201.97 817.297   1
 -12  -7  -2 2487.72 786.998   4
 -19   7  -2 1674.20 338.639   1
  19 -12  -2 2235.63 419.899   4
  12 -19   1 12347.9 1182.64   4
  19 -12   1 15691.0 1713.07   3
  -7  19   1 15312.3 1124.63   3
 -12  -7   1 15129.0 895.984   2
  12 -19   1 14659.1 1362.56   3
   7  12   1 11861.2 1244.32   1
   7  12   1 9927.38 1101.33   3
 -12  -7   1 14445.8 996.246   4
 -19   7   1 14515.2 931.246   1
  12 -19   1 11607.8 956.957   1
  -7  19   1 13257.6 1198.18   1
  19 -12   1 12920.2 983.705   4
   7  12   4 2565.95 821.589   3
  12 -19   4 2613.29 614.793   1
  19 -12   4 5376.08 1394.51   3
   7  12   4 3592.26 982.379   1
  12 -19   4 3466.61 1227.29   3
 -12  -7   4 2664.09 630.605   4
   7  12   7 3856.79 797.798   3
  19 -12   7 4422.99 1474.39   3
  12 -19   7 7453.18 1493.73   3
 -12  -7   7 4243.93 748.866   4
  19 -11  -9 5409.82 1390.31   1
  11 -19  -9 6439.58 1669.20   2
  19 -11  -9 4543.27 1070.48   2
 -11  -8  -9 3881.23 1370.76   2
   8  11  -9 2531.52 1351.74   1
  11 -19  -9 4315.30 1270.72   4
 -11  -8  -9 5116.38 1430.37   4
  -8  19  -9 6377.60 1245.86   1
  -8  19  -6-496.083 852.378   1
 -11  -8  -6 3485.34 1153.03   2
  11 -19  -6 862.842 967.754   4
   8  11  -6 156.446 1179.30   1
 -19   8  -6 1094.25 287.380   1
  19 -11  -6 2031.71 881.384   2
 -11  -8  -6 686.437 967.898   4
 -19   8  -6 819.716 333.799   1
  11 -19  -6 874.164 1372.50   2
  19 -11  -6 2249.46 1000.32   1
 -19   8  -6 609.083 863.066   4
  19 -11  -3 4725.38 1245.91   3
  -8  19  -3 5297.95 878.892   1
   8  11  -3 4708.36 1192.06   1
  11 -19  -3 5974.12 663.075   3
 -11  -8  -3 4675.84 945.527   2
 -19   8  -3 3171.09 199.897   1
  19 -11  -3 4416.30 927.227   2
  19 -11  -3 3471.92 302.187   4
  11 -19  -3 3922.33 931.123   4
  19 -11  -3 4203.77 754.885   1
  11 -19  -3 6162.40 1288.87   2
 -11  -8  -3 4845.27 929.622   4
  19 -11  -3 3272.04 269.637   4
  11 -19   0 1221.93 908.387   4
  19 -11   0 1836.58 1102.27   3
   8  11   0 2040.08 896.625   1
  -8  19   0 446.431 695.130   3
 -11  -8   0 1493.96 657.966   2
  11 -19   0 2051.60 777.075   3
  19 -11   0 1465.03 432.378   1
  11 -19   0 2491.77 933.761   2
  -8  19   0 533.944 686.048   1
  11 -19   0 1319.65 687.420   1
 -11  -8   0 748.252 617.377   4
   8  11   0 2024.96 719.897   2
  19 -11   0 1252.88 480.814   4
   8  11   3 5526.68 1007.24   3
  11 -19   3 6595.53 815.525   1
  19 -11   3 6890.72 1456.84   3
   8  11   3 5899.69 1131.53   1
  11 -19   3 7489.80 1315.38   3
 -11  -8   3 4475.41 295.572   2
 -11  -8   3 6546.79 798.034   4
   8  11   6-16.3885 685.139   3
  19 -11   6-24.3867 1258.05   3
  11 -19   6 393.719 1095.03   3
 -11  -8   6 799.837 646.240   4
  19 -11   9 4291.31 1543.74   3
  11 -19   9 3454.03 1485.39   3
  10 -19  -7 6713.88 1516.21   2
  19 -10  -7 4115.78 1175.45   1
 -19   9  -7 4652.23 410.949   1
 -10  -9  -7 8351.64 1476.83   2
  -9  19  -7 4529.86 1013.83   1
   9  10  -7 7800.58 1550.42   1
  10 -19  -7 7934.31 1304.63   4
  19 -10  -7 7602.31 1120.38   2
 -10  -9  -7 5205.19 1212.48   4
  19 -10  -4 7147.90 1356.47   3
 -10  -9  -4 8053.62 1318.76   2
  10 -19  -4 6431.48 1065.41   4
   9  10  -4 7944.94 1289.96   1
  19 -10  -4 9132.57 1068.30   2
  10 -19  -4 9624.11 1439.46   2
  19 -10  -4 8463.32 1057.21   1
 -10  -9  -4 10184.9 1273.69   4
  -9  19  -4 7703.29 967.757   1
  19 -10  -1 8617.47 1378.92   3
 -10  -9  -1 6554.15 902.095   2
  10 -19  -1 7004.51 919.553   3
  10 -19  -1 6926.08 1163.63   2
   9  10  -1 5455.14 734.093   2
  10 -19  -1 5946.14 996.289   4
 -10  -9  -1 5474.83 875.438   4
   9  10  -1 5929.91 1109.48   1
  19 -10  -1 7936.36 605.701   4
  -9  19  -1 6996.09 906.448   1
  19 -10  -1 6887.34 678.558   1
  -9  19   2 16822.5 977.687   3
  19 -10   2 17222.1 1804.87   3
 -10  -9   2 17507.6 834.320   2
  10 -19   2 18942.9 1522.17   3
  10 -19   2 14432.0 1083.50   1
   9  10   2 19310.5 1437.51   1
 -10  -9   2 15831.8 1075.19   4
   9  10   5 6925.08 1039.70   3
  19 -10   5 7974.74 1450.23   3
  10 -19   5 7127.72 1500.83   3
 -10  -9   5 6454.74 860.391   4
  19 -10   8 4517.30 1527.27   3
   9  10   8 1284.00 788.293   3
  10 -19   8 2855.04 1303.00   3
 -10  -9   8 1993.52 802.085   4
   9 -19  -8-314.726 1255.91   2
  19  -9  -8 3320.25 1203.95   1
  19  -9  -8 2765.47 861.245   2
 -10  19  -8 2825.14 1027.85   1
  -9 -10  -8 957.036 1264.54   2
  10   9  -8 2014.43 1403.20   1
   9 -19  -8 2454.23 1105.74   4
  -9 -10  -8 2937.48 1216.32   4
  -9 -10  -5 7548.83 1235.97   4
  -9 -10  -5 8201.29 1377.36   2
  19  -9  -5 7734.53 970.936   2
   9 -19  -5 6914.27 1135.49   4
  19  -9  -5 8074.99 1120.87   1
  10   9  -5 8343.24 1384.11   1
 -10  19  -5 7179.03 944.569   1
   9 -19  -5 9111.95 1668.48   2
  19  -9  -2 18772.3 1787.83   3
  -9 -10  -2 19939.0 1464.40   2
   9 -19  -2 18295.4 1014.04   3
  10   9  -2 15412.8 807.831   2
  -9 -10  -2 18319.9 1327.54   4
   9 -19  -2 19677.2 1459.40   4
   9 -19  -2 20427.0 1676.02   2
 -10  19  -2 19426.8 1197.96   1
  10   9  -2 19571.1 1505.83   1
  19  -9  -2 19911.6 1132.68   1
  -9 -10   1 8294.50 811.895   2
  19  -9   1 8434.17 1423.12   3
  19  -9   1 8921.64 578.044   1
  10   9   1 8962.28 1133.99   1
   9 -19   1 8370.16 1118.16   3
   9 -19   1 7730.02 1066.73   4
   9 -19   1 8161.51 1144.44   2
  -9 -10   1 8950.06 952.549   4
 -10  19   1 6502.53 860.607   3
  19  -9   1 7952.10 797.975   4
  10   9   4 6373.52 1130.71   3
  19  -9   4 7802.42 1463.80   3
   9 -19   4 7807.07 1318.91   3
  -9 -10   4 6517.59 903.474   4
  10   9   4 7276.79 1119.57   1
  10   9   7 6048.30 1039.32   3
  19  -9   7 8022.96 1717.56   3
   9 -19   7 3632.14 1308.72   3
  -9 -10   7 7201.46 1002.50   4
 -11  19  -9 3756.36 1040.52   1
   8 -19  -9 4078.23 1512.34   2
  19  -8  -9 108.924 1214.93   1
  -8 -11  -9 3192.18 1383.84   2
  11   8  -9 3690.24 1434.31   1
   8 -19  -9 4159.69 1348.97   4
  -8 -11  -9 2507.88 1237.60   4
  19  -8  -6 1688.68 971.926   1
   8 -19  -6 224.821 904.057   4
  -8 -11  -6-177.340 1202.30   2
 -11  19  -6 733.594 763.042   1
  11   8  -6 84.9045 1105.64   1
  -8 -11  -6-546.652 1028.14   4
  19  -8  -6 466.295 718.000   2
   8 -19  -6-1863.23 1373.74   2
  19  -8  -3 6468.05 1372.13   3
  -8 -11  -3 7912.01 1179.30   2
  19  -8  -3 6875.74 944.353   1
 -11  19  -3 7707.51 851.080   1
  11   8  -3 6953.93 1208.45   1
   8 -19  -3 6743.78 1078.92   4
  -8 -11  -3 5652.38 1066.19   4
   8 -19  -3 7830.42 1417.57   2
  19  -8   0 2810.59 1106.37   3
   8 -19   0 1183.36 856.317   4
  -8 -11   0 1082.56 681.244   2
 -11  19   0 1317.78 749.045   3
   8 -19   0 2656.90 759.152   3
   8 -19   0 2277.73 911.789   2
  -8 -11   0 1806.72 787.073   4
  19  -8   0 2287.13 571.667   1
  19  -8   0-127.461 409.491   4
  11   8   0 618.018 826.261   1
  11   8   0 863.959 664.983   2
  11   8   3 6651.29 1059.72   1
  11   8   3 2734.09 1037.33   3
  19  -8   3 3973.52 1230.23   3
   8 -19   3 5227.69 1205.10   3
  -8 -11   3 5519.68 888.913   4
  -8 -11   3 4235.21 500.034   2
  11   8   6 472.163 848.385   3
  19  -8   6 1477.17 1277.17   3
   8 -19   6 1873.91 1192.14   3
  -8 -11   6 1185.36 774.029   4
  11   8   9 5534.87 1096.85   3
  19  -8   9 2932.15 1450.35   3
   8 -19   9 3710.12 1558.28   3
   7 -19  -7 5093.56 1520.95   2
  19  -7  -7 5924.27 1200.09   1
  -7 -12  -7 5537.26 1460.63   2
 -12  19  -7 4910.52 902.060   1
  12   7  -7 5693.38 1382.56   1
   7 -19  -7 3621.46 1140.48   4
  19  -7  -7 5077.22 813.258   2
  -7 -12  -7 3076.54 1110.16   4
  19  -7  -4 2991.62 711.314   2
  -7 -12  -4 1397.81 1033.68   2
  19  -7  -4 3739.52 921.152   1
 -12  19  -4 3209.68 680.296   1
   7 -19  -4 4354.06 1066.83   4
  -7 -12  -4 1729.04 896.420   4
  12   7  -4 798.963 1060.41   1
   7 -19  -4 2345.07 1231.50   2
  19  -7  -1 12304.4 1606.55   3
  19  -7  -1 11549.0 911.098   1
 -12  19  -1 12968.0 993.388   1
  19  -7  -1 10906.8 982.815   2
   7 -19  -1 14033.7 1011.82   3
  12   7  -1 10757.9 960.139   4
   7 -19  -1 14212.3 1344.88   4
   7 -19  -1 13603.9 1441.15   2
  -7 -12  -1 11337.5 1164.70   4
  12   7  -1 14733.3 1314.19   1
  12   7  -1 11236.5 916.135   2
  19  -7  -1 13154.3 648.399   4
  -7 -12  -1 14553.8 1236.31   2
  12   7   2 2424.29 1070.17   3
 -12  19   2 2727.94 633.194   3
  -7 -12   2 3735.03 670.198   2
  12   7   2 1603.46 836.099   1
  19  -7   2 2563.46 1226.53   3
  19  -7   2 2765.39 430.044   1
   7 -19   2 1648.43 952.818   3
   7 -19   2 2178.18 903.325   2
  -7 -12   2 3410.82 846.672   4
  19  -7   2 2274.46 659.490   4
   7 -19   2 1839.60 888.285   4
  12   7   5 11325.7 1398.21   3
  19  -7   5 15284.0 1847.98   3
   7 -19   5 13019.3 1665.12   3
  -7 -12   5 12963.8 1190.27   4
  12   7   8 2369.27 1009.69   3
  19  -7   8 2856.33 1366.46   3
   7 -19   8 2067.09 1258.14   3
  -6 -13  -8 13248.4 1824.65   2
  13   6  -8 12279.7 1786.32   1
 -13  19  -8 12840.4 1179.70   1
   6 -19  -8 12461.6 1686.29   4
  -6 -13  -8 12838.2 1636.70   4
  19  -6  -8 12653.3 1554.05   1
   6 -19  -8 16257.6 2065.36   2
 -13  19  -5 3039.01 705.718   1
  -6 -13  -5 3109.86 1151.75   2
  19  -6  -5 4676.27 1101.81   1
  13   6  -5 4455.58 1277.47   1
   6 -19  -5 1604.02 931.753   4
  19  -6  -5 2339.26 658.240   2
  -6 -13  -5 3096.17 1056.10   4
   6 -19  -5 4140.50 1358.92   2
  19  -6  -2 13658.5 1718.07   3
  19  -6  -2 15520.8 1110.47   1
  19  -6  -2 16712.8 1066.94   2
 -13  19  -2 17082.8 1030.06   1
  13   6  -2 18889.4 1466.91   1
   6 -19  -2 16238.8 1431.78   4
  13   6  -2 15128.1 808.726   2
   6 -19  -2 18083.9 1675.35   2
  -6 -13  -2 17942.9 1433.66   4
  -6 -13  -2 17227.2 1450.85   2
 -13  19   1 12235.9 1134.31   3
  19  -6   1 9725.89 1572.20   3
  13   6   1 12619.8 1250.46   1
   6 -19   1 13574.1 1282.68   3
   6 -19   1 13324.5 1300.78   4
   6 -19   1 13430.8 1305.37   2
  -6 -13   1 12826.0 1157.81   4
  19  -6   1 11613.6 908.031   4
  19  -6   1 12782.0 868.733   1
  -6 -13   1 11906.3 1049.54   2
  -6 -13   4 4455.62 573.702   2
  13   6   4 3343.73 1093.16   3
  19  -6   4 2539.17 1284.31   3
  13   6   4 4488.52 990.623   1
   6 -19   4 5154.56 1255.53   3
  -6 -13   4 5538.18 987.644   4
   6 -19   4 4635.37 979.408   2
  13   6   7 7033.47 1302.16   3
  19  -6   7 7194.30 1538.19   3
   6 -19   7 9660.55 1609.13   3
   5 -19  -9 6632.41 1748.46   2
  19  -5  -9 5365.81 1528.53   1
  -5 -14  -9 3888.22 1570.66   2
 -14  19  -9 6149.07 1005.31   1
  14   5  -9 7752.74 1711.68   1
   5 -19  -9 5107.67 1343.91   4
  -5 -14  -9 4557.25 1446.13   4
  -5 -14  -6-548.092 1069.29   2
  19  -5  -6 1685.03 1063.42   1
  14   5  -6 761.147 1045.54   1
   5 -19  -6 1097.22 936.810   4
 -14  19  -6-93.1889 614.787   1
  -5 -14  -6 206.339 924.462   4
  19  -5  -6 1273.31 504.100   2
  19  -5  -3 15037.8 1230.88   1
 -14  19  -3 17741.8 956.701   1
  19  -5  -3 14029.0 914.404   2
  14   5  -3 15772.2 1443.36   1
  -5 -14  -3 16712.5 1459.94   4
   5 -19  -3 15904.8 1702.11   2
   5 -19  -3 17936.1 1526.70   4
  -5 -14  -3 14600.1 1488.79   2
  14   5   0 1513.16 759.510   2
  -5 -14   0 3138.84 867.762   2
  19  -5   0 4818.62 1341.48   3
  19  -5   0 3869.47 764.250   1
  19  -5   0 2304.63 536.810   4
   5 -19   0 2470.50 767.306   3
   5 -19   0 2650.63 971.232   4
  14   5   0 1652.24 693.551   4
  14   5   0 2985.47 921.914   1
  -5 -14   0 2856.93 897.244   4
   5 -19   0 1986.15 972.195   2
  14   5   3 19292.0 1811.61   3
  19  -5   3 20063.4 1946.93   3
   5 -19   3 20708.2 1638.44   3
  19  -5   3 19084.0 892.923   1
   5 -19   3 20004.9 1471.04   4
   5 -19   3 18447.2 1396.33   2
  -5 -14   3 18451.4 1387.45   4
  -5 -14   3 18319.5 1060.51   2
  14   5   3 17805.1 1373.37   1
  -5 -14   6 1974.49 340.098   2
  14   5   6 2727.57 1165.50   3
  19  -5   6 4902.62 1476.72   3
   5 -19   6 3350.59 1330.34   3
  -5 -14   6 1626.06 385.765   2
  -5 -14   6 2021.96 886.067   4
  14   5   9 2563.42 1058.77   3
  19  -5   9 3199.27 1434.32   3
   5 -19   9 4489.88 1507.52   3
   4 -19  -7 6320.09 1569.93   2
  -4 -15  -7 4716.90 1396.09   2
  19  -4  -7 6532.85 1368.88   1
  15   4  -7 5635.38 1384.93   1
 -15  19  -7 4808.91 779.441   1
  -4 -15  -7 6643.26 1355.56   4
   4 -19  -7 6772.22 1330.81   4
  -4 -15  -4 487.344 1090.16   2
   4 -19  -4-362.288 875.026   4
  19  -4  -4 2719.63 914.656   1
  19  -4  -4 421.844 440.800   2
 -15  19  -4 6.09788 449.637   1
  15   4  -4-70.2050 1039.59   1
  -4 -15  -4 547.526 971.661   4
   4 -19  -4-915.932 1277.77   2
  19  -4  -4 785.248 526.912   2
  19  -4  -1 4804.07 1389.89   3
  19  -4  -1 3975.20 737.583   2
  -4 -15  -1 4267.58 968.394   4
  19  -4  -1 6065.66 893.261   1
  15   4  -1 5744.34 790.704   4
  15   4  -1 6299.22 1138.09   1
  19  -4  -1 5339.69 555.213   4
   4 -19  -1 3276.42 970.718   4
  15   4  -1 4791.15 769.797   2
  -4 -15  -1 5897.01 1084.11   2
   4 -19  -1 5921.51 1177.57   2
  19  -4   2 8655.07 1492.69   3
 -15  19   2 4817.92 813.607   3
  15   4   2 4762.48 1258.30   3
  19  -4   2 6996.85 757.924   1
  15   4   2 6009.00 1027.07   1
   4 -19   2 6896.41 1196.45   3
  -4 -15   2 6636.76 1037.90   4
   4 -19   2 6270.60 1170.55   4
  -4 -15   2 5769.34 896.380   2
   4 -19   2 6466.64 1095.54   2
  15   4   5 11319.0 1479.39   3
  19  -4   5 11861.2 1779.67   3
   4 -19   5 10445.2 1511.47   3
   4 -19   5 11559.6 1231.53   2
  -4 -15   5 12255.5 1314.57   4
  -4 -15   5 10202.2 821.469   2
  15   4   8 1387.01 1090.50   3
  19  -4   8 2157.40 1270.02   3
   4 -19   8 3483.03 1490.63   3
  19  -3  -8 9919.30 1526.91   1
  -3 -16  -8 10107.3 1728.79   2
  16   3  -8 14668.7 1801.65   1
   3 -19  -8 10073.3 1610.48   4
  -3 -16  -8 12997.9 1678.74   4
   3 -19  -8 10468.5 1843.73   2
   3 -19  -5 477.743 1266.22   2
  -3 -16  -5 2671.07 1072.32   4
  -3 -16  -5 4557.10 1357.06   2
  19  -3  -5 1671.32 292.606   2
 -16  19  -5 2430.52 420.409   1
  19  -3  -5 2489.29 1009.59   1
   3 -19  -5 1652.79 1012.19   4
  16   3  -5 3014.32 1132.56   1
  19  -3  -5 2461.64 366.334   2
   3 -19  -2 9961.54 1517.06   2
  19  -3  -2 9402.53 844.240   2
  19  -3  -2 10087.9 1083.45   1
  16   3  -2 8932.69 1220.17   1
   3 -19  -2 8255.15 1222.75   4
  -3 -16  -2 8708.21 1205.55   4
  16   3  -2 8423.35 759.445   2
  -3 -16  -2 10725.6 1366.41   2
  16   3   1 4960.79 1377.10   3
  19  -3   1 3842.38 1398.74   3
   3 -19   1 3412.04 991.808   2
  16   3   1 4623.07 929.378   1
   3 -19   1 4795.45 1004.75   3
   3 -19   1 2580.04 935.080   4
  -3 -16   1 4972.06 1087.28   4
  19  -3   1 3113.13 723.979   4
  19  -3   1 4525.25 785.069   1
  -3 -16   1 4594.29 965.902   2
  16   3   4 1552.55 1205.61   3
  19  -3   4 2227.92 1262.30   3
   3 -19   4 3388.15 1073.47   4
   3 -19   4 3413.79 1280.99   3
  -3 -16   4 2511.77 934.660   4
  16   3   4 2671.24 771.766   1
   3 -19   4 1221.08 850.846   2
  -3 -16   4 2427.70 717.281   2
  16   3   7 3801.04 1321.23   3
  19  -3   7 7144.48 1571.00   3
   3 -19   7 4002.66 1368.29   3
  -3 -16   7 2816.27 573.944   2
   2 -19  -9 9395.09 1934.24   2
  -2 -17  -9 9325.10 1893.46   2
  19  -2  -6 7092.96 1347.05   1
  -2 -17  -6 8403.53 1585.57   2
  17   2  -6 8727.82 1544.90   1
 -17  19  -6 4789.88 433.286   1
   2 -19  -6 8862.95 1370.49   4
  -2 -17  -6 9403.85 1357.62   4
   2 -19  -6 8936.31 1647.79   2
  19  -2  -3 8136.59 711.047   2
  19  -2  -3 10302.7 1168.18   1
  17   2  -3 10728.0 1317.27   1
   2 -19  -3 10291.7 1540.73   2
  -2 -17  -3 10701.3 1367.45   4
   2 -19  -3 10464.4 1321.90   4
  17   2  -3 6622.00 506.000   2
  -2 -17  -3 11581.8 1500.98   2
  17   2   0 5905.55 1405.98   3
  19  -2   0 5147.42 1404.35   3
  17   2   0 3051.01 786.484   2
   2 -19   0 3420.67 1120.62   4
  17   2   0 4454.28 969.662   1
  17   2   0 5498.84 889.956   4
  19  -2   0 6724.71 968.779   1
  19  -2   0 4684.76 746.002   4
  -2 -17   0 4651.61 1115.54   4
   2 -19   0 3830.08 1116.52   2
  -2 -17   0 4583.29 1021.25   2
  19  -2   3 6076.47 806.311   1
  17   2   3 6926.11 1447.82   3
  19  -2   3 4849.32 1410.24   3
   2 -19   3 7622.56 1286.14   3
  -2 -17   3 6942.55 1210.16   4
   2 -19   3 7193.98 1100.48   2
   2 -19   3 4830.82 1137.45   4
  17   2   3 4387.64 897.830   1
  -2 -17   3 6045.22 970.873   2
  17   2   6 9699.29 1605.63   3
  19  -2   6 11433.3 1789.84   3
  -2 -17   6 7818.82 842.320   2
   2 -19   6 9598.28 1596.03   3
  -2 -17   6 8361.01 1270.27   4
   2 -19   6 8339.40 1063.30   2
  17   2   9 3529.53 1247.09   3
  19  -2   9 8043.69 1682.11   3
   2 -19   9 6369.56 1665.78   3
   1 -19  -7 359.931 1333.04   2
  -1 -18  -7 1219.30 1269.90   2
  19  -1  -7 3075.58 1182.15   1
  18   1  -7 3978.08 1343.25   1
   1 -19  -7 2944.93 1152.50   4
  -1 -18  -7 1690.90 1154.63   4
   1 -19  -4 4343.98 1311.06   2
  -1 -18  -4 1813.56 1295.32   2
  19  -1  -4 2428.29 1072.18   1
  19  -1  -4 2011.11 312.899   2
  18   1  -4 3359.45 1102.37   1
   1 -19  -4 4162.72 1156.43   4
  -1 -18  -4 1894.28 991.182   4
  19  -1  -4 2614.39 342.928   2
  19  -1  -1-5.36523 1201.21   3
  19  -1  -1 4479.85 995.719   1
  18   1  -1 3083.52 752.486   2
  18   1  -1 5546.53 1071.89   1
  19  -1  -1 3609.20 763.181   2
  18   1  -1 2500.85 654.050   4
  19  -1  -1 3497.53 654.039   4
   1 -19  -1 4261.00 1141.34   4
  -1 -18  -1 5496.61 1144.83   4
   1 -19  -1 8514.49 1352.00   2
  -1 -18  -1 5506.76 1233.49   2
  18   1   2 3387.38 1347.89   3
  19  -1   2 3291.74 1387.68   3
   1 -19   2 4492.68 1150.49   4
  -1 -18   2 3658.64 1083.73   4
   1 -19   2 4870.06 1076.89   2
  -1 -18   2 3826.68 983.379   2
  19  -1   2 3823.96 856.370   1
  18   1   2 4319.31 847.744   1
  18   1   5 329.324 1184.24   3
  19  -1   5-62.0595 1260.05   3
   1 -19   5-199.399 1056.56   3
   1 -19   5 302.729 958.520   4
  -1 -18   5 625.876 924.920   4
   1 -19   5 1010.89 754.418   2
  -1 -18   5-494.815 681.414   2
  18   1   8-265.604 1221.49   3
  19  -1   8 766.582 1149.69   3
   1 -19   8 157.862 704.478   2
   1 -19   8-18.9179 1346.27   3
  -1 -18   8 938.697 1317.83   3
  19   0  -8 9768.10 1592.36   1
   0 -19  -8 11040.7 1832.71   2
   0 -19  -8 9136.00 1542.10   4
   0 -19  -5 503.717 1169.98   2
  19   0  -5 1376.05 1075.97   1
   0 -19  -5-290.316 991.622   4
  19   0  -2 19390.7 1545.59   1
   0 -19  -2 18128.6 1578.16   4
   0 -19  -2 16400.3 1693.75   2
  19   0  -2 16658.0 1046.76   2
  19   0   1 378.619 748.742   1
  19   0   1-5.59412 1194.10   3
   0 -19   1 65.1750 963.665   4
   0 -19   1 988.216 983.458   2
  19   0   4 80.2767 1284.42   3
   0 -19   4 2146.13 1164.67   3
   0 -19   4 1678.89 976.788   4
   0 -19   4 2926.52 885.831   2
  19   0   7 838.515 1265.26   3
   0 -19   7 2216.25 1463.55   3
   0 -19   7 299.641 657.101   2
   0  20  -8 3838.44 1367.00   1
 -20   0  -8 2901.85 1262.16   2
  20 -20  -8 2149.13 1496.31   1
  20 -20  -8 1704.33 1379.67   2
 -20   0  -8 3462.63 1318.95   4
  20 -20  -5-377.702 923.194   3
   0  20  -5-136.138 1188.91   1
 -20   0  -5-629.731 901.232   2
  20 -20  -5-38.9162 833.296   4
  20 -20  -5-364.633 1148.65   2
 -20   0  -5-77.3052 883.199   4
  20 -20  -2 1986.57 1119.40   3
   0  20  -2 1718.04 1001.70   1
 -20   0  -2 1819.76 831.526   2
  20 -20  -2 1294.12 868.455   4
  20 -20  -2 1307.36 1049.37   2
 -20   0  -2 73.4684 675.763   4
  20 -20   1 120.090 446.813   1
  20 -20   1 295.550 1095.36   3
   0  20   1-194.605 750.298   3
   0  20   1 1634.25 944.043   1
 -20   0   1 688.373 463.662   4
   0  20   4-111.481 196.275   3
  20 -20   4-836.035 1197.35   3
  20 -20   7 824.944 1342.67   3
  20 -19  -6 4812.38 1181.87   3
  19 -20  -6 4931.63 1042.60   3
  19 -20  -6 7050.69 1154.40   4
 -19  -1  -6 7713.20 1375.65   2
 -20   1  -6 7638.99 1338.26   2
   1  19  -6 8639.36 1474.40   1
  -1  20  -6 7043.64 1420.84   1
  20 -19  -6 5396.81 1356.85   1
  20 -19  -6 6201.96 993.673   4
  20 -19  -6 5303.05 1440.64   2
  19 -20  -6 3665.93 1321.73   2
 -20   1  -6 7132.98 1259.93   4
 -19  -1  -6 4402.27 1170.94   4
  20 -19  -3 8460.40 1398.07   3
  19 -20  -3 10213.9 1406.87   3
 -19  -1  -3 8560.49 1157.38   2
 -20   1  -3 11631.6 1318.57   2
  19 -20  -3 8634.26 1467.11   2
  19 -20  -3 8454.96 1118.73   4
  20 -19  -3 9063.57 1072.47   4
  20 -19  -3 7296.27 1281.68   2
 -19  -1  -3 8956.99 1123.45   4
 -20   1  -3 9379.52 1095.34   4
   1  19  -3 7749.91 1274.90   1
  -1  20  -3 7074.16 1289.60   1
  19 -20   0 11565.1 865.543   1
  20 -19   0 11927.6 1564.29   3
  19 -20   0 12891.5 1598.58   3
  20 -19   0 10853.7 772.727   1
   1  19   0 11521.9 1366.40   1
  19 -20   0 12660.0 1275.06   4
  -1  20   0 14777.2 1462.41   1
 -20   1   0 12891.3 880.554   4
 -19  -1   0 12514.7 908.106   4
  20 -19   3 10828.5 1713.01   3
  19 -20   3 12044.4 1692.44   3
  -1  20   3 8030.69 715.364   3
   1  19   3 8114.27 843.022   3
  -1  20   3 13290.3 1431.37   1
   1  19   3 12255.1 1551.25   1
  20 -19   6 1647.89 1338.96   3
  19 -20   6 2972.83 1380.62   3
   2  18  -7 5807.59 1407.96   1
  20 -18  -7 1666.63 1058.97   3
  -2  20  -7 2476.84 1275.81   1
 -18  -2  -7 4973.48 1403.91   2
 -20   2  -7 1168.11 1053.78   2
  20 -18  -7 2274.51 1192.33   1
  18 -20  -7 3831.16 1059.02   4
  20 -18  -7 2632.47 821.792   4
  20 -18  -7 3800.08 1373.80   2
  18 -20  -7 560.815 1230.15   2
 -18  -2  -7 4566.62 1240.28   4
 -20   2  -7 1448.55 1105.52   4
 -20   2  -4 1252.01 717.156   1
  20 -18  -4 520.628 978.185   3
  20 -18  -4 1182.44 1072.99   2
  18 -20  -4 1638.60 941.284   3
 -18  -2  -4 856.491 896.086   2
   2  18  -4 970.132 1099.64   1
 -20   2  -4 1157.18 972.623   2
  -2  20  -4 3066.32 1124.34   1
  20 -18  -4 1719.53 856.434   1
  18 -20  -4-17.3074 831.924   4
  20 -18  -4 2068.63 802.647   4
  18 -20  -4 441.248 1029.46   2
 -18  -2  -4 940.302 818.196   4
 -20   2  -4 1012.43 829.983   4
  20 -18  -1 13358.6 1613.26   3
  18 -20  -1 13589.6 1551.00   3
   2  18  -1 13430.2 1459.65   1
  20 -18  -1 12555.9 938.781   1
  -2  20  -1 13551.8 1377.57   1
 -18  -2  -1 15115.3 1191.64   2
  18 -20  -1 11671.7 966.510   1
  20 -18  -1 14107.1 911.072   1
  20 -18  -1 15151.6 1190.27   4
  18 -20  -1 14837.9 1586.85   2
  18 -20  -1 11802.9 1248.66   4
 -18  -2  -1 13688.6 1067.81   4
 -20   2  -1 13520.0 1002.90   4
   2  18   2-663.899 1043.88   1
  20 -18   2 1172.09 1156.85   3
  18 -20   2 125.919 1167.30   3
  -2  20   2 1046.65 656.118   3
   2  18   2-110.257 677.683   3
  18 -20   2 500.598 406.176   1
 -18  -2   2 620.453 416.016   4
  -2  20   2 199.209 927.912   1
  18 -20   5 10289.6 1723.65   3
  20 -18   5 8764.22 1623.20   3
  20 -18   8 916.994 1354.55   3
  18 -20   8 1031.23 1341.26   3
  20 -17  -8 3602.13 1300.29   1
  20 -17  -8 350.264 1074.62   3
  -3  20  -8 3684.19 1235.05   1
 -17  -3  -8 3264.87 1333.80   2
 -20   3  -8 3431.90 1257.41   2
  17 -20  -8 2926.69 1073.26   4
 -17  -3  -8 3630.65 1415.02   4
  20 -17  -8 539.861 1182.79   2
 -20   3  -8 3029.43 1187.38   4
  17 -20  -8 1758.27 1391.66   2
   3  17  -8 2957.48 1386.96   1
  20 -17  -5 1702.57 1085.45   3
  17 -20  -5 1610.07 900.129   3
   3  17  -5 791.272 1212.98   1
 -17  -3  -5 2951.45 1122.77   2
  -3  20  -5 1359.93 1074.73   1
 -20   3  -5 1235.52 934.139   2
  17 -20  -5 519.624 874.447   4
  20 -17  -5 159.004 907.549   1
  20 -17  -5 1399.64 723.166   4
  20 -17  -5 885.830 1074.13   2
  17 -20  -5 670.990 1220.68   2
 -17  -3  -5 2026.32 963.730   4
 -20   3  -5 1074.08 956.296   4
  20 -17  -2 4549.91 1192.67   3
  17 -20  -2 1603.70 987.447   3
 -20   3  -2 2451.18 631.602   1
  -3  20  -2 1167.39 841.764   1
 -17  -3  -2 3629.54 914.794   2
  20 -17  -2 2298.64 790.434   4
  17 -20  -2 3419.07 922.670   4
  20 -17  -2 3247.73 717.824   1
 -17  -3  -2 2204.24 762.030   4
  17 -20  -2 3717.34 1231.25   2
   3  17  -2 2642.11 1063.99   1
 -20   3  -2 1730.70 702.750   4
  20 -17  -2 2375.13 1092.06   2
  -3  20   1 2388.09 960.404   1
  20 -17   1 2738.05 1142.79   3
  17 -20   1 2279.68 631.665   1
  17 -20   1 3243.00 1192.80   3
   3  17   1 2818.51 1106.26   1
  -3  20   1 3585.99 838.102   3
   3  17   1 3222.38 866.136   3
  20 -17   1 2655.29 316.999   1
  20 -17   1 2767.13 264.070   1
 -17  -3   1 2811.87 556.240   4
 -20   3   1 2775.58 398.209   4
   3  17   4 4556.05 677.885   3
  20 -17   4 6232.52 1652.11   3
   3  17   4 4104.41 614.903   3
 -17  -3   4 4330.09 403.274   4
  17 -20   4 4441.86 398.612   1
  20 -17   7 2295.98 1353.41   3
  17 -20   7 1543.12 1263.59   3
  20 -16  -6 8057.06 1409.70   3
   4  16  -6 8661.81 1522.95   1
  16 -20  -6 7893.94 864.175   3
  16 -20  -6 8473.18 1200.55   4
 -16  -4  -6 9011.36 1498.60   2
 -20   4  -6 9684.11 1396.26   2
  20 -16  -6 9101.43 1306.73   1
  -4  20  -6 10613.9 1383.04   1
  20 -16  -6 9912.64 1426.88   2
  16 -20  -6 12058.9 1760.99   2
  20 -16  -6 9874.71 881.965   4
 -16  -4  -6 11969.4 1543.16   4
 -20   4  -6 10581.3 1497.69   4
 -20   4  -3 3593.64 627.023   1
  -4  20  -3 3983.30 1034.69   1
  20 -16  -3 1981.17 1091.92   3
 -16  -4  -3 8545.81 1161.07   2
  16 -20  -3 5007.23 975.127   3
   4  16  -3 5795.01 1243.71   1
  20 -16  -3 5747.47 798.125   4
  16 -20  -3 5615.21 1061.00   4
  20 -16  -3 4542.82 1151.44   2
  16 -20  -3 5953.84 1302.81   2
  20 -16  -3 4794.30 835.440   1
 -16  -4  -3 4386.34 948.612   4
 -20   4  -3 6073.97 923.198   4
  20 -16   0 6997.49 1387.28   3
  16 -20   0 9499.62 1326.57   3
  -4  20   0 8576.87 1165.42   3
   4  16   0 8737.48 1233.64   1
 -16  -4   0 8266.22 896.079   2
  16 -20   0 8507.30 1303.40   2
  16 -20   0 10091.0 1201.62   4
  20 -16   0 8380.79 570.738   1
 -20   4   0 8167.37 805.707   1
 -16  -4   0 9693.63 882.997   4
  -4  20   0 8950.50 1191.04   1
 -20   4   0 8796.97 678.294   4
  20 -16   0 9130.84 641.454   1
  16 -20   0 7704.03 822.348   1
   4  16   3 11813.2 1088.76   3
  -4  20   3 6941.68 468.434   3
  20 -16   3 10843.8 1776.85   3
  16 -20   3 11888.0 1551.49   3
   4  16   3 9005.11 897.255   3
   4  16   3 12458.9 1447.30   1
 -16  -4   3 9639.71 693.544   4
  16 -20   3 11458.2 697.892   1
 -16  -4   6 2752.82 404.523   4
  20 -16   6 3199.84 1519.34   3
  16 -20   6 5367.67 1409.68   3
  20 -15  -7 9188.81 1432.83   3
 -15  -5  -7 7607.40 1518.61   2
   5  15  -7 8674.24 1564.55   1
 -20   5  -7 6968.28 1354.72   2
  -5  20  -7 6167.43 1336.43   1
  20 -15  -7 11965.9 1529.41   1
  15 -20  -7 7248.57 1292.70   4
  20 -15  -7 8818.25 1369.86   2
  15 -20  -7 8228.88 1727.11   2
 -15  -5  -7 7742.69 1367.22   4
 -20   5  -7 9582.08 1395.46   4
 -20   5  -4 4818.39 597.041   1
  20 -15  -4 4794.32 1228.75   3
  15 -20  -4 5478.02 902.409   3
 -15  -5  -4 6205.22 1141.29   2
  20 -15  -4 5479.60 678.581   4
   5  15  -4 3709.87 1202.96   1
  15 -20  -4 6438.03 1136.66   4
  20 -15  -4 4878.29 1128.08   2
  -5  20  -4 3506.82 994.348   1
  15 -20  -4 3529.32 1282.96   2
  20 -15  -4 4223.17 866.701   1
 -15  -5  -4 4365.00 1006.02   4
 -20   5  -4 5992.01 1037.73   4
   5  15  -1 28604.3 1858.89   1
  20 -15  -1 27906.2 2149.88   3
  15 -20  -1 30500.2 1832.97   3
 -15  -5  -1 32359.7 1604.14   2
  -5  20  -1 27539.3 1626.45   1
   5  15  -1 21996.5 1303.84   2
  15 -20  -1 29443.0 1654.48   4
  15 -20  -1 27087.3 1795.39   2
  20 -15  -1 29939.4 1113.18   1
  20 -15  -1 31540.9 1371.37   4
 -20   5  -1 25142.9 1073.77   1
 -15  -5  -1 27490.5 1409.34   4
 -20   5  -1 27528.4 1201.51   4
  20 -15   2 3018.53 1235.24   3
  -5  20   2 2373.38 610.352   3
  -5  20   2 2194.37 877.605   1
  15 -20   2 3429.53 1140.76   3
   5  15   2 1971.02 729.972   3
   5  15   2 1873.06 985.121   1
  15 -20   2 1831.59 626.427   1
 -15  -5   2 1950.91 559.200   4
   5  15   5 9760.76 869.418   3
  20 -15   5 11748.2 1799.75   3
  15 -20   5 10145.4 1609.97   3
   5  15   5 8329.82 731.069   3
 -15  -5   5 10993.7 742.293   4
  15 -20   5 9866.18 735.133   1
  20 -15   8 347.832 1228.87   3
  15 -20   8 1834.51 1386.31   3
  14 -20  -8 2061.77 1427.11   2
  20 -14  -8 1593.86 1081.04   3
  -6  20  -8 4303.47 1233.23   1
 -14  -6  -8 3427.29 1309.73   2
 -20   6  -8 2784.22 1273.19   2
  14 -20  -8 2403.19 1071.05   4
   6  14  -8 3127.23 1448.15   1
  20 -14  -8 1955.22 1095.48   1
 -14  -6  -8 1959.04 1128.95   4
  20 -14  -8 3083.88 1154.54   2
 -20   6  -8 3254.43 1202.13   4
  20 -14  -5 11848.1 1516.13   3
  20 -14  -5 7338.19 546.079   4
 -14  -6  -5 11008.1 1485.29   2
  14 -20  -5 8172.74 661.675   3
 -20   6  -5 8246.26 632.883   1
   6  14  -5 11259.5 1530.49   1
  -6  20  -5 10490.4 1273.94   1
  20 -14  -5 9665.14 1230.03   1
  14 -20  -5 10926.1 1263.38   4
  20 -14  -5 7109.58 1174.12   2
 -14  -6  -5 10797.3 1360.98   4
  14 -20  -5 8527.87 1572.11   2
 -20   6  -5 10703.5 1211.80   4
  20 -14  -2 29719.7 2119.21   3
  14 -20  -2 24299.4 1810.46   2
 -14  -6  -2 26603.6 1628.02   2
  14 -20  -2 26366.4 1546.63   3
  -6  20  -2 22796.0 1487.23   1
  20 -14  -2 21990.7 1072.97   4
  14 -20  -2 24517.7 1572.73   4
  20 -14  -2 21999.2 1134.13   1
 -20   6  -2 21538.0 871.382   1
 -14  -6  -2 24541.6 1453.73   4
   6  14  -2 24507.6 1715.95   1
 -20   6  -2 25899.0 1309.05   4
  20 -14  -2 19302.0 884.505   4
  20 -14   1 15338.5 1759.42   3
  -6  20   1 12312.6 1064.75   3
  14 -20   1 10563.9 1344.61   3
 -14  -6   1 14219.1 903.954   2
   6  14   1 14560.3 1428.44   1
  -6  20   1 13024.8 1272.35   1
  14 -20   1 13134.0 1191.53   4
  14 -20   1 12509.5 1021.49   1
 -20   6   1 11278.2 914.578   1
 -14  -6   1 11644.0 927.262   4
   6  14   4 4250.22 861.558   3
  14 -20   4 4083.26 625.350   1
  20 -14   4 4374.43 1471.39   3
   6  14   4 4515.35 1094.07   1
  14 -20   4 5246.24 1359.46   3
 -14  -6   4 5132.29 671.491   4
   6  14   7 4717.63 660.003   3
  20 -14   7 4123.95 1417.40   3
  14 -20   7 4796.06 1490.59   3
 -14  -6   7 4848.96 684.262   4
  -7  20  -9 4302.83 1303.59   1
  13 -20  -9 4159.27 1547.16   2
  20 -13  -9 5514.20 1244.90   2
 -13  -7  -9 4320.19 1408.72   2
   7  13  -9 7816.75 1679.89   1
  13 -20  -9 4332.08 1213.08   4
 -13  -7  -9 6418.41 1559.13   4
  20 -13  -9 5363.78 1481.95   1
 -20   7  -9 8310.57 1626.09   4
  20 -13  -6 11174.6 1608.18   3
  -7  20  -6 9638.85 1265.64   1
 -13  -7  -6 12064.3 1555.44   2
 -13  -7  -6 13577.9 1558.74   4
   7  13  -6 12238.1 1648.52   1
  20 -13  -6 9626.09 1272.58   1
  13 -20  -6 12456.8 1382.13   4
  13 -20  -6 9989.87 1662.51   2
  20 -13  -6 10689.1 1322.27   2
 -20   7  -6 10466.7 1309.12   4
  20 -13  -3 4756.77 1220.66   3
  -7  20  -3 5362.40 985.378   1
 -13  -7  -3 5762.30 1097.67   2
  13 -20  -3 5389.68 777.970   3
   7  13  -3 4972.38 1188.71   1
  20 -13  -3 4496.03 547.102   4
  20 -13  -3 2583.66 947.213   2
  20 -13  -3 4754.90 812.541   1
  13 -20  -3 3344.03 916.178   4
 -20   7  -3 3135.23 370.253   1
 -13  -7  -3 5248.79 994.193   4
  13 -20  -3 5473.99 1299.88   2
  20 -13  -3 3206.19 378.881   4
 -20   7  -3 4693.91 835.923   4
  20 -13   0 8387.62 594.459   1
  20 -13   0 8797.66 1435.63   3
   7  13   0 6610.41 1164.15   1
  -7  20   0 6649.81 1026.10   3
 -13  -7   0 9761.37 935.440   2
  -7  20   0 7836.05 1018.00   1
  13 -20   0 9594.05 1240.18   3
  13 -20   0 8302.45 1106.93   4
  13 -20   0 8338.72 1211.56   2
 -20   7   0 7302.34 697.829   1
 -13  -7   0 7119.12 837.081   4
  13 -20   0 6390.34 878.997   1
  20 -13   0 8026.88 769.488   4
  -7  20   3 2441.85 291.331   3
   7  13   3 4760.84 964.042   3
  13 -20   3 4435.18 723.536   1
  20 -13   3 3675.39 1361.01   3
   7  13   3 3287.90 1053.26   1
  13 -20   3 6445.82 1306.78   3
 -13  -7   3 4715.20 708.615   4
   7  13   6 436.349 646.371   3
  20 -13   6 1977.27 1265.23   3
  13 -20   6-185.477 1158.38   3
 -13  -7   6 1399.46 637.017   4
  20 -13   9 3342.28 1466.17   3
  13 -20   9 2567.47 1484.76   3
 -20   8  -7 9593.03 1421.40   4
 -12  -8  -7 7540.96 1470.40   2
  -8  20  -7 8781.00 1256.10   1
 -20   8  -7 6691.05 511.105   1
  20 -12  -7 8047.56 1296.25   1
  12 -20  -7 8724.50 1322.82   4
   8  12  -7 8881.01 1593.70   1
 -12  -8  -7 6311.23 1322.04   4
  20 -12  -7 9215.22 1304.17   2
  12 -20  -7 8156.26 1668.90   2
  -8  20  -4 1234.17 856.268   1
  20 -12  -4 2344.41 800.856   1
  20 -12  -4 2592.45 1225.11   3
   8  12  -4 1284.85 1090.52   1
 -12  -8  -4 2071.67 987.594   2
  12 -20  -4 1493.38 344.035   3
  12 -20  -4 3513.91 1261.11   2
  20 -12  -4 1758.96 894.934   2
  12 -20  -4 3130.80 967.509   4
 -12  -8  -4 1817.60 879.026   4
  20 -12  -1 12259.1 1599.49   3
 -12  -8  -1 13743.7 1153.85   2
  12 -20  -1 14179.8 1198.43   3
 -12  -8  -1 12697.6 1116.53   4
 -20   8  -1 11847.1 671.514   1
  12 -20  -1 14282.6 1332.44   4
   8  12  -1 9269.94 903.959   2
  12 -20  -1 14144.5 1477.89   2
  -8  20  -1 12234.5 1152.56   1
  20 -12  -1 10354.4 718.992   4
   8  12  -1 11887.2 1290.87   1
  20 -12  -1 12606.4 818.799   1
  -8  20   2 5085.42 684.968   3
  20 -12   2 4356.82 1282.00   3
 -12  -8   2 5512.98 560.820   2
  12 -20   2 5897.12 1200.79   3
   8  12   2 4331.96 1060.07   1
 -12  -8   2 4542.86 753.331   4
  12 -20   2 4563.75 798.162   1
   8  12   5 11757.8 1195.66   3
  20 -12   5 11354.0 1768.87   3
  12 -20   5 15589.6 1773.80   3
 -12  -8   5 12417.1 999.003   4
  12 -20   5 10215.3 889.419   1
 -12  -8   8 4306.96 803.284   4
  20 -12   8 5456.43 1605.65   3
   8  12   8 1835.68 727.258   3
  12 -20   8 2230.30 1340.98   3
  11 -20  -8 11930.9 1802.89   2
 -11  -9  -8 10533.3 1671.89   2
  -9  20  -8 9609.00 1283.33   1
   9  11  -8 4853.66 1445.99   1
  20 -11  -8 10753.6 1596.78   1
  11 -20  -8 9529.90 1422.20   4
 -11  -9  -8 10847.2 1659.59   4
  20 -11  -8 6921.70 1133.23   2
  20 -11  -5 6124.40 1421.92   3
 -11  -9  -5 8734.54 1440.26   2
   9  11  -5 8224.55 1504.63   1
  11 -20  -5 6101.63 1120.70   4
  11 -20  -5 11798.2 1762.44   2
  20 -11  -5 9408.47 1177.65   1
  20 -11  -5 5672.40 1041.95   2
 -11  -9  -5 8824.74 1287.20   4
  -9  20  -5 8080.81 1080.37   1
 -11  -9  -2 7097.85 1056.55   2
  20 -11  -2 6263.27 1416.02   3
  11 -20  -2 7680.73 904.296   3
  -9  20  -2 8763.51 1016.81   1
   9  11  -2 6920.90 696.938   2
  20 -11  -2 6886.76 523.161   4
  11 -20  -2 10087.0 1258.39   4
   9  11  -2 7367.84 1286.34   1
 -11  -9  -2 8026.40 1080.01   4
  11 -20  -2 8155.22 1345.96   2
  20 -11  -2 6514.86 464.886   4
  20 -11  -2 7124.84 788.309   1
  20 -11   1 14252.5 1653.26   3
  -9  20   1 11261.5 1036.14   3
 -11  -9   1 14369.5 963.289   2
 -11  -9   1 12039.3 1029.87   4
   9  11   1 12959.3 1292.49   1
  11 -20   1 11512.3 1293.80   3
  20 -11   1 10159.0 504.586   1
  11 -20   1 10882.4 1280.85   2
  11 -20   1 12252.9 1271.51   4
  20 -11   1 11990.1 928.031   4
   9  11   4 5343.54 1058.79   3
  20 -11   4 6550.01 1539.06   3
  11 -20   4 7956.23 1435.84   3
 -11  -9   4 6773.13 876.000   4
   9  11   4 6588.57 1195.67   1
   9  11   7 5507.67 1001.83   3
  20 -11   7 10290.8 1716.66   3
  11 -20   7 10155.9 1650.39   3
 -11  -9   7 7920.86 952.049   4
  20 -10  -9 408.622 1189.93   1
  10 -20  -9 753.092 1583.50   2
 -10  20  -9-398.361 972.313   1
 -10 -10  -9 517.212 1337.45   2
  10  10  -9 630.581 1399.84   1
  10 -20  -9 3486.53 1237.75   4
 -10 -10  -9 1129.60 1263.50   4
  20 -10  -6 2973.89 959.461   1
 -10 -10  -6 2137.07 1131.43   2
 -10  20  -6 3056.69 881.199   1
  10 -20  -6 2989.05 1043.93   4
  10  10  -6 5348.59 1345.03   1
 -10 -10  -6 4939.72 1197.75   4
  20 -10  -6 3362.03 951.137   2
  10 -20  -6 4973.40 1553.10   2
  10 -20  -3 652.240 864.039   4
  20 -10  -3 835.305 1050.36   3
  10  10  -3 233.921 1044.57   1
  20 -10  -3-272.909 687.680   1
 -10 -10  -3 1255.25 917.694   2
  10 -20  -3 902.208 395.527   3
  20 -10  -3 2333.10 823.331   2
 -10 -10  -3 579.924 754.324   4
 -10  20  -3 1102.56 681.875   1
  10 -20  -3 2012.36 1202.76   2
  10  10   0 6255.30 1130.42   1
  20 -10   0 5385.35 655.931   4
  20 -10   0 4067.56 1256.60   3
 -10  20   0 4186.61 823.124   1
 -10  20   0 3764.57 926.119   3
 -10 -10   0 4629.14 789.245   2
  20 -10   0 5754.67 617.265   1
  10 -20   0 4234.30 921.669   3
  10 -20   0 4719.49 1003.08   4
  10 -20   0 4050.48 992.465   2
 -10 -10   0 4568.93 858.800   4
  10  10   0 3856.16 843.110   2
  10  10   3 275.203 903.102   3
  20 -10   3 2552.70 1240.66   3
 -10 -10   3 1124.63 327.255   2
  10 -20   3 1949.16 1033.65   3
 -10 -10   3 1068.85 740.118   4
  10  10   3-21.9138 858.000   1
  10  10   6 4012.65 1031.28   3
  20 -10   6 4545.11 1523.86   3
  10 -20   6 5182.88 1507.39   3
 -10 -10   6 2769.44 829.029   4
  20 -10   9-1208.44 1325.99   3
  10 -20   9 396.476 1323.11   3
 -10 -10   9 260.499 750.963   4
  -9 -11  -7 12734.0 1767.91   2
  11   9  -7 9782.57 1630.53   1
 -11  20  -7 7948.55 1074.92   1
  20  -9  -7 8008.29 1063.53   2
  -9 -11  -7 10006.9 1477.90   4
  20  -9  -7 7823.90 1380.68   1
   9 -20  -7 8948.25 1311.73   4
   9 -20  -7 7666.15 1726.47   2
  20  -9  -4 4341.96 1356.54   3
 -11  20  -4 6377.54 890.051   1
  -9 -11  -4 6334.32 1293.03   2
  20  -9  -4 4350.03 879.867   2
   9 -20  -4 5453.93 1170.22   4
  -9 -11  -4 7132.17 1192.96   4
  20  -9  -4 8865.59 1067.77   1
   9 -20  -4 8056.92 1590.49   2
  11   9  -4 6954.56 1369.18   1
  -9 -11  -1 14507.7 1208.69   2
  20  -9  -1 12369.7 1680.61   3
  20  -9  -1 12929.2 888.199   1
   9 -20  -1 14081.4 1078.15   3
 -11  20  -1 13700.9 1082.17   1
   9 -20  -1 13954.8 1379.36   4
   9 -20  -1 11814.2 1368.64   2
  11   9  -1 12470.9 968.586   2
  -9 -11  -1 11893.7 1162.05   4
  11   9  -1 11940.0 1294.11   1
  20  -9  -1 13658.9 698.227   4
  11   9   2 8276.32 1283.66   3
  -9 -11   2 10826.3 822.845   2
 -11  20   2 8979.76 857.761   3
  20  -9   2 6172.52 338.501   1
  20  -9   2 7160.90 1403.12   3
   9 -20   2 11401.9 1326.61   3
  11   9   2 9203.03 1214.12   1
   9 -20   2 7641.94 1100.31   4
   9 -20   2 9347.93 1160.00   2
  -9 -11   2 8517.06 992.885   4
  11   9   5 5529.30 1127.35   3
  20  -9   5 7228.98 1549.34   3
   9 -20   5 6447.34 1391.90   3
  -9 -11   5 5320.52 902.363   4
  11   9   8 6854.92 1111.26   3
  20  -9   8 10896.4 1857.81   3
   9 -20   8 11364.9 1854.22   3
  -9 -11   8 9134.06 1143.27   4
   8 -20  -8-776.280 1370.20   2
  20  -8  -8 3245.93 1250.25   1
 -12  20  -8 3296.37 916.293   1
  -8 -12  -8 2563.54 1371.78   2
  12   8  -8 2752.84 1379.81   1
   8 -20  -8 3669.28 1223.50   4
  -8 -12  -8 2957.08 1172.14   4
 -12  20  -5 13564.9 1094.11   1
  -8 -12  -5 13727.3 1622.89   2
  12   8  -5 13191.5 1583.77   1
  20  -8  -5 12241.5 1077.73   2
   8 -20  -5 13987.4 1431.29   4
  -8 -12  -5 14061.0 1483.51   4
   8 -20  -5 14732.4 1888.47   2
  20  -8  -5 16338.4 1467.79   1
  20  -8  -2 5558.14 833.523   1
  20  -8  -2 6065.95 1403.64   3
 -12  20  -2 5718.10 806.090   1
  -8 -12  -2 5908.69 1073.40   2
  12   8  -2 3755.84 1170.75   1
   8 -20  -2 5155.39 676.775   3
  20  -8  -2 3011.06 682.853   2
  12   8  -2 4185.50 575.437   2
   8 -20  -2 6744.99 1161.00   4
  -8 -12  -2 2080.49 874.233   4
   8 -20  -2 3365.96 1050.55   2
 -12  20   1 11372.5 1134.62   3
  20  -8   1 13654.0 1774.05   3
  12   8   1 11189.2 1219.00   1
   8 -20   1 14610.7 1354.20   3
   8 -20   1 12940.6 1298.43   4
   8 -20   1 13682.1 1362.24   2
  -8 -12   1 13047.4 1175.94   4
  20  -8   1 13337.5 800.793   1
  20  -8   1 13454.5 972.639   4
  -8 -12   1 12387.3 987.902   2
  12   8   4 1916.67 1000.91   3
  -8 -12   4 859.530 757.843   4
  -8 -12   4 1007.48 292.019   2
  20  -8   4-19.6501 1099.65   3
  12   8   4 1813.08 932.812   1
   8 -20   4 1488.41 1251.09   3
  12   8   7 6361.68 1179.67   3
   8 -20   7 5296.81 1519.43   3
  -8 -12   7 5656.48 1027.96   4
   7 -20  -9 3416.47 1541.14   2
  20  -7  -9 4055.71 1389.68   1
 -13  20  -9 5613.90 1035.43   1
  -7 -13  -9 3682.12 1564.13   2
  13   7  -9 3829.48 1546.45   1
   7 -20  -9 3758.50 1344.26   4
  -7 -13  -9 1940.63 1368.87   4
   7 -20  -6 2048.98 1431.85   2
  20  -7  -6 2377.82 1058.20   1
  -7 -13  -6 931.839 1187.13   2
  13   7  -6 3376.38 1341.25   1
   7 -20  -6 2394.03 1051.31   4
 -13  20  -6 2267.99 751.670   1
  -7 -13  -6 3552.73 1161.02   4
  20  -7  -6 1604.13 738.481   2
  13   7  -3 4673.33 1244.16   1
  20  -7  -3 6245.65 937.749   1
  20  -7  -3 6337.71 1419.83   3
  -7 -13  -3 4177.25 1107.86   2
  20  -7  -3 4359.04 706.156   2
   7 -20  -3 3997.43 1105.87   4
  -7 -13  -3 3797.19 1041.94   4
 -13  20  -3 5284.04 767.826   1
   7 -20  -3 3526.81 1367.89   2
  20  -7   0 11041.9 1626.43   3
   7 -20   0 10860.4 1389.57   2
   7 -20   0 9359.92 1085.21   3
  20  -7   0 9323.89 864.577   1
   7 -20   0 7749.05 1173.66   4
  -7 -13   0 8458.04 1081.12   4
  20  -7   0 8175.27 729.235   4
  13   7   0 5591.66 928.092   2
  -7 -13   0 8470.81 1025.40   2
  13   7   0 9212.88 1213.71   1
  -7 -13   3 3423.57 615.941   2
  13   7   3 2665.96 1138.25   3
  20  -7   3 2441.75 1240.97   3
   7 -20   3 3572.61 1207.64   3
   7 -20   3 3015.02 1018.99   4
  -7 -13   3 2916.54 895.282   4
   7 -20   3 3868.16 1024.05   2
  13   7   3 4633.98 989.675   1
  13   7   6 9373.76 1441.36   3
  20  -7   6 7123.46 1606.67   3
   7 -20   6 12460.6 1836.50   3
  -7 -13   6 12128.6 1229.99   4
  20  -7   9 6436.70 1652.19   3
  13   7   9 5280.53 1194.42   3
   7 -20   9 5034.70 1558.62   3
  -6 -14  -7 10840.6 1683.35   2
   6 -20  -7 9404.50 1735.53   2
  -6 -14  -7 7029.39 1378.93   4
  20  -6  -7 6533.43 1338.67   1
 -14  20  -7 5195.16 874.368   1
  14   6  -7 6750.16 1533.93   1
   6 -20  -7 5362.16 1220.09   4
  -6 -14  -4 4505.05 1270.38   2
   6 -20  -4 3989.35 1115.40   4
  20  -6  -4 3736.02 986.134   1
  20  -6  -4 4285.59 648.775   2
 -14  20  -4 5647.58 745.880   1
  20  -6  -4 3509.09 727.607   2
  -6 -14  -4 6465.94 1188.35   4
  14   6  -4 4463.43 1170.06   1
   6 -20  -4 5151.14 1387.29   2
  20  -6  -1 12085.8 1683.81   3
  20  -6  -1 14413.7 1096.53   1
   6 -20  -1 14296.4 1088.68   3
  14   6  -1 10877.2 1016.86   4
   6 -20  -1 15036.6 1479.67   4
   6 -20  -1 15041.6 1585.95   2
  -6 -14  -1 14387.3 1335.01   4
  20  -6  -1 11983.9 674.599   4
  14   6  -1 15403.3 1462.58   1
  14   6  -1 12830.0 1016.79   2
  -6 -14  -1 12023.2 1261.93   2
 -14  20   2 20269.4 1276.39   3
  14   6   2 20393.9 1818.42   3
  20  -6   2 19490.1 2124.93   3
  20  -6   2 20035.2 934.822   1
  14   6   2 21260.4 1522.69   1
   6 -20   2 26346.1 1805.22   3
   6 -20   2 22399.7 1596.82   4
   6 -20   2 26193.7 1678.13   2
  -6 -14   2 22101.9 1538.83   4
  -6 -14   2 22491.0 1248.03   2
  14   6   5 10768.4 1493.64   3
  20  -6   5 10284.7 1742.58   3
   6 -20   5 10725.4 1542.73   3
  -6 -14   5 8674.54 1181.90   4
  -6 -14   5 8209.58 551.637   2
  14   6   8 2440.12 1073.07   3
  20  -6   8 1744.59 1304.22   3
   6 -20   8-263.952 1327.45   3
   5 -20  -8 4106.89 1579.04   2
  -5 -15  -8 3049.14 1590.20   2
  20  -5  -8 2732.06 1265.60   1
 -15  20  -8 1488.46 768.938   1
  15   5  -8 1856.58 1299.68   1
   5 -20  -8 875.424 1050.14   4
  -5 -15  -8 123.268 1096.02   4
  20  -5  -5 12272.8 1346.84   1
  15   5  -5 12833.9 1614.23   1
  20  -5  -5 11478.9 745.546   2
 -15  20  -5 13823.0 897.579   1
  -5 -15  -5 12860.6 1440.48   4
  20  -5  -5 9181.78 768.156   2
   5 -20  -5 11614.0 1436.16   4
   5 -20  -5 11853.2 1720.44   2
  -5 -15  -5 14875.3 1687.63   2
  20  -5  -2 3867.01 1353.17   3
  -5 -15  -2 2960.00 1064.54   2
  15   5  -2 2931.77 1059.97   1
  20  -5  -2 3254.83 663.339   2
  20  -5  -2 3839.06 879.063   1
   5 -20  -2 2926.77 987.150   4
  -5 -15  -2 3809.75 1022.57   4
   5 -20  -2 224.297 1133.93   2
  15   5  -2 2027.64 591.502   2
  15   5   1 26176.7 2097.30   3
 -15  20   1 25364.7 1594.64   3
  20  -5   1 26602.6 2217.97   3
  15   5   1 30345.9 1679.97   1
   5 -20   1 31928.2 1800.18   3
  20  -5   1 28759.9 1280.41   1
   5 -20   1 28543.1 1837.75   4
   5 -20   1 29504.6 1808.31   2
  -5 -15   1 31080.6 1788.43   4
  20  -5   1 24928.1 1259.76   4
  -5 -15   1 30669.2 1549.94   2
  15   5   4 5469.14 1331.48   3
  20  -5   4 4113.23 1362.73   3
  15   5   4 4674.86 1016.94   1
   5 -20   4 3207.22 1252.21   3
  -5 -15   4 3880.99 1034.60   4
   5 -20   4 4040.86 981.122   2
  -5 -15   4 4028.52 700.091   2
  15   5   7 7756.31 1423.38   3
   5 -20   7 10588.5 1737.41   3
  -5 -15   7 9842.73 1262.47   4
   4 -20  -6 2834.38 1539.14   2
  -4 -16  -6 3057.45 1440.21   2
  20  -4  -6 4587.95 1183.56   1
 -16  20  -6 3519.88 596.094   1
  -4 -16  -6 3081.95 1212.68   4
  16   4  -6 3510.10 1342.91   1
   4 -20  -6 2667.86 1071.09   4
  20  -4  -3 11016.1 1203.07   1
  20  -4  -3 11277.5 861.474   2
  16   4  -3 11767.6 1463.00   1
   4 -20  -3 12866.1 1427.54   4
  -4 -16  -3 9106.09 1326.61   4
   4 -20  -3 14371.6 1757.19   2
  -4 -16  -3 14461.0 1530.20   2
  -4 -16   0 11363.7 1231.44   4
  20  -4   0 7172.45 1565.62   3
   4 -20   0 10319.2 1076.64   3
  16   4   0 8296.54 979.371   4
  20  -4   0 7456.08 941.774   1
  20  -4   0 9165.49 805.317   4
   4 -20   0 9333.02 1296.77   4
  -4 -16   0 12184.7 1250.43   2
  16   4   0 9779.81 1048.37   2
   4 -20   0 10459.0 1362.96   2
  16   4   0 8820.94 1199.45   1
   4 -20   3 3807.98 1031.60   4
  16   4   3 5092.97 1384.68   3
  20  -4   3 7038.07 1401.72   3
  20  -4   3 5115.09 735.653   1
   4 -20   3 5538.71 1255.84   3
  -4 -16   3 5924.46 1090.28   4
  16   4   3 4819.41 948.711   1
   4 -20   3 4426.23 1019.70   2
  -4 -16   3 4084.71 837.481   2
  16   4   6 10114.6 1557.36   3
   4 -20   6 10515.6 1193.49   2
  20  -4   6 6674.46 1613.20   3
   4 -20   6 10006.0 1618.18   3
  -4 -16   6 7530.76 1208.56   4
  -4 -16   6 6397.93 683.576   2
   3 -20  -7 2329.70 1380.71   2
  -3 -17  -7 4029.44 1513.07   2
  20  -3  -7 2682.22 1283.84   1
  17   3  -7 5523.00 1426.13   1
   3 -20  -7 3065.61 1156.35   4
  -3 -17  -7 6342.44 1357.94   4
  -3 -17  -4 5840.56 1303.06   2
  20  -3  -4 4647.52 557.429   2
  20  -3  -4 6708.79 1151.77   1
  20  -3  -4 4973.21 580.713   2
   3 -20  -4 5254.38 1164.71   4
  17   3  -4 5244.76 1220.85   1
  -3 -17  -4 4908.79 1238.38   4
   3 -20  -4 6799.65 1424.98   2
  20  -3  -1 2977.68 913.911   1
  -3 -17  -1 4378.10 1081.39   2
  20  -3  -1 5343.26 1535.36   3
  17   3  -1 2326.36 726.441   2
  17   3  -1 3217.55 1013.72   1
  20  -3  -1 2464.44 704.622   2
  17   3  -1 2769.93 727.238   4
  20  -3  -1 2498.81 561.524   4
  -3 -17  -1 726.279 1061.70   4
   3 -20  -1 3178.16 1131.42   4
   3 -20  -1 2137.44 1050.54   2
  17   3   2 1755.34 1146.52   3
  20  -3   2 2275.91 1413.18   3
   3 -20   2 2637.40 996.107   3
   3 -20   2 742.959 953.893   4
  -3 -17   2 1084.12 910.209   4
   3 -20   2 2889.57 999.438   2
  20  -3   2 1801.43 691.057   1
  -3 -17   2 1689.30 892.277   2
  17   3   2 979.596 845.388   1
  17   3   5 4277.51 1318.56   3
  20  -3   5 973.232 1235.68   3
  -3 -17   5 423.184 902.226   4
   3 -20   5-32.5376 1143.40   3
   3 -20   5 1387.93 911.326   4
   3 -20   5 452.368 850.847   2
  -3 -17   5 1507.14 670.630   2
   3 -20   8 2759.40 900.190   2
  17   3   8 2008.98 1258.31   3
  20  -3   8 2621.50 1435.91   3
   3 -20   8 933.311 1232.89   3
   2 -20  -8 1181.94 1543.43   2
  -2 -18  -8 1147.42 1275.88   2
  20  -2  -8-164.508 1227.29   1
  18   2  -8 33.4694 1333.51   1
   2 -20  -8 3125.96 1155.76   4
  -2 -18  -8 1388.18 1166.28   4
   2 -20  -5 7606.85 1544.12   2
  -2 -18  -5 8277.43 1496.89   2
  20  -2  -5 7771.73 1307.80   1
  18   2  -5 7213.46 1294.72   1
   2 -20  -5 4921.76 1190.54   4
  -2 -18  -5 8257.28 1403.81   4
  -2 -18  -2 253.528 1046.53   2
  18   2  -2 558.379 587.392   2
  18   2  -2-801.222 1076.56   1
  -2 -18  -2 490.836 1068.27   4
  20  -2  -2 773.832 586.952   2
   2 -20  -2-377.168 1015.28   4
  20  -2  -2 1026.04 913.030   1
   2 -20  -2-999.408 1123.02   2
  18   2   1 11500.2 1752.44   3
  20  -2   1 12531.6 1878.47   3
  18   2   1 13008.0 1288.49   1
   2 -20   1 11279.8 1372.90   4
  -2 -18   1 11420.9 1440.88   4
  20  -2   1 10351.0 1007.02   4
   2 -20   1 11811.4 1358.14   2
  -2 -18   1 14123.3 1341.98   2
  20  -2   1 13792.9 1146.63   1
  18   2   4 1656.38 1308.72   3
  20  -2   4 600.597 1225.06   3
   2 -20   4 1384.96 1129.77   3
  18   2   4-428.799 750.356   1
   2 -20   4-304.321 898.884   4
  -2 -18   4 1922.35 1105.29   4
   2 -20   4 475.362 865.629   2
  -2 -18   4 1298.01 762.200   2
  18   2   7 1510.41 1254.38   3
  20  -2   7 2331.74 1410.54   3
  -2 -18   7 3654.96 1128.70   4
   2 -20   7 2353.22 1368.11   3
   2 -20   7 4411.63 929.868   2
  -2 -18   7 1380.18 613.653   2
   1 -20  -6 3688.61 1490.84   2
  -1 -19  -6 4966.27 1584.71   2
  20  -1  -6 2249.78 1162.93   1
  19   1  -6 4474.95 1350.45   1
   1 -20  -6 216.350 994.397   4
  -1 -19  -6 1371.51 1031.08   4
  20  -1  -3 15105.0 1450.92   1
  19   1  -3 14476.8 1526.10   1
   1 -20  -3 12601.3 1519.98   4
  -1 -19  -3 10890.3 1405.49   4
   1 -20  -3 13568.4 1765.18   2
  -1 -19  -3 10914.3 1520.83   2
  19   1  -3 9259.44 677.156   2
  20  -1  -3 9564.62 772.002   2
  19   1   0 11686.5 1869.53   3
  20  -1   0 13758.8 2030.99   3
  -1 -19   0 14156.5 1461.50   4
  19   1   0 12688.2 1101.93   4
   1 -20   0 15417.0 1560.70   4
  20  -1   0 12363.8 1044.82   4
  20  -1   0 12235.3 1210.02   1
   1 -20   0 15639.1 1553.48   2
  -1 -19   0 12125.6 1446.06   2
  19   1   0 12811.8 1301.41   1
  20  -1   3 10897.3 1084.94   1
  19   1   3 14993.2 1994.30   3
  20  -1   3 10010.3 1779.70   3
   1 -20   3 9883.80 1416.45   3
  -1 -19   3 8459.23 1342.66   4
   1 -20   3 10611.5 1244.59   2
   1 -20   3 12056.6 1437.75   4
  -1 -19   3 10997.4 1160.82   2
  19   1   3 10707.7 1174.53   1
  19   1   6 5377.99 1461.21   3
  20  -1   6 4974.66 1543.23   3
   1 -20   6 4094.84 1156.75   4
   1 -20   6 4270.73 1359.48   3
   1 -20   6 4682.61 969.536   2
  -1 -19   6 5032.33 1188.74   4
  -1 -19   6 5134.68 859.905   2
   0 -20  -7-806.942 1333.54   2
  20   0  -7 740.660 1158.52   1
   0 -20  -7-194.699 997.413   4
   0 -20  -4-602.132 1285.77   2
   0 -20  -4 857.478 1073.45   4
  20   0  -4 2429.58 1100.22   1
  20   0  -1-538.240 1280.76   3
  20   0  -1-409.563 688.430   2
  20   0  -1-895.262 892.939   1
  20   0  -1 935.935 641.079   4
   0 -20  -1-726.151 1076.95   4
   0 -20  -1 1106.85 1116.11   2
  20   0   2 2682.71 1482.38   3
   0 -20   2-92.5623 1031.55   4
   0 -20   2 533.104 917.593   2
  20   0   2 2197.25 862.435   1
  20   0   5-313.314 1209.02   3
   0 -20   5 278.438 1015.00   4
   0 -20   5-1660.51 822.092   2
  20   0   8 3205.62 1512.41   3
   0 -20   8 670.110 1295.97   3
  21 -21  -6 7800.39 1292.64   3
 -21   0  -6 10219.3 1535.16   2
   0  21  -6 6329.83 1495.05   1
  21 -21  -6 10474.0 1559.53   1
  21 -21  -6 9584.05 1248.97   4
  21 -21  -6 4629.66 1494.39   2
 -21   0  -6 8737.65 1398.44   4
   0  21  -3-597.794 1046.60   1
  21 -21  -3 1224.63 1044.88   3
 -21   0  -3 861.615 902.862   2
  21 -21  -3-504.056 839.752   4
  21 -21  -3 76.5954 1112.57   2
 -21   0  -3 386.423 730.740   4
  21 -21   0 29299.4 1207.01   1
  21 -21   0 35870.9 2455.22   3
  21 -21   0 34331.7 1813.85   4
   0  21   0 32388.6 1999.13   1
 -21   0   0 31587.6 1329.52   4
   0  21   3-190.881 963.189   1
  21 -21   3-2136.12 1250.66   3
  21 -21   6 18500.2 2185.31   3
  21 -20  -7 1310.35 1025.72   3
   1  20  -7 1163.47 1259.21   1
  -1  21  -7-1284.25 1245.18   1
 -20  -1  -7 1338.69 1223.51   2
 -21   1  -7 1654.24 1061.55   2
  21 -20  -7 2487.54 1335.72   1
  20 -21  -7 2111.37 996.287   4
  21 -20  -7 706.080 851.750   4
  21 -20  -7 3603.98 1438.81   2
  20 -21  -7 1525.07 1389.86   2
 -20  -1  -7-949.987 1103.82   4
 -21   1  -7 236.555 1022.59   4
  21 -20  -4-512.029 935.126   3
  20 -21  -4 1154.05 920.786   3
 -20  -1  -4-1295.96 990.851   2
 -21   1  -4 2052.83 986.884   2
  21 -20  -4 853.914 778.164   4
   1  20  -4 708.583 1071.56   1
  20 -21  -4-47.1218 887.460   4
  21 -20  -4 1644.50 1227.73   2
  20 -21  -4 1606.75 1251.46   2
  -1  21  -4 43.2234 1046.65   1
 -20  -1  -4 1231.18 900.835   4
 -21   1  -4-508.094 799.804   4
  20 -21  -1 875.246 628.975   1
  21 -20  -1-148.065 1054.57   3
  20 -21  -1-121.136 1079.49   3
  21 -20  -1 242.387 564.356   1
 -20  -1  -1-56.0428 669.189   2
  21 -20  -1 146.851 837.137   4
  20 -21  -1-14.0266 888.387   4
  21 -20  -1 965.233 1010.60   2
  20 -21  -1 1971.42 1044.57   2
   1  20  -1 322.481 891.965   1
 -20  -1  -1-81.7393 599.747   4
 -21   1  -1-838.994 646.811   4
  -1  21  -1 1564.94 1031.38   1
  21 -20   2 2414.53 1203.84   3
  20 -21   2 1600.86 1349.57   3
  -1  21   2 1275.95 719.253   3
   1  20   2 1664.84 1021.11   1
   1  20   2 1586.12 758.196   3
  20 -21   2 1808.32 329.517   1
  -1  21   2 3164.97 1135.65   1
 -20  -1   2 2206.70 402.101   4
 -21   1   2 1510.18 270.836   4
  21 -20   5 2539.70 1351.92   3
  20 -21   5 1865.21 1558.03   3
   2  19  -8 4226.78 1451.26   1
  -2  21  -8 3233.70 1335.30   1
 -19  -2  -8 5367.97 1532.31   2
 -21   2  -8 8382.13 1632.58   2
  21 -19  -8 3180.72 1297.18   1
  19 -21  -8 4796.92 1207.49   4
  21 -19  -8 4136.22 1510.47   2
 -19  -2  -8 4682.29 1392.41   4
  19 -21  -8 4520.40 1592.97   2
 -21   2  -8 4251.49 1339.57   4
  21 -19  -5 4572.99 1225.14   3
  19 -21  -5 1035.02 948.118   3
   2  19  -5 84.1846 1152.58   1
 -19  -2  -5 2777.21 1045.11   2
 -21   2  -5 3158.48 1085.41   2
  -2  21  -5 858.890 1111.07   1
  21 -19  -5 2948.89 1023.85   1
  19 -21  -5 1682.02 866.156   4
  21 -19  -5 770.458 749.741   4
  21 -19  -5 161.831 1166.74   2
  19 -21  -5 2732.83 1278.31   2
 -19  -2  -5 548.702 898.781   4
 -21   2  -5 1390.33 987.000   4
   2  19  -2 2466.03 1022.21   1
  21 -19  -2 1967.58 1181.17   3
  -2  21  -2 5888.30 1220.28   1
  19 -21  -2 4013.22 1200.37   3
 -19  -2  -2 2794.49 883.170   2
  21 -19  -2 5468.77 929.765   4
  21 -19  -2 3486.17 1190.14   2
  19 -21  -2 4410.48 1046.26   4
  19 -21  -2 4797.90 1284.33   2
  21 -19  -2 3443.78 732.613   1
 -21   2  -2 4510.78 822.834   4
 -19  -2  -2 3306.81 791.221   4
  -2  21   1 5717.36 1180.71   1
  19 -21   1 3815.44 658.293   1
  21 -19   1 1595.59 362.862   1
  21 -19   1 2898.18 1312.37   3
  19 -21   1 3532.34 1224.13   3
  -2  21   1 1189.86 792.307   3
   2  19   1 2969.30 1039.64   1
 -19  -2   1 2393.39 545.958   4
 -21   2   1 3533.92 483.888   4
  21 -19   1 1811.12 273.435   1
   2  19   4 697.007 487.231   3
  21 -19   4 2196.42 1268.09   3
  19 -21   4 319.189 1163.62   3
  21 -19   7 2047.45 1431.46   3
  19 -21   7 4677.91 1457.67   3
  21 -18  -6 17685.9 1746.43   3
  18 -21  -6 17774.1 1358.02   3
 -18  -3  -6 21637.5 1890.18   2
 -21   3  -6 22987.6 1938.60   2
   3  18  -6 19355.5 1920.23   1
  21 -18  -6 21686.4 1798.31   1
  21 -18  -6 19603.3 1821.35   2
  -3  21  -6 18931.4 1743.53   1
  18 -21  -6 19783.7 2003.55   2
  21 -18  -6 20083.6 1258.45   4
  18 -21  -6 20815.9 1581.47   4
 -18  -3  -6 19810.2 1740.11   4
 -21   3  -6 23221.6 1854.49   4
  21 -18  -3-174.549 996.481   3
  -3  21  -3-613.285 904.296   1
  18 -21  -3 232.598 843.092   3
  21 -18  -3-431.144 734.425   4
 -21   3  -3-374.375 608.581   1
 -18  -3  -3 1789.90 953.170   2
 -21   3  -3 257.100 835.490   2
  21 -18  -3 335.777 639.336   1
  18 -21  -3 1014.12 874.137   4
  21 -18  -3 958.766 1031.27   2
   3  18  -3 395.261 986.441   1
  18 -21  -3 10.4207 1138.71   2
 -18  -3  -3 400.286 806.209   4
 -21   3  -3 63.9346 715.663   4
  21 -18   0 27585.7 2281.07   3
  18 -21   0 32262.2 2222.29   3
   3  18   0 29980.3 1910.27   1
  21 -18   0 27557.2 1025.01   1
 -18  -3   0 30726.5 1453.73   2
  18 -21   0 30966.2 1735.43   4
  21 -18   0 28507.8 961.281   1
  -3  21   0 30278.0 1887.09   1
 -18  -3   0 26624.3 1291.34   4
 -21   3   0 29185.5 1181.99   4
  18 -21   0 29719.7 1324.41   1
   3  18   3 157.698 1037.86   1
  18 -21   3 652.293 358.548   1
  -3  21   3 903.335 377.261   3
  21 -18   3 1703.47 1245.06   3
  18 -21   3 714.995 1174.52   3
   3  18   3 89.6210 614.474   3
 -18  -3   3 79.4305 334.586   4
  21 -18   6 22194.8 2258.53   3
  18 -21   6 20880.6 2244.62   3
   4  17  -7 3011.96 1363.61   1
  21 -17  -7-1055.84 1114.24   3
  -4  21  -7 2427.20 1203.98   1
 -17  -4  -7 560.976 1148.85   2
 -21   4  -7 1558.50 1119.39   2
  17 -21  -7 1113.30 965.225   4
  21 -17  -7 1482.15 1126.59   1
  21 -17  -7 1999.57 1159.06   2
  17 -21  -7 1721.09 1422.38   2
 -17  -4  -7 11.8750 1009.09   4
 -21   4  -7 1954.08 1026.26   4
  21 -17  -4 2733.64 1162.72   3
  17 -21  -4 2258.63 862.720   3
   4  17  -4 2271.64 1196.93   1
 -21   4  -4 130.767 581.234   1
 -17  -4  -4 1987.25 1054.64   2
  21 -17  -4 2581.07 1040.89   2
 -21   4  -4 287.513 932.045   2
  21 -17  -4 3053.18 777.331   4
  17 -21  -4 2195.49 944.251   4
  17 -21  -4 3386.84 1264.85   2
  21 -17  -4 3449.30 884.117   1
  -4  21  -4-237.001 1022.35   1
 -17  -4  -4 955.958 825.022   4
 -21   4  -4 1293.11 841.553   4
 -21   4  -1 2122.83 595.049   1
  -4  21  -1 763.575 874.642   1
  21 -17  -1 1268.69 1086.05   3
   4  17  -1 3803.91 1086.38   1
  17 -21  -1 2397.84 993.788   3
 -17  -4  -1 2247.01 766.526   2
  21 -17  -1 1819.44 767.083   4
  17 -21  -1 4202.25 989.884   4
  17 -21  -1 2186.63 1068.10   2
 -17  -4  -1 2721.75 739.558   4
  21 -17  -1 2968.26 572.042   1
 -21   4  -1 2454.58 624.871   4
  -4  21   2 3322.98 972.796   1
  21 -17   2 3239.18 1276.49   3
  -4  21   2 2651.01 676.704   3
  17 -21   2 2922.94 1104.41   3
   4  17   2 1435.63 746.271   3
  17 -21   2 2721.61 622.942   1
 -17  -4   2 2700.97 555.802   4
   4  17   2 2826.32 1017.91   1
   4  17   5 2077.94 500.706   3
  21 -17   5 424.540 1213.60   3
  17 -21   5 2511.59 1401.20   3
 -17  -4   5 1198.38 337.035   4
  21 -17   8 752.232 1373.03   3
  17 -21   8 3332.10 1661.73   3
  21 -16  -8 6119.87 1398.82   3
  -5  21  -8 6709.18 1385.54   1
 -21   5  -8 8065.27 1515.64   2
 -16  -5  -8 5051.79 1569.95   2
  16 -21  -8 8498.26 1403.36   4
  21 -16  -8 6500.38 1540.37   1
 -16  -5  -8 6234.43 1363.98   4
   5  16  -8 7854.49 1624.84   1
  21 -16  -8 2732.78 1212.54   2
 -21   5  -8 6646.33 1412.25   4
  16 -21  -8 4391.22 1475.90   2
  21 -16  -5 934.025 1071.34   3
   5  16  -5-299.454 1142.75   1
  16 -21  -5 509.656 670.637   3
 -16  -5  -5-745.508 905.199   2
 -21   5  -5 11.4747 953.235   2
  -5  21  -5 663.691 994.289   1
  16 -21  -5 184.898 859.482   4
  21 -16  -5 740.312 1022.78   2
  21 -16  -5 1190.22 550.074   4
  16 -21  -5 402.346 1281.94   2
  21 -16  -5 283.384 843.849   1
 -16  -5  -5 2143.80 954.560   4
 -21   5  -5 13.7225 838.461   4
  21 -16  -2 3079.48 1170.78   3
  16 -21  -2 6694.15 1141.72   3
 -16  -5  -2 4035.14 943.897   2
  21 -16  -2 4260.78 774.946   4
  16 -21  -2 4658.14 1182.53   2
  16 -21  -2 5238.88 1097.62   4
  -5  21  -2 5180.12 1077.28   1
 -16  -5  -2 5421.22 934.237   4
 -21   5  -2 4549.71 624.611   1
  21 -16  -2 5119.06 749.730   1
   5  16  -2 5521.23 1280.09   1
 -21   5  -2 4953.70 828.971   4
   5  16   1 839.578 955.592   1
  21 -16   1 2527.38 1222.72   3
  16 -21   1-284.891 643.382   1
  -5  21   1 905.156 721.563   3
  16 -21   1-38.6374 1061.94   3
 -16  -5   1 379.907 520.001   2
  -5  21   1 660.572 893.477   1
 -16  -5   1 956.791 560.785   4
   5  16   4 7995.89 955.031   3
  16 -21   4 10239.6 1575.06   3
  21 -16   4 8164.55 1645.15   3
   5  16   4 6253.48 810.746   3
 -16  -5   4 9336.27 702.151   4
  16 -21   4 8167.31 666.571   1
  21 -16   7-191.062 1257.90   3
  16 -21   7 275.867 1379.06   3
  21 -15  -6 31654.4 2325.50   3
 -15  -6  -6 32017.1 2241.02   2
   6  15  -6 35438.7 2368.11   1
  21 -15  -6 36611.4 2079.88   1
  21 -15  -6 31221.7 1993.49   2
  15 -21  -6 30147.0 1886.05   4
  -6  21  -6 28624.7 1847.16   1
  15 -21  -6 31298.9 2361.55   2
 -15  -6  -6 29469.8 2133.38   4
 -21   6  -6 33445.1 2099.94   4
  21 -15  -3 4119.88 1313.27   3
  15 -21  -3 3308.77 848.957   3
  -6  21  -3 2893.17 946.752   1
 -15  -6  -3 3674.32 994.141   2
   6  15  -3 2661.59 1135.53   1
  21 -15  -3 4483.72 669.370   4
  21 -15  -3 3346.60 974.057   2
  15 -21  -3 4074.64 1054.80   4
  15 -21  -3 6494.55 1350.59   2
 -21   6  -3 2721.78 478.863   1
 -15  -6  -3 2849.54 969.965   4
  21 -15  -3 3416.08 799.932   1
 -21   6  -3 3468.19 807.529   4
  21 -15   0 5415.13 1447.58   3
  -6  21   0 2420.42 922.926   3
  15 -21   0 4082.12 1049.72   3
 -15  -6   0 3910.03 733.096   2
   6  15   0 2216.42 1028.10   1
  15 -21   0 5963.63 1051.83   4
  15 -21   0 3218.49 1068.87   2
  15 -21   0 3164.08 788.074   1
 -15  -6   0 3534.76 717.465   4
 -21   6   0 3430.88 630.333   1
  21 -15   0 3289.69 461.068   1
  -6  21   0 5281.91 1008.25   1
  21 -15   0 3560.05 679.209   4
   6  15   3-40.2802 759.211   3
  -6  21   3 427.241 240.454   3
  21 -15   3 452.466 1246.47   3
  15 -21   3-810.535 1160.79   3
  15 -21   3 816.035 561.168   1
   6  15   3 30.2067 1007.03   1
   6  15   3-724.030 684.556   3
 -15  -6   3-930.762 520.603   4
   6  15   6 722.644 547.687   3
  21 -15   6 2248.84 1457.79   3
  15 -21   6 3152.99 1383.75   3
 -15  -6   6 2253.00 591.963   4
  21 -14  -7 613.824 1142.00   3
  -7  21  -7 1713.76 1045.48   1
 -14  -7  -7 2483.86 1239.29   2
  14 -21  -7 1352.62 943.902   4
 -14  -7  -7 2614.06 1207.64   4
  21 -14  -7 1984.56 1044.85   2
   7  14  -7 3069.12 1372.63   1
  21 -14  -7 1025.05 1008.95   1
  14 -21  -7 2784.51 1605.85   2
 -21   7  -7 2456.27 1079.09   4
  -7  21  -4 3967.94 1048.19   1
  21 -14  -4 4135.86 1340.39   3
   7  14  -4 3676.63 1294.90   1
  14 -21  -4 3947.52 650.972   3
 -14  -7  -4 3646.89 1186.09   2
  21 -14  -4 2813.67 383.455   4
  21 -14  -4 3287.71 1013.95   2
  14 -21  -4 4202.61 1107.58   4
  14 -21  -4 3819.04 1435.32   2
 -21   7  -4 2155.54 329.762   1
 -14  -7  -4 3057.54 942.920   4
  21 -14  -4 1545.17 289.063   4
  21 -14  -4 4002.29 902.452   1
 -21   7  -4 3361.03 926.967   4
   7  14  -1 3094.26 1068.88   1
  21 -14  -1 4035.25 1334.57   3
  14 -21  -1 2217.74 916.876   3
 -14  -7  -1 1921.83 817.973   2
  -7  21  -1 1759.70 878.991   1
 -21   7  -1 2022.85 494.768   1
  14 -21  -1 2360.92 947.385   4
   7  14  -1 2102.00 737.600   2
  14 -21  -1 2839.66 1115.64   2
 -14  -7  -1 751.519 681.417   4
  21 -14  -1 3671.02 594.512   1
  21 -14  -1 2450.76 549.466   4
  -7  21   2 7341.36 800.056   3
  21 -14   2 10840.9 1662.75   3
  14 -21   2 8657.31 1372.58   3
  14 -21   2 7128.18 871.173   1
 -14  -7   2 8965.67 637.701   2
 -14  -7   2 9191.68 873.660   4
   7  14   2 9062.34 1229.61   1
   7  14   5 1869.29 762.315   3
  21 -14   5 694.368 1234.06   3
 -14  -7   5 1796.58 618.407   4
  21 -14   8 7716.43 1827.65   3
  14 -21   8 8534.20 1723.74   3
 -13  -8  -8 4663.43 1346.33   2
  -8  21  -8 10126.6 1404.53   1
  21 -13  -8 7198.16 1289.85   2
   8  13  -8 5941.90 1538.83   1
  13 -21  -8 11375.3 1886.95   2
  13 -21  -8 6531.87 1332.81   4
 -13  -8  -8 8939.06 1610.51   4
  21 -13  -8 6003.54 1411.25   1
   8  13  -5 216.625 1193.08   1
  21 -13  -5 1965.93 1205.50   3
  -8  21  -5 756.438 872.466   1
 -13  -8  -5 716.200 1053.79   2
  13 -21  -5 2397.85 975.692   4
  21 -13  -5 323.562 899.901   2
 -13  -8  -5 1380.09 960.583   4
  13 -21  -5 4564.48 1459.79   2
  21 -13  -5 209.139 800.753   1
 -21   8  -5 599.456 824.320   4
  21 -13  -2 20312.4 1944.43   3
 -13  -8  -2 24800.7 1571.60   2
  13 -21  -2 23889.9 1413.37   3
  21 -13  -2 22947.2 1177.28   1
  -8  21  -2 21154.5 1457.44   1
  21 -13  -2 22236.3 970.030   4
 -21   8  -2 18551.2 708.894   1
  13 -21  -2 19333.0 1523.39   4
  13 -21  -2 23379.6 1834.50   2
 -13  -8  -2 20524.1 1429.42   4
   8  13  -2 22598.6 1707.85   1
  21 -13  -2 19361.3 847.992   4
  21 -13   1 2002.64 1172.32   3
  13 -21   1 2424.62 813.080   1
 -13  -8   1 4439.77 700.169   2
  -8  21   1 2348.74 775.258   3
  21 -13   1 1729.37 204.973   1
  13 -21   1 4146.58 1055.86   3
  21 -13   1 1755.41 232.500   1
  13 -21   1 3893.27 977.503   4
  13 -21   1 3348.35 1117.70   2
 -13  -8   1 3447.66 708.777   4
  -8  21   1 2784.74 840.865   1
   8  13   1 3276.99 946.064   1
   8  13   4 5738.11 1075.42   3
  21 -13   4 8346.63 1606.01   3
 -13  -8   4 9303.61 909.133   4
  13 -21   4 7989.17 1509.80   3
   8  13   4 7519.28 1249.51   1
  13 -21   4 7790.50 855.102   1
   8  13   7 950.109 695.772   3
  21 -13   7-1120.15 1393.11   3
  13 -21   7-448.208 1191.78   3
 -13  -8   7 1055.28 653.116   4
  21 -12  -6 4602.00 1380.31   3
 -12  -9  -6 4560.47 1323.79   2
  21 -12  -6 5663.76 1128.29   2
  21 -12  -6 7065.39 1192.62   1
  -9  21  -6 5401.23 1096.73   1
  12 -21  -6 7865.21 1749.38   2
  12 -21  -6 5990.75 1175.88   4
 -12  -9  -6 6770.02 1293.59   4
   9  12  -6 5873.62 1461.57   1
  12 -21  -3 11207.9 1586.91   2
  21 -12  -3 9015.15 1614.10   3
 -12  -9  -3 10985.2 1361.92   2
  -9  21  -3 9686.92 1109.57   1
  12 -21  -3 10378.3 835.573   3
  21 -12  -3 10468.1 1243.19   2
   9  12  -3 9844.13 1448.39   1
  12 -21  -3 10140.6 1282.80   4
 -12  -9  -3 11573.8 1314.54   4
  21 -12  -3 10966.3 1001.05   1
  21 -12   0 12881.2 1700.44   3
   9  12   0 13240.0 1417.40   1
  -9  21   0 14068.2 1355.43   3
 -12  -9   0 14411.1 1105.76   2
  21 -12   0 13796.1 766.753   1
  12 -21   0 16757.8 1458.13   3
  -9  21   0 16774.6 1354.05   1
  12 -21   0 15887.6 1423.10   4
  12 -21   0 15919.1 1502.67   2
 -12  -9   0 16255.8 1187.60   4
  21 -12   0 14109.5 929.299   4
   9  12   3 3025.84 990.182   3
   9  12   3 5286.76 1181.60   1
  21 -12   3 3545.09 1269.96   3
 -12  -9   3 2963.13 311.964   2
  12 -21   3 5299.74 1257.65   3
  12 -21   3 3689.37 789.833   1
 -12  -9   3 3945.91 786.343   4
   9  12   6 5265.66 980.665   3
  21 -12   6 5178.83 1533.99   3
  12 -21   6 5659.07 1423.70   3
 -12  -9   6 5840.00 888.296   4
  21 -11  -7 2958.42 1075.20   1
 -11 -10  -7 3559.27 1324.08   2
 -10  21  -7 5318.87 1037.64   1
  10  11  -7 543.712 1188.25   1
  11 -21  -7 1504.09 1075.75   4
 -11 -10  -7 980.521 1118.08   4
  21 -11  -7 1515.72 944.188   2
  11 -21  -7 60.8022 1386.39   2
  21 -11  -4 9597.43 1568.76   3
 -11 -10  -4 11235.7 1380.25   2
 -10  21  -4 10528.0 1126.23   1
  10  11  -4 13344.1 1573.77   1
  21 -11  -4 13184.6 1249.75   2
  11 -21  -4 12406.7 1351.74   4
  11 -21  -4 12287.5 1688.76   2
 -11 -10  -4 11948.2 1341.33   4
  21 -11  -4 12062.3 1174.56   1
  21 -11  -1 2980.44 1287.02   3
 -10  21  -1 3972.99 852.967   1
 -11 -10  -1 2864.84 828.444   2
  21 -11  -1 2934.52 625.061   1
  11 -21  -1 3141.08 823.796   3
  11 -21  -1 2915.00 971.796   4
  10  11  -1 1828.10 979.594   1
  11 -21  -1 1376.44 997.544   2
 -11 -10  -1 2553.07 824.716   4
  21 -11  -1 3556.26 529.413   4
  10  11  -1 1001.24 629.821   2
 -10  21   2 24030.0 1225.61   3
  21 -11   2 26409.9 2192.04   3
 -11 -10   2 27341.2 1095.16   2
  11 -21   2 25160.5 1847.57   3
  11 -21   2 24481.6 1608.76   4
  11 -21   2 24672.9 1644.20   2
  10  11   2 23285.4 1625.98   1
 -11 -10   2 22915.1 1338.87   4
  10  11   5 1108.35 836.662   3
  21 -11   5 1769.28 1336.70   3
  11 -21   5 1492.12 1147.56   3
 -11 -10   5 1536.34 723.526   4
  10  11   8 14095.7 1289.85   3
  21 -11   8 15506.5 2136.80   3
  11 -21   8 14995.8 2135.14   3
 -11 -10   8 14054.7 1194.73   4
 -10 -11  -8 18533.6 2103.15   2
  11  10  -8 18059.8 1974.70   1
 -11  21  -8 16146.0 1435.06   1
  10 -21  -8 17860.5 1786.46   4
  21 -10  -8 14332.5 1700.00   1
 -10 -11  -8 17696.5 1913.24   4
  21 -10  -8 13145.4 1269.72   2
  10 -21  -8 21327.0 2289.39   2
  21 -10  -5 424.547 1072.71   3
 -11  21  -5 1206.31 790.918   1
  21 -10  -5 3361.05 955.708   1
 -10 -11  -5 4288.12 1267.30   2
  10 -21  -5 1256.80 928.732   4
  21 -10  -5 3570.38 892.572   2
 -10 -11  -5 3815.49 1121.45   4
  10 -21  -5 932.618 1496.62   2
  11  10  -5 3203.29 1255.47   1
  21 -10  -2 25026.7 1278.57   1
  21 -10  -2 27338.3 2239.82   3
 -10 -11  -2 26219.8 1721.79   2
  10 -21  -2 24312.4 1953.75   2
  10 -21  -2 24672.8 1213.03   3
  11  10  -2 18248.3 939.917   2
  10 -21  -2 22905.9 1646.04   4
  11  10  -2 20355.2 1693.10   1
 -10 -11  -2 20309.4 1463.76   4
 -11  21  -2 25424.8 1426.47   1
  21 -10   1 3802.21 1298.84   3
 -11  21   1 1683.23 761.188   3
 -10 -11   1 1776.58 675.492   2
  10 -21   1 4912.93 1135.82   3
  11  10   1 2605.98 964.872   1
  10 -21   1 2905.41 971.284   4
  10 -21   1 3278.32 1026.46   2
  21 -10   1 2892.04 476.714   1
 -10 -11   1 3354.43 858.488   4
  21 -10   1 1934.78 631.665   4
  11  10   4 12882.9 1452.70   3
  21 -10   4 11454.6 1763.78   3
  10 -21   4 10905.6 1529.94   3
 -10 -11   4 14938.5 1219.18   4
  11  10   4 16861.1 1557.12   1
  11  10   7 976.591 890.076   3
  21 -10   7 1778.36 1350.58   3
  10 -21   7 4193.20 1406.67   3
 -10 -11   7 106.986 819.544   4
  -9 -12  -6 6616.35 1455.12   2
  12   9  -6 6624.60 1473.60   1
  21  -9  -6 6217.81 994.842   2
   9 -21  -6 4431.46 1191.07   4
  -9 -12  -6 3372.53 1160.47   4
  21  -9  -6 7018.21 1259.97   1
 -12  21  -6 6457.01 1001.29   1
   9 -21  -6 6211.00 1621.45   2
  -9 -12  -3 7089.16 1211.68   2
  21  -9  -3 2043.90 1276.83   3
  12   9  -3 5442.87 1293.88   1
 -12  21  -3 4589.44 816.383   1
   9 -21  -3 3231.09 1072.31   4
  -9 -12  -3 5091.38 1078.03   4
   9 -21  -3 3146.63 1255.07   2
  21  -9  -3 5284.19 928.086   1
  -9 -12   0 13632.8 1153.17   2
  21  -9   0 17230.0 1963.23   3
  -9 -12   0 14581.3 1212.43   4
  21  -9   0 15551.9 935.052   1
   9 -21   0 14462.1 1262.92   3
   9 -21   0 12575.6 1359.07   4
   9 -21   0 13713.9 1475.58   2
  12   9   0 11925.3 1162.33   2
  21  -9   0 14608.5 901.122   4
  12   9   0 14063.1 1411.55   1
  -9 -12   3 8510.30 659.591   2
  12   9   3 7826.01 1196.19   1
  21  -9   3 12031.2 1740.76   3
  12   9   3 7298.62 1290.21   3
   9 -21   3 8917.04 1420.74   3
   9 -21   3 9879.61 1225.58   2
  -9 -12   3 10439.7 1129.45   4
  12   9   6 5654.41 1220.98   3
  21  -9   6 4344.68 1454.17   3
   9 -21   6 4454.56 1403.62   3
  -9 -12   6 7475.15 1000.90   4
  21  -8  -7 8.83722 703.941   2
   8 -21  -7 2562.83 1613.33   2
  21  -8  -7-2539.58 1113.32   1
  -8 -13  -7-1220.12 1225.55   2
 -13  21  -7 1413.43 861.184   1
  13   8  -7-542.570 1350.95   1
   8 -21  -7 1155.90 1125.03   4
  -8 -13  -7 1483.65 1112.40   4
  -8 -13  -4 10868.5 1386.47   2
 -13  21  -4 8716.32 938.576   1
  21  -8  -4 6968.41 825.516   2
  21  -8  -4 7722.04 981.175   2
   8 -21  -4 6294.01 1205.47   4
  -8 -13  -4 8502.20 1271.34   4
   8 -21  -4 9143.53 1623.44   2
  13   8  -4 7238.73 1407.07   1
  21  -8  -4 8530.08 1118.67   1
  21  -8  -1 6345.88 1498.83   3
  -8 -13  -1 4177.91 967.727   2
  21  -8  -1 4020.04 774.419   1
   8 -21  -1 4635.36 834.451   3
  13   8  -1 3690.52 1147.24   1
   8 -21  -1 3880.36 1074.65   4
  21  -8  -1 3115.48 466.349   4
  -8 -13  -1 1779.44 840.377   4
   8 -21  -1 3515.96 1201.68   2
  13   8  -1 3355.19 766.915   2
  13   8   2 19611.1 1900.94   3
 -13  21   2 20826.9 1255.18   3
  21  -8   2 27061.7 2263.67   3
   8 -21   2 27332.1 1830.49   3
  13   8   2 20577.5 1550.26   1
   8 -21   2 22645.6 1695.14   4
  21  -8   2 21494.6 789.867   1
   8 -21   2 22471.7 1624.28   2
  -8 -13   2 21730.8 1474.13   4
  -8 -13   2 24643.6 1216.38   2
  13   8   5 73.6170 1003.26   3
  21  -8   5 2113.71 1439.22   3
   8 -21   5-779.900 1237.56   3
  -8 -13   5 332.344 791.386   4
  13   8   8 8300.78 1281.13   3
  21  -8   8 9855.74 1888.91   3
   8 -21   8 9743.41 1769.81   3
  -8 -13   8 7989.45 1187.03   4
   7 -21  -8 9560.85 1874.32   2
  -7 -14  -8 5595.05 1504.83   2
  14   7  -8 7085.47 1546.27   1
 -14  21  -8 7351.46 1013.80   1
   7 -21  -8 9577.69 1536.94   4
  -7 -14  -8 9421.28 1601.03   4
  21  -7  -8 10556.8 1543.89   1
  -7 -14  -5 3571.59 1221.14   2
  21  -7  -5 1890.77 1016.72   1
 -14  21  -5 3158.21 700.750   1
   7 -21  -5 1453.07 1048.72   4
  21  -7  -5 2153.88 725.285   2
  14   7  -5 1865.23 1171.00   1
  -7 -14  -5 2242.29 1007.95   4
   7 -21  -5 4295.64 1502.69   2
  21  -7  -2 11136.4 1678.80   3
  21  -7  -2 11574.7 1066.27   1
  21  -7  -2 9998.26 976.724   2
  14   7  -2 7808.64 706.820   2
  14   7  -2 8195.73 1339.05   1
   7 -21  -2 8402.28 1248.06   4
   7 -21  -2 10046.7 1527.05   2
  -7 -14  -2 10245.0 1308.91   4
 -14  21  -2 11425.6 948.349   1
  -7 -14  -2 11400.9 1362.58   2
  -7 -14   1 821.052 745.985   2
 -14  21   1 1773.34 820.807   3
  21  -7   1 1963.11 1279.11   3
  14   7   1 1748.81 894.071   1
   7 -21   1 3246.97 963.203   3
   7 -21   1 2465.62 987.189   4
  21  -7   1 2197.65 642.242   1
  -7 -14   1 1972.67 907.795   4
   7 -21   1 3761.75 1094.59   2
  21  -7   1 1908.98 637.325   4
  14   7   4 4894.99 1112.83   1
  14   7   4 3043.26 1124.48   3
  21  -7   4 1642.74 1282.33   3
   7 -21   4 3918.76 1145.50   3
   7 -21   4 4340.76 1017.90   2
  -7 -14   4 4365.97 1010.46   4
  -7 -14   4 3478.52 550.177   2
  14   7   7 1228.58 1020.73   3
  21  -7   7 3179.49 1580.05   3
   7 -21   7 280.279 1294.49   3
  -7 -14   7-130.422 923.686   4
   6 -21  -6 3955.82 1476.20   2
  -6 -15  -6 2718.14 1288.41   2
  21  -6  -6 818.779 1035.18   1
 -15  21  -6 1885.50 686.792   1
  15   6  -6 2736.85 1226.69   1
   6 -21  -6 2547.98 1128.20   4
  -6 -15  -6 1428.50 1035.43   4
  21  -6  -6 1679.61 584.360   2
  15   6  -3-1558.70 1122.94   1
  21  -6  -3 530.181 1166.47   3
  -6 -15  -3-345.116 966.629   2
  21  -6  -3 561.079 583.136   2
  21  -6  -3 646.613 825.479   1
   6 -21  -3 1251.45 1180.06   4
 -15  21  -3 679.975 585.453   1
  15   6  -3-140.042 174.189   2
  -6 -15  -3 1102.87 904.621   4
   6 -21  -3 33.3373 1289.31   2
  -6 -15   0 3502.77 950.308   2
  21  -6   0 3223.32 1351.04   3
  -6 -15   0 3643.94 912.898   4
  21  -6   0 4284.36 871.386   1
   6 -21   0 2974.65 856.561   3
   6 -21   0 3690.60 1093.35   4
  21  -6   0 3559.36 624.506   4
   6 -21   0 4135.99 1151.09   2
  15   6   0 3801.89 1052.43   1
  15   6   0 1879.11 842.334   2
  -6 -15   3 3195.23 718.188   2
  15   6   3 2875.51 1204.09   3
  21  -6   3 2879.87 1344.46   3
  15   6   3 2772.51 925.809   1
   6 -21   3 3761.79 1157.01   3
  -6 -15   3 2835.16 934.145   4
   6 -21   3 5037.14 1094.60   2
   6 -21   3 2444.17 1056.97   4
  15   6   6 26188.4 2111.66   3
  21  -6   6 30274.0 2661.17   3
   6 -21   6 25628.0 2175.54   3
  -6 -15   6 29423.6 1789.38   4
   5 -21  -7 50.1969 1281.80   2
 -16  21  -7 378.347 617.615   1
  -5 -16  -7 1084.51 1339.17   2
  21  -5  -7 695.083 1213.25   1
   5 -21  -7 1142.07 1077.23   4
  -5 -16  -7 3036.19 1173.29   4
  16   5  -7-2030.27 1248.44   1
  21  -5  -4 8751.32 1158.13   1
  21  -5  -4 7570.25 744.157   2
 -16  21  -4 10362.5 790.585   1
  16   5  -4 9999.51 1487.57   1
  21  -5  -4 6606.85 778.954   2
   5 -21  -4 11386.2 1407.74   4
  -5 -16  -4 11015.5 1474.92   4
   5 -21  -4 10520.7 1776.64   2
  -5 -16  -4 10687.1 1511.27   2
  -5 -16  -1-686.517 981.023   2
  21  -5  -1 849.100 1435.95   3
  16   5  -1 1555.00 1017.66   1
  16   5  -1 318.059 688.427   4
   5 -21  -1 2765.05 1066.99   4
  21  -5  -1 227.538 469.164   4
  -5 -16  -1 1247.61 898.686   4
   5 -21  -1 1952.16 1168.68   2
  21  -5  -1 2155.15 804.062   1
  16   5  -1-11.9603 690.161   2
  -5 -16   2 5133.58 905.680   2
  16   5   2 2341.47 890.567   1
 -16  21   2 5423.47 926.398   3
   5 -21   2 6242.41 1211.00   2
  16   5   2 3999.18 1385.05   3
  21  -5   2 2866.44 1521.08   3
  21  -5   2 3744.30 697.972   1
   5 -21   2 5055.86 1141.67   3
   5 -21   2 6433.25 1200.12   4
  -5 -16   2 4015.39 1079.80   4
  16   5   5-1000.42 1167.48   3
  21  -5   5-375.691 1319.37   3
   5 -21   5-537.085 1120.02   3
  -5 -16   5 2068.93 1014.41   4
   5 -21   5-263.550 895.447   2
  -5 -16   5 649.270 519.231   2
  16   5   8 6622.99 1508.05   3
  21  -5   8 7500.15 1727.16   3
   5 -21   8 6548.39 1777.29   3
  -5 -16   8 6342.82 1254.04   4
   4 -21  -8 3770.02 1535.18   2
  -4 -17  -8 3066.29 1458.17   2
  21  -4  -8 993.909 1226.82   1
  17   4  -8 1289.08 1396.93   1
   4 -21  -8 3935.74 1411.90   4
  -4 -17  -8-647.406 1079.69   4
   4 -21  -5 2073.17 1452.77   2
  -4 -17  -5 4123.37 1372.79   2
 -17  21  -5 1139.11 423.680   1
  21  -4  -5 2549.24 1064.32   1
  17   4  -5 3848.67 1311.22   1
   4 -21  -5 3817.97 1166.67   4
  -4 -17  -5 2593.57 1113.69   4
  21  -4  -5 836.626 423.867   2
  21  -4  -2 3461.75 1433.96   3
  -4 -17  -2 1969.58 1060.86   2
  17   4  -2 2122.01 1097.79   1
  21  -4  -2 2284.32 688.844   2
   4 -21  -2 3632.89 1116.45   4
  -4 -17  -2 1006.74 950.629   4
  21  -4  -2 3539.82 963.021   1
   4 -21  -2 2854.13 1293.45   2
  17   4  -2 1760.34 630.187   2
  17   4   1 2295.13 1313.18   3
  21  -4   1 1781.66 1484.00   3
  17   4   1 1331.33 867.262   1
   4 -21   1 4687.15 1016.18   3
   4 -21   1 3829.08 1116.75   4
  -4 -17   1 2964.72 1013.65   4
  21  -4   1 1253.16 672.573   4
   4 -21   1 2703.23 1103.58   2
  21  -4   1 2355.51 768.928   1
  -4 -17   1 2135.92 904.595   2
  17   4   4 3371.73 1419.54   3
  21  -4   4 2194.75 1354.50   3
  17   4   4 1375.30 921.995   1
   4 -21   4 2434.99 1354.95   3
   4 -21   4 2671.55 1036.12   4
  -4 -17   4 3156.48 1045.55   4
   4 -21   4 876.763 911.328   2
  -4 -17   4 2206.93 762.451   2
   4 -21   7 2173.47 921.713   2
  17   4   7-232.168 1080.44   3
  21  -4   7 227.179 1197.21   3
   4 -21   7 2998.96 1383.13   3
  -4 -17   7 1337.40 961.406   4
  21  -3  -6 23002.4 1846.23   1
  18   3  -6 22786.5 2035.02   1
   3 -21  -6 21731.1 1857.06   4
  -3 -18  -6 24640.5 2038.42   4
   3 -21  -6 24918.1 2302.31   2
  -3 -18  -6 21769.9 2090.08   2
  -3 -18  -3-944.247 1050.33   2
  21  -3  -3-49.5231 539.084   2
  21  -3  -3 358.260 903.357   1
   3 -21  -3-1188.52 1033.58   4
  -3 -18  -3 2309.36 1059.12   4
  18   3  -3-49.2213 323.737   2
   3 -21  -3-311.238 1413.22   2
  18   3  -3 2132.16 1154.25   1
  18   3   0 30797.6 2502.37   3
  21  -3   0 33592.9 2558.72   3
  18   3   0 30549.5 1579.28   4
   3 -21   0 33148.2 2065.44   4
  -3 -18   0 31136.3 1930.28   4
  21  -3   0 29490.9 1367.92   4
  21  -3   0 35683.1 1668.38   1
   3 -21   0 36347.6 2099.93   2
  -3 -18   0 35724.7 1946.34   2
  18   3   0 32368.6 1833.44   1
  -3 -18   3-44.4643 1003.54   4
  21  -3   3-165.731 659.707   1
  18   3   3 1162.59 1275.55   3
  21  -3   3-1977.47 1460.41   3
   3 -21   3-1133.88 1069.03   3
   3 -21   3-313.216 944.359   4
  18   3   3 1030.14 813.786   1
   3 -21   3 616.703 912.121   2
  -3 -18   3 635.833 808.316   2
  18   3   6 12975.9 1837.54   3
  21  -3   6 15091.7 2101.54   3
   3 -21   6 19076.0 2031.14   3
  -3 -18   6 17114.8 1647.68   4
   3 -21   6 18857.8 1455.10   2
  -3 -18   6 12794.0 959.455   2
   2 -21  -7 5539.44 1590.67   2
  -2 -19  -7 4995.86 1591.83   2
  21  -2  -7 3874.74 1312.94   1
  19   2  -7 5051.46 1439.62   1
   2 -21  -7 1756.90 1172.68   4
  -2 -19  -7 2788.37 1205.88   4
   2 -21  -4 1862.59 1352.91   2
  -2 -19  -4 873.809 1156.15   2
  21  -2  -4-2.73036 1014.56   1
  21  -2  -4-191.968 374.765   2
   2 -21  -4 1040.10 999.526   4
  -2 -19  -4-446.276 1100.57   4
  19   2  -4 320.573 1095.51   1
  -2 -19  -1 4494.72 1161.09   2
  21  -2  -1 3334.04 1614.80   3
  19   2  -1 1896.17 810.516   2
  21  -2  -1 3713.45 1003.92   1
  21  -2  -1 2994.90 654.231   4
  19   2  -1 4774.02 1152.21   1
  19   2  -1 3525.53 781.156   4
   2 -21  -1 1664.41 1080.68   4
  -2 -19  -1 4806.31 1233.85   4
   2 -21  -1 3539.67 1199.95   2
  19   2   2 2521.16 1371.22   3
  21  -2   2 2922.90 1440.72   3
   2 -21   2 5939.95 1196.79   4
  -2 -19   2 3014.46 1122.53   4
   2 -21   2 3315.40 1112.25   2
  -2 -19   2 2102.01 920.962   2
  21  -2   2 2888.10 807.276   1
  19   2   2 2567.93 920.122   1
  19   2   5 4378.02 1407.23   3
  21  -2   5 1419.55 1441.97   3
   2 -21   5 5192.37 1465.42   3
   2 -21   5 2016.67 1109.97   4
   2 -21   5 2637.09 932.690   2
  -2 -19   5 2270.40 1082.77   4
  -2 -19   5 1068.71 731.336   2
  19   2   8 601.271 1212.51   3
  21  -2   8 3215.93 1400.94   3
   2 -21   8 2453.89 1519.58   3
  -2 -19   8 4752.55 1237.46   4
   2 -21   8 2817.01 864.662   2
   1 -21  -5 1089.99 1390.18   2
  -1 -20  -5 2151.17 1405.40   2
  21  -1  -5 3278.99 1179.06   1
  20   1  -5 1927.71 1121.80   1
   1 -21  -5 2706.47 1195.92   4
  -1 -20  -5-101.885 1142.84   4
  -1 -20  -2 2055.77 1174.12   2
  20   1  -2 2064.72 698.221   2
  20   1  -2 2190.71 1097.82   1
  21  -1  -2 2295.70 736.098   2
   1 -21  -2 2047.86 1120.08   4
  -1 -20  -2 2682.19 1181.49   4
   1 -21  -2 3889.47 1412.92   2
  21  -1  -2 2391.33 1070.49   1
  20   1   1 488.005 1262.13   3
  21  -1   1-952.851 1374.83   3
  21  -1   1 176.543 807.801   1
  20   1   1 882.458 864.015   1
   1 -21   1-366.534 985.204   4
  -1 -20   1 330.468 1038.06   4
   1 -21   1 499.958 1014.85   2
  -1 -20   1 1257.73 960.830   2
  20   1   4 2791.04 1344.69   3
  21  -1   4 2175.73 1356.22   3
  -1 -20   4-191.054 1043.94   4
   1 -21   4 2535.44 1196.28   3
   1 -21   4 3394.10 1129.21   4
  20   1   4 351.144 766.763   1
   1 -21   4-8.61888 843.224   2
  -1 -20   4 742.160 845.116   2
  20   1   7-186.122 1187.56   3
  21  -1   7 972.162 1269.36   3
   1 -21   7 1005.49 1320.55   3
   1 -21   7 210.681 1022.16   4
  -1 -20   7 1947.80 1095.41   4
   1 -21   7 467.662 742.841   2
  21   0  -6 18713.7 1842.66   1
   0 -21  -6 13471.9 1633.05   4
   0 -21  -6 18448.8 2122.95   2
   0 -21  -3-240.901 1319.82   2
   0 -21  -3-700.005 1014.15   4
  21   0  -3-664.369 1073.60   1
  21   0   0 35636.3 2800.18   3
  21   0   0 31158.3 1565.10   4
   0 -21   0 30842.1 2009.98   4
   0 -21   0 35865.4 2151.47   2
  21   0   0 32726.7 1812.76   1
  21   0   3 2100.22 1351.16   3
   0 -21   3-249.927 1149.44   4
  21   0   3 867.585 795.084   1
   0 -21   3 1288.58 958.301   2
  21   0   6 8321.54 1731.05   3
   0 -21   6 7246.13 1374.00   4
   0 -21   6 8952.02 1062.35   2
   0  22  -7 6.09965 1321.04   1
 -22   0  -7 75.0966 1068.37   2
  22 -22  -7-1681.08 1366.45   1
  22 -22  -7 77.5845 1316.43   2
 -22   0  -7 996.908 1128.65   4
  22 -22  -4 1972.73 1083.48   3
 -22   0  -4 1402.32 956.929   2
  22 -22  -4 507.785 846.890   4
  22 -22  -4-1596.71 1301.85   2
   0  22  -4 1697.19 1218.86   1
 -22   0  -4-218.935 812.624   4
   0  22  -1 1246.67 988.379   1
  22 -22  -1 1253.52 1216.79   3
  22 -22  -1 429.231 910.397   4
  22 -22  -1 1224.62 1181.21   2
 -22   0  -1 416.999 608.918   4
  22 -22   2 1056.73 1344.06   3
   0  22   2 881.285 1002.54   1
 -22   0   2 389.918 279.863   4
  22 -22   5 158.221 1269.08   3
  22 -21  -5 2580.89 1069.68   3
  21 -22  -5 4578.63 1181.12   3
 -21  -1  -5 3667.93 1114.10   2
 -22   1  -5 4182.34 1158.71   2
   1  21  -5 2338.96 1279.52   1
  -1  22  -5 3749.65 1221.89   1
  22 -21  -5 4920.00 1190.50   1
  21 -22  -5 1937.09 898.522   4
  22 -21  -5 2157.52 870.556   4
  22 -21  -5 1065.67 1194.28   2
  21 -22  -5 2870.63 1458.39   2
 -21  -1  -5 3145.03 1036.76   4
 -22   1  -5 2595.17 968.101   4
  22 -21  -2-622.948 1122.25   3
  21 -22  -2 1462.46 1095.41   3
   1  21  -2 512.542 1014.22   1
 -21  -1  -2 1514.29 823.688   2
  -1  22  -2 22.8225 1036.76   1
  21 -22  -2 207.951 905.926   4
  22 -21  -2 1736.70 929.809   4
  22 -21  -2 1682.67 1097.41   2
  21 -22  -2 690.722 1077.81   2
 -21  -1  -2 115.588 723.596   4
 -22   1  -2 2066.41 756.801   4
  22 -21   1 2018.26 1278.59   3
  21 -22   1 2890.59 1377.68   3
   1  21   1 2507.08 1005.63   1
  22 -21   1 1204.87 301.879   1
 -21  -1   1 2345.51 524.712   4
 -22   1   1 1971.74 479.313   4
  -1  22   1 1738.49 1036.09   1
   1  21   4 567.910 386.052   3
  22 -21   4 158.140 1249.17   3
  21 -22   4 1326.42 1366.76   3
  22 -21   7 3080.25 1519.80   3
  21 -22   7 1068.20 1300.97   3
  22 -20  -6-356.469 1045.09   3
  20 -22  -6 1891.60 1000.31   3
   2  20  -6 3046.28 1351.48   1
 -20  -2  -6 3272.80 1162.68   2
 -22   2  -6 2760.31 1154.18   2
  -2  22  -6 3895.76 1300.93   1
  22 -20  -6 4291.80 1204.23   1
  20 -22  -6 3445.63 1066.90   4
  22 -20  -6 2409.81 861.586   4
  22 -20  -6 3334.78 1367.70   2
  20 -22  -6 4283.12 1577.10   2
 -20  -2  -6 3036.37 1148.17   4
 -22   2  -6 3001.89 1096.07   4
  -2  22  -3 14850.4 1512.95   1
  22 -20  -3 15788.2 1762.95   3
  20 -22  -3 16166.3 1627.82   3
 -20  -2  -3 17766.2 1587.99   2
 -22   2  -3 17357.5 1552.17   2
  22 -20  -3 16092.5 1287.02   1
  22 -20  -3 12077.9 1519.20   2
  20 -22  -3 15637.9 1806.49   2
  22 -20  -3 16104.2 1294.38   4
  20 -22  -3 14116.8 1358.04   4
 -20  -2  -3 15021.7 1350.22   4
 -22   2  -3 18118.8 1391.92   4
   2  20  -3 10958.6 1536.65   1
   2  20   0 4177.42 1190.49   1
  22 -20   0 4082.54 593.093   1
  22 -20   0 2931.59 1380.23   3
  20 -22   0 6407.67 1439.31   3
  -2  22   0 4628.87 1166.56   1
  20 -22   0 4964.20 1071.00   4
  22 -20   0 3914.48 523.183   1
 -20  -2   0 4414.09 742.079   4
  20 -22   0 3660.86 733.222   1
 -22   2   0 4262.16 686.318   4
  22 -20   3 18088.6 2050.59   3
  20 -22   3 14688.1 1845.17   3
   2  20   3 15972.1 1650.30   1
  22 -20   6 9611.58 1884.28   3
  20 -22   6 9169.70 1802.22   3
  22 -19  -7 1463.86 1063.58   3
   3  19  -7-2279.23 1283.34   1
  -3  22  -7-191.239 1156.28   1
 -19  -3  -7-7.77221 1149.78   2
 -22   3  -7 369.166 1068.13   2
  19 -22  -7 3125.98 1153.80   4
  22 -19  -7-450.011 1145.83   1
  22 -19  -7 695.038 1258.46   2
  19 -22  -7 1925.64 1577.18   2
 -19  -3  -7 1603.62 1254.65   4
 -22   3  -7-677.430 1094.66   4
  22 -19  -4-362.863 1086.72   3
  19 -22  -4 1006.47 942.342   3
  19 -22  -4 1525.22 936.588   4
 -19  -3  -4 1383.54 944.044   2
 -22   3  -4 572.110 974.580   2
   3  19  -4-575.856 1196.90   1
  22 -19  -4 726.380 720.240   4
  22 -19  -4 1022.60 1097.48   2
  19 -22  -4-287.437 1259.10   2
  22 -19  -4 865.873 793.367   1
 -19  -3  -4 400.296 831.891   4
  -3  22  -4 1000.49 985.092   1
 -22   3  -4 821.731 795.101   4
  22 -19  -1 2300.02 662.132   1
  -3  22  -1 3506.65 1054.90   1
  22 -19  -1 3026.98 1222.17   3
  19 -22  -1 3181.93 1174.92   3
 -19  -3  -1 3956.61 849.804   2
   3  19  -1 2898.00 1020.07   1
  22 -19  -1 2726.89 893.516   4
  19 -22  -1 2001.01 982.564   4
  19 -22  -1 3419.26 1233.76   2
  22 -19  -1 3541.77 626.667   1
 -19  -3  -1 2055.72 713.097   4
 -22   3  -1 2893.40 696.801   4
   3  19   2 5065.01 1188.05   1
  22 -19   2 2225.26 1335.43   3
  -3  22   2 2739.12 748.111   3
  19 -22   2 3415.93 1259.61   3
   3  19   2 2701.34 832.878   3
  19 -22   2 2238.37 545.558   1
  -3  22   2 3149.46 1044.55   1
 -19  -3   2 2669.96 507.589   4
  22 -19   5 3806.71 1441.62   3
  19 -22   5 3505.69 1412.77   3
   4  18  -8 2145.72 1385.91   1
  22 -18  -8 2828.54 1339.52   3
  -4  22  -8 1385.64 1210.24   1
 -18  -4  -8 1184.10 1223.30   2
 -22   4  -8-735.741 1172.22   2
  18 -22  -8 2021.97 1123.22   4
 -18  -4  -8 2905.83 1322.69   4
  22 -18  -8 1719.18 1268.48   2
  18 -22  -8 2289.16 1435.56   2
 -22   4  -8 5063.68 1335.29   4
  22 -18  -5 3052.59 1187.89   3
  18 -22  -5 4120.82 959.348   3
   4  18  -5 3268.18 1249.98   1
 -18  -4  -5 3474.45 1196.55   2
 -22   4  -5 5079.42 1155.16   2
  22 -18  -5 5788.54 1091.65   1
  -4  22  -5 2936.47 1095.53   1
  18 -22  -5 3031.83 974.927   4
  22 -18  -5 4335.18 1252.32   2
  22 -18  -5 3255.08 740.982   4
  18 -22  -5 4798.50 1404.68   2
 -18  -4  -5 2638.33 997.057   4
 -22   4  -5 6448.86 1159.90   4
   4  18  -2 5350.75 1202.79   1
 -22   4  -2 2119.61 609.660   1
  22 -18  -2 6517.68 1448.01   3
  18 -22  -2 4943.59 1195.43   3
 -18  -4  -2 3257.80 941.137   2
  22 -18  -2 4239.61 1153.28   2
  22 -18  -2 4028.89 864.106   4
  18 -22  -2 4390.24 1063.77   4
  18 -22  -2 3726.39 1280.03   2
  -4  22  -2 3510.64 1054.91   1
  22 -18  -2 4044.93 735.750   1
 -18  -4  -2 4400.59 914.598   4
 -22   4  -2 4890.96 814.054   4
  18 -22   1 2750.29 697.444   1
  -4  22   1 1756.83 812.150   3
  18 -22   1 2315.97 1175.74   3
   4  18   1 2806.01 1062.76   1
  -4  22   1 1946.72 1049.44   1
 -18  -4   1 2992.29 645.321   4
   4  18   4 533.378 639.186   3
  22 -18   4 437.339 1200.32   3
  18 -22   4-487.907 1175.81   3
 -18  -4   4 170.191 328.366   4
  22 -18   7 1842.05 1453.58   3
  18 -22   7-568.128 1429.38   3
  22 -17  -6 277.751 1079.08   3
   5  17  -6 593.014 1258.87   1
 -17  -5  -6 1014.27 1043.15   2
  -5  22  -6 143.923 1034.95   1
 -22   5  -6-666.806 1008.86   2
  17 -22  -6 1327.05 987.866   4
  22 -17  -6 2428.12 1249.03   2
  22 -17  -6 1314.92 1013.20   1
  17 -22  -6 101.866 1385.16   2
 -17  -5  -6 527.818 965.801   4
 -22   5  -6 1279.82 939.508   4
  22 -17  -3 16691.5 1840.52   3
  -5  22  -3 14667.1 1384.90   1
  17 -22  -3 15382.2 1422.96   3
 -17  -5  -3 17224.9 1539.49   2
  22 -17  -3 14646.8 1571.33   2
  22 -17  -3 19062.8 1131.30   4
  17 -22  -3 14789.6 1688.50   2
  17 -22  -3 14542.3 1417.46   4
  22 -17  -3 16502.0 1217.74   1
   5  17  -3 16736.4 1702.30   1
 -17  -5  -3 16773.0 1424.01   4
 -22   5  -3 12369.5 810.075   1
 -22   5  -3 16352.7 1282.32   4
  22 -17   0 189.445 381.578   1
  22 -17   0 1228.45 1103.93   3
  17 -22   0 1221.59 980.474   3
 -17  -5   0 923.526 652.423   2
  22 -17   0 655.178 415.901   1
  17 -22   0 507.067 919.485   4
  17 -22   0 1067.95 986.710   2
  17 -22   0 110.143 670.425   1
  -5  22   0-110.167 897.708   1
   5  17   0 539.956 963.050   1
 -17  -5   0 305.203 602.932   4
   5  17   3 6435.89 1002.96   3
  17 -22   3 5344.79 653.091   1
  -5  22   3 3471.36 402.038   3
  22 -17   3 9628.98 1629.01   3
  17 -22   3 7634.75 1456.64   3
   5  17   3 7599.16 1380.23   1
   5  17   3 4972.56 855.345   3
 -17  -5   3 6504.70 653.221   4
  22 -17   6 2359.35 1364.65   3
  17 -22   6 3287.83 1447.83   3
   6  16  -7 4521.20 1450.92   1
  22 -16  -7 3085.76 1214.72   3
  -6  22  -7 4129.78 1261.97   1
 -16  -6  -7 5949.91 1450.56   2
  16 -22  -7 2837.64 1111.66   4
  22 -16  -7 584.526 1051.24   2
  22 -16  -7 2176.61 1075.73   1
 -16  -6  -7 4363.37 1295.94   4
  16 -22  -7 2872.71 1567.94   2
 -22   6  -7 2342.33 1088.73   4
  -6  22  -4 2381.01 1016.64   1
  22 -16  -4 1461.38 1166.06   3
 -22   6  -4 1530.46 429.123   1
  16 -22  -4 1703.00 725.300   3
   6  16  -4 1188.94 1231.92   1
 -16  -6  -4 2515.96 1091.53   2
  22 -16  -4 1253.04 1000.43   2
  16 -22  -4 1372.44 963.981   4
  22 -16  -4 1102.58 511.158   4
  16 -22  -4 2614.81 1374.13   2
 -16  -6  -4 3090.17 1003.61   4
  22 -16  -4 1933.07 806.756   1
 -22   6  -4 3316.42 904.225   4
  22 -16  -1 16581.3 1901.43   3
   6  16  -1 14662.0 1531.32   1
  16 -22  -1 16630.9 1534.61   3
 -16  -6  -1 15080.6 1250.89   2
  22 -16  -1 17095.9 1147.71   4
  16 -22  -1 15537.1 1424.13   4
  16 -22  -1 15218.7 1581.46   2
 -22   6  -1 12037.2 849.494   1
  -6  22  -1 15133.8 1418.14   1
  22 -16  -1 15877.2 900.130   1
 -16  -6  -1 14849.0 1237.10   4
  22 -16  -1 13380.9 933.728   4
  -6  22   2 2958.49 684.479   3
  22 -16   2 2423.86 1206.42   3
  16 -22   2 3167.00 1176.51   3
   6  16   2 3324.50 1144.09   1
  16 -22   2 2228.65 689.952   1
 -16  -6   2 2277.26 632.170   4
   6  16   5 2061.68 710.133   3
  22 -16   5 4057.52 1532.90   3
  16 -22   5 4654.15 1323.16   3
 -16  -6   5 3949.90 588.051   4
  22 -16   8-2427.14 1564.94   3
  16 -22   8 957.718 1299.33   3
  22 -15  -8 2035.35 1317.68   3
  -7  22  -8-29.4482 1037.44   1
 -15  -7  -8-683.182 1220.02   2
  15 -22  -8 299.663 1031.44   4
 -15  -7  -8 4104.37 1366.73   4
   7  15  -8 3858.96 1591.36   1
  22 -15  -8-663.635 1177.24   1
  22 -15  -8-914.766 1104.74   2
 -22   7  -8 116.229 1114.40   4
  15 -22  -8-1119.73 1469.19   2
  22 -15  -5 5151.77 1369.44   3
   7  15  -5 4694.13 1400.63   1
 -15  -7  -5 7016.19 1297.31   2
  15 -22  -5 2099.31 376.815   3
  15 -22  -5 3012.16 1033.42   4
  -7  22  -5 4482.26 1126.19   1
  22 -15  -5 1734.42 1036.24   2
  15 -22  -5 3981.73 1423.28   2
  22 -15  -5 1539.79 266.617   4
 -15  -7  -5 1863.12 1034.27   4
  22 -15  -5 4190.40 1022.13   1
 -22   7  -5 3388.32 991.039   4
  -7  22  -2 4226.39 1008.58   1
  22 -15  -2 3425.43 1351.98   3
 -15  -7  -2 6426.10 1125.92   2
  15 -22  -2 3070.83 929.827   3
  22 -15  -2 4905.41 715.804   4
 -22   7  -2 4592.94 534.417   1
  15 -22  -2 3996.41 1082.87   4
  15 -22  -2 5340.38 1301.07   2
  22 -15  -2 5073.79 761.788   1
   7  15  -2 4005.70 1169.36   1
 -15  -7  -2 5126.06 930.148   4
  22 -15  -2 3481.23 557.117   4
  22 -15   1 12896.4 1775.54   3
  -7  22   1 6852.55 1009.95   3
  15 -22   1 11092.6 1430.23   3
 -15  -7   1 9848.26 861.628   2
   7  15   1 10896.8 1357.70   1
  15 -22   1 7592.11 970.712   1
  15 -22   1 9659.77 1204.78   4
 -15  -7   1 9774.94 968.220   4
  -7  22   1 7905.18 1171.28   1
  15 -22   1 10511.1 1349.57   2
   7  15   4 508.184 729.125   3
  15 -22   4 362.778 544.068   1
  22 -15   4 1113.95 1192.07   3
  15 -22   4 104.670 1132.49   3
   7  15   4 49.7546 659.981   3
   7  15   4-398.082 1009.16   1
 -15  -7   4 525.438 544.774   4
  22 -15   7 3678.46 1484.12   3
  15 -22   7 5843.53 1679.78   3
 -15  -7   7 3517.52 661.114   4
 -22   8  -6 2486.22 1010.90   4
   8  14  -6-1333.30 1343.65   1
  22 -14  -6 3335.09 1332.66   3
 -14  -8  -6 445.517 1003.62   2
  -8  22  -6 65.0120 931.367   1
  14 -22  -6 682.558 975.989   4
  22 -14  -6 611.153 974.984   2
 -14  -8  -6 243.538 985.643   4
  14 -22  -6 2266.66 1552.88   2
  22 -14  -6-87.3124 920.969   1
  22 -14  -3 10002.7 1687.62   3
 -14  -8  -3 12026.2 1403.19   2
 -22   8  -3 7775.70 449.866   1
   8  14  -3 10513.5 1478.99   1
  -8  22  -3 11839.2 1278.35   1
  14 -22  -3 12587.3 1042.28   3
  22 -14  -3 10473.9 1291.32   2
  14 -22  -3 12727.7 1386.24   4
  22 -14  -3 11389.3 682.288   4
  22 -14  -3 12785.2 1071.32   1
 -14  -8  -3 11921.4 1277.43   4
  14 -22  -3 11952.1 1602.80   2
  22 -14  -3 8900.31 550.194   4
  22 -14   0 496.802 1106.49   3
  -8  22   0 2.05501 820.315   3
 -14  -8   0 197.058 667.719   4
  14 -22   0-66.6594 877.195   3
 -14  -8   0 233.655 630.778   2
  22 -14   0 864.800 418.523   1
   8  14   0 232.425 972.308   1
  -8  22   0 1471.55 922.814   1
  14 -22   0 708.780 929.183   4
  14 -22   0-156.505 971.071   2
  22 -14   0-355.796 569.986   4
  -8  22   3 3052.66 359.274   3
   8  14   3 5373.20 1098.15   3
  14 -22   3 4395.19 805.803   1
  22 -14   3 9175.23 1643.27   3
   8  14   3 7160.04 1267.37   1
  14 -22   3 5359.01 1273.46   3
 -14  -8   3 4960.06 742.172   4
   8  14   6-95.6979 665.398   3
  22 -14   6-170.767 1296.35   3
  14 -22   6 1750.10 1332.00   3
 -14  -8   6 1426.73 664.697   4
  22 -13  -7 4608.98 1253.53   1
  22 -13  -7 5466.53 1437.92   3
 -13  -9  -7 6909.43 1510.13   2
  -9  22  -7 5417.39 1149.62   1
  13 -22  -7 3634.58 1175.68   4
 -13  -9  -7 7303.30 1390.32   4
   9  13  -7 5418.55 1607.93   1
  22 -13  -7 5400.58 1224.48   2
  13 -22  -7 5307.88 1636.54   2
  22 -13  -4 6477.18 1503.48   3
  -9  22  -4 5580.89 1032.70   1
   9  13  -4 6782.63 1351.24   1
 -13  -9  -4 6459.68 1245.40   2
  13 -22  -4 4873.31 461.995   3
  13 -22  -4 6183.67 1168.07   4
  22 -13  -4 5326.07 1066.35   2
  22 -13  -4 5991.88 958.059   1
  13 -22  -4 6406.59 1426.97   2
 -13  -9  -4 5031.73 1069.51   4
  22 -13  -1 3003.14 1396.02   3
  22 -13  -1 3480.51 627.678   1
 -13  -9  -1 4182.50 910.789   2
  13 -22  -1 3829.81 927.019   3
  13 -22  -1 4610.39 1124.81   4
   9  13  -1 3858.02 795.771   2
  13 -22  -1 2552.13 1156.32   2
 -13  -9  -1 3634.78 901.267   4
  -9  22  -1 4531.11 926.305   1
   9  13  -1 2624.84 1054.69   1
  22 -13  -1 2794.39 559.483   4
  -9  22   2 2177.84 629.083   3
  22 -13   2 3442.66 1367.02   3
   9  13   2 1408.81 1000.01   1
  13 -22   2 985.767 1107.14   3
 -13  -9   2 2558.13 518.943   2
  13 -22   2 1849.59 977.634   2
 -13  -9   2 1105.90 699.864   4
  22 -13   5 7888.77 1703.38   3
   9  13   5 6397.65 1049.24   3
  13 -22   5 9632.22 1632.80   3
 -13  -9   5 8591.91 946.594   4
  13 -22   8 425.700 1210.64   3
 -13  -9   8 1558.37 745.482   4
  22 -12  -8 4466.68 1064.71   2
  12 -22  -8 2667.74 1466.67   2
  22 -12  -8 4381.51 1277.83   1
 -12 -10  -8 4923.49 1459.75   2
 -10  22  -8 2454.91 991.457   1
  10  12  -8 3751.17 1416.51   1
  12 -22  -8 2756.59 1140.83   4
 -12 -10  -8 4592.12 1394.90   4
  10  12  -5 6453.07 1406.47   1
  22 -12  -5 6898.86 1132.32   2
  22 -12  -5 4835.77 1496.85   3
 -10  22  -5 6279.59 1020.73   1
 -12 -10  -5 8414.50 1481.65   2
  12 -22  -5 8355.07 1295.20   4
 -12 -10  -5 7124.72 1312.99   4
  22 -12  -5 8385.23 1149.04   1
  12 -22  -5 8113.62 1633.76   2
  22 -12  -2 10070.5 1697.14   3
 -12 -10  -2 10591.8 1234.34   2
  12 -22  -2 11539.8 1090.10   3
  10  12  -2 7414.66 773.693   2
  22 -12  -2 8475.67 583.135   4
  12 -22  -2 10080.6 1319.54   4
 -12 -10  -2 9501.92 1190.06   4
  10  12  -2 10043.1 1414.39   1
 -10  22  -2 10790.2 1163.65   1
  22 -12  -2 9198.03 545.749   4
  22 -12  -2 10731.8 945.131   1
  22 -12   1 8373.31 1562.10   3
 -10  22   1 9390.52 1077.42   3
 -12 -10   1 10419.0 943.416   2
  10  12   1 9686.16 1305.17   1
  12 -22   1 9504.05 1319.33   3
  12 -22   1 11219.3 1279.39   4
  12 -22   1 8760.23 1323.93   2
 -12 -10   1 8484.25 976.390   4
  22 -12   1 7113.89 470.536   1
  22 -12   1 7200.69 865.240   4
  10  12   4 4057.52 1031.56   3
  22 -12   4 3919.70 1367.04   3
  12 -22   4 7001.74 1425.52   3
  10  12   4 4043.06 1090.64   1
 -12 -10   4 5664.62 863.057   4
  10  12   7 8226.98 1117.34   3
  22 -12   7 11593.0 1885.12   3
  12 -22   7 9316.67 1718.77   3
 -12 -10   7 9899.20 1055.52   4
  22 -11  -6-494.686 1144.87   3
  22 -11  -6 1134.38 915.901   1
 -11 -11  -6-1367.89 1150.63   2
  11 -22  -6 655.025 916.706   4
 -11  22  -6 777.656 842.055   1
  22 -11  -6-737.163 870.428   2
 -11 -11  -6 728.151 1077.33   4
  11  11  -6-188.764 1316.05   1
  11 -22  -6-18.7633 1470.72   2
  22 -11  -3 12349.0 1867.99   3
  11 -22  -3 13287.3 1688.71   2
 -11 -11  -3 11841.7 1449.35   2
  11 -22  -3 9899.08 703.403   3
 -11  22  -3 12355.1 1160.31   1
  22 -11  -3 11839.9 1226.59   2
  11  11  -3 9675.91 1416.91   1
  11 -22  -3 11216.5 1354.69   4
 -11 -11  -3 13499.9 1396.91   4
  22 -11  -3 12264.3 1124.52   1
  22 -11   0-2059.86 1279.80   3
  11  11   0 897.038 987.429   1
 -11 -11   0-140.864 686.798   2
  11 -22   0 599.219 955.645   4
  11 -22   0 705.074 846.508   3
  11 -22   0 335.545 967.672   2
 -11 -11   0 484.657 743.245   4
  22 -11   0 570.714 529.438   1
  22 -11   0-307.224 512.938   4
  11  11   3 9469.24 1339.41   3
  11  11   3 8129.04 1296.07   1
  22 -11   3 9925.39 1750.99   3
 -11 -11   3 8854.08 585.124   2
  11 -22   3 11396.7 1519.86   3
 -11 -11   3 9443.67 1046.28   4
  11  11   6-56.4121 817.030   3
  22 -11   6 677.457 1394.76   3
  11 -22   6-1843.82 1284.10   3
 -11 -11   6 1633.51 833.562   4
 -10 -12  -7 13860.0 1860.26   2
  12  10  -7 11075.0 1733.73   1
  10 -22  -7 9957.12 1524.90   4
  22 -10  -7 9743.06 1132.48   2
 -10 -12  -7 8564.33 1577.70   4
 -12  22  -7 9709.28 1193.04   1
  10 -22  -7 11671.1 1944.36   2
  22 -10  -7 9846.54 1416.08   1
  22 -10  -4 4541.50 1526.65   3
  12  10  -4 6257.97 1353.38   1
 -10 -12  -4 4953.87 1233.79   2
 -12  22  -4 7183.36 980.449   1
  22 -10  -4 4881.50 986.443   2
  10 -22  -4 6445.04 1222.32   4
 -10 -12  -4 5791.41 1172.23   4
  10 -22  -4 6794.95 1554.94   2
  22 -10  -4 7120.68 1070.28   1
  22 -10  -1 9589.40 1630.69   3
 -10 -12  -1 9242.08 1144.74   2
  22 -10  -1 8891.14 892.386   1
  10 -22  -1 8681.61 1033.71   3
  10 -22  -1 8036.95 1239.47   4
  10 -22  -1 8542.53 1382.61   2
  12  10  -1 6465.72 867.185   2
 -10 -12  -1 7905.17 1094.86   4
 -12  22  -1 7765.80 997.828   1
  22 -10  -1 6940.88 613.360   4
  12  10  -1 8653.38 1337.46   1
  12  10   2 12633.5 1571.29   3
 -12  22   2 10500.7 980.901   3
 -10 -12   2 12420.8 916.383   2
  22 -10   2 11788.8 1704.03   3
  10 -22   2 12034.9 1466.89   3
  10 -22   2 13389.4 1377.01   4
  12  10   2 15187.3 1449.99   1
  10 -22   2 12222.6 1429.99   2
 -10 -12   2 11301.3 1169.79   4
  12  10   5 5085.10 1157.37   3
  22 -10   5 6403.95 1601.38   3
  10 -22   5 5293.03 1372.64   3
 -10 -12   5 4017.76 913.609   4
  12  10   8 1844.15 979.261   3
  22 -10   8 2404.79 1443.17   3
  10 -22   8 4086.79 1603.25   3
 -10 -12   8 500.023 783.356   4
   9 -22  -8 132.812 1445.92   2
  22  -9  -8 3641.74 1284.94   1
  -9 -13  -8 2226.75 1279.70   2
 -13  22  -8 1011.95 846.279   1
  13   9  -8 2079.24 1512.52   1
   9 -22  -8 1541.95 1094.62   4
  -9 -13  -8-334.620 1198.34   4
  -9 -13  -5 9532.26 1483.23   2
 -13  22  -5 8182.00 1020.58   1
  22  -9  -5 8784.09 1054.69   2
  -9 -13  -5 7194.35 1250.15   4
   9 -22  -5 7295.79 1248.69   4
  22  -9  -5 8758.07 1231.74   1
  13   9  -5 6080.05 1487.56   1
  22  -9  -2 4504.78 1551.77   3
  -9 -13  -2 3455.57 1001.71   2
  13   9  -2 2741.87 1160.61   1
  22  -9  -2 2317.19 764.231   1
   9 -22  -2 1406.59 612.162   3
 -13  22  -2 3473.46 797.395   1
   9 -22  -2 5231.46 1178.60   4
  13   9  -2 1979.98 583.491   2
  -9 -13  -2 4679.42 1108.96   4
   9 -22  -2 2052.79 1193.46   2
 -13  22   1 4543.84 923.868   3
  22  -9   1 4639.09 1436.82   3
  -9 -13   1 3707.52 823.929   2
   9 -22   1 4562.99 1093.75   3
  13   9   1 5036.94 1115.37   1
   9 -22   1 4860.39 1100.31   4
  22  -9   1 2589.73 572.013   1
   9 -22   1 3403.60 1138.77   2
  -9 -13   1 4459.83 977.856   4
  22  -9   1 3993.65 726.997   4
  -9 -13   4 3872.30 390.787   2
  13   9   4 5110.85 1216.24   3
  22  -9   4 3822.16 1425.23   3
   9 -22   4 7641.40 1514.60   3
  13   9   4 6391.96 1198.22   1
   9 -22   4 4491.08 1099.33   2
  -9 -13   4 5072.11 1002.52   4
  13   9   7 5135.15 1154.49   3
  22  -9   7 4134.55 1517.15   3
   9 -22   7 3749.13 1424.47   3
  -9 -13   7 4023.77 939.982   4
  -8 -14  -6-762.238 1197.92   2
  22  -8  -6 1314.92 986.181   1
 -14  22  -6 1431.72 755.014   1
   8 -22  -6 2319.25 1117.70   4
  14   8  -6-959.696 1267.02   1
  -8 -14  -6 918.742 1018.95   4
  22  -8  -6 2241.19 795.479   2
   8 -22  -6 988.355 1465.28   2
  22  -8  -3 4138.48 1470.30   3
  22  -8  -3 5157.69 957.534   1
 -14  22  -3 6724.30 856.332   1
  14   8  -3 5675.14 1281.46   1
  -8 -14  -3 5721.15 1239.73   2
   8 -22  -3 7392.15 1262.86   4
  -8 -14  -3 4643.65 1140.53   4
   8 -22  -3 4416.48 1438.84   2
  22  -8   0-139.839 708.943   1
  22  -8   0 2526.77 1387.58   3
  -8 -14   0 511.861 809.058   2
   8 -22   0 254.344 815.691   3
   8 -22   0 403.120 995.802   4
  -8 -14   0 479.036 897.850   4
   8 -22   0-1330.94 1053.10   2
  22  -8   0 891.289 550.690   4
  14   8   0 206.429 801.467   2
  14   8   0 1898.66 1042.45   1
  14   8   3 9544.16 1508.56   3
  22  -8   3 11878.2 1841.04   3
   8 -22   3 9027.83 1462.84   3
   8 -22   3 11516.4 1381.55   4
   8 -22   3 8473.52 1248.55   2
  -8 -14   3 10795.7 1240.81   4
  14   8   3 8993.67 1275.66   1
  -8 -14   3 9328.28 790.196   2
  14   8   6 2779.81 1170.00   3
  22  -8   6 1817.15 1412.34   3
   8 -22   6-1219.19 1350.24   3
  -8 -14   6-1035.05 867.154   4
   7 -22  -7 3588.26 1555.59   2
 -15  22  -7 3803.86 839.681   1
  -7 -15  -7 4592.21 1382.69   2
  22  -7  -7 1565.42 1103.95   1
  15   7  -7 1397.47 1281.37   1
   7 -22  -7 3879.62 1318.44   4
  -7 -15  -7 2084.18 1158.04   4
  -7 -15  -4 1262.46 1071.84   2
  22  -7  -4 1389.54 972.193   1
  22  -7  -4 1616.83 618.929   2
 -15  22  -4 1257.56 662.358   1
  22  -7  -4 1051.02 672.734   2
   7 -22  -4 1975.17 1032.99   4
  -7 -15  -4 1184.85 989.990   4
   7 -22  -4 1758.22 1316.16   2
  15   7  -4 1395.75 1142.44   1
  22  -7  -1 7651.34 1678.92   3
  22  -7  -1 10398.0 1024.45   1
   7 -22  -1 10973.8 1046.90   3
  -7 -15  -1 9523.55 1216.19   4
   7 -22  -1 9584.34 1353.21   4
  22  -7  -1 8652.54 644.025   4
  15   7  -1 7152.46 955.003   2
  15   7  -1 7586.84 1311.98   1
   7 -22  -1 6829.82 1318.59   2
  -7 -15  -1 10913.2 1307.44   2
  22  -7   2 4015.01 588.782   1
 -15  22   2 3743.45 826.677   3
  15   7   2 6579.18 1432.66   3
  -7 -15   2 4272.96 803.406   2
  15   7   2 5224.23 1065.41   1
  22  -7   2 3817.52 1432.50   3
   7 -22   2 8342.19 1292.49   3
   7 -22   2 6203.81 1216.87   4
  -7 -15   2 5807.86 1130.13   4
   7 -22   2 4186.56 1092.39   2
  15   7   5 3449.69 1252.11   3
  22  -7   5 3821.39 1374.35   3
   7 -22   5 3991.48 1296.56   3
  -7 -15   5 3504.74 978.394   4
   7 -22   5 2426.37 1092.82   2
  -7 -15   5 2740.44 391.885   2
  15   7   8-667.785 1110.82   3
  22  -7   8 257.515 1407.94   3
   7 -22   8 761.915 1367.70   3
  -7 -15   8 68.4622 895.883   4
   6 -22  -8-350.170 1480.01   2
  -6 -16  -8-855.063 1466.94   2
  22  -6  -8 368.391 1169.84   1
  16   6  -8 420.940 1359.61   1
   6 -22  -8 1021.05 1150.25   4
  -6 -16  -8 211.970 1125.85   4
  -6 -16  -5 3885.96 1275.09   2
 -16  22  -5 2676.66 669.769   1
  22  -6  -5 3050.76 1040.81   1
   6 -22  -5 2522.22 1069.90   4
  22  -6  -5 3852.29 708.813   2
  -6 -16  -5 3217.69 1130.00   4
  16   6  -5 1565.18 1214.37   1
   6 -22  -5 3971.15 1484.20   2
  22  -6  -2 4129.02 1532.47   3
  -6 -16  -2 2454.88 1043.15   2
  16   6  -2 5051.60 1220.59   1
  22  -6  -2 2940.26 891.748   1
   6 -22  -2 3327.92 1160.22   4
  -6 -16  -2 4214.13 1087.03   4
  16   6  -2 2749.56 644.910   2
   6 -22  -2 4845.30 1366.37   2
  16   6   1 11299.4 1664.42   3
  22  -6   1 14560.7 2022.08   3
  16   6   1 15369.0 1434.69   1
   6 -22   1 16745.4 1520.93   3
   6 -22   1 14315.1 1448.44   4
   6 -22   1 15401.1 1614.88   2
  -6 -16   1 14586.9 1385.07   4
  22  -6   1 12869.3 1033.94   4
  -6 -16   1 16362.5 1327.29   2
  22  -6   1 14279.4 1059.47   1
  -6 -16   4 1374.78 598.211   2
  16   6   4 1075.69 1219.31   3
  22  -6   4 1928.64 1432.75   3
   6 -22   4 125.729 988.889   4
   6 -22   4 1996.50 1270.48   3
  -6 -16   4 1915.16 991.844   4
   6 -22   4-209.534 948.347   2
  16   6   4 2194.34 992.084   1
  16   6   7 2000.32 1173.74   3
  22  -6   7 2653.60 1311.28   3
   6 -22   7 1102.53 1269.70   3
  -6 -16   7 317.287 958.957   4
   5 -22  -6 2990.40 1456.38   2
  -5 -17  -6 5125.56 1584.71   2
 -17  22  -6 2954.34 591.488   1
  22  -5  -6 3072.02 1158.55   1
   5 -22  -6 2335.83 1155.91   4
  17   5  -6 5049.61 1432.91   1
  -5 -17  -6 2703.51 1160.74   4
  -5 -17  -3 6406.74 1273.45   2
  22  -5  -3 7661.19 867.059   2
  22  -5  -3 9133.17 1216.98   1
  17   5  -3 6933.17 1409.20   1
  -5 -17  -3 7962.91 1328.93   4
   5 -22  -3 6612.40 1270.45   4
   5 -22  -3 7522.78 1647.15   2
  -5 -17   0 263.527 927.099   2
  22  -5   0 3524.53 1410.94   3
  22  -5   0-1271.78 788.661   1
   5 -22   0 816.175 804.097   3
   5 -22   0 738.751 1071.83   4
  22  -5   0-258.810 614.417   4
  17   5   0 74.8805 943.542   1
  -5 -17   0-411.332 958.946   4
   5 -22   0 777.247 1128.56   2
  17   5   3 17423.7 1931.72   3
  22  -5   3 17358.6 2044.81   3
  22  -5   3 16711.8 998.097   1
   5 -22   3 20447.0 1867.06   3
   5 -22   3 17873.1 1601.26   4
  -5 -17   3 16749.5 1543.85   4
   5 -22   3 16514.0 1490.15   2
  -5 -17   3 16452.5 1179.92   2
  17   5   3 15933.5 1430.52   1
   5 -22   6 3246.10 1040.04   2
  17   5   6 4354.18 1399.80   3
  22  -5   6 1029.85 1412.74   3
   5 -22   6 3727.09 1461.11   3
  -5 -17   6 259.702 934.837   4
   4 -22  -7 2347.86 1473.47   2
  -4 -18  -7 2518.47 1403.99   2
  22  -4  -7-187.183 1098.60   1
  18   4  -7 1045.08 1219.27   1
   4 -22  -7 2789.77 1275.99   4
  -4 -18  -7 957.440 1096.64   4
  -4 -18  -4 107.210 1160.23   2
  22  -4  -4 242.909 1009.21   1
  22  -4  -4-377.952 542.310   2
   4 -22  -4 361.303 955.107   4
  -4 -18  -4-1866.31 1152.39   4
  18   4  -4-603.364 1138.47   1
   4 -22  -4 1802.14 1275.03   2
  18   4  -1 3691.86 879.002   2
  -4 -18  -1 2998.13 1139.14   2
  22  -4  -1 3755.44 627.319   4
  22  -4  -1 2875.76 969.051   1
  22  -4  -1 2199.61 1436.19   3
  18   4  -1 2353.73 1072.53   1
  18   4  -1 4397.63 882.363   4
   4 -22  -1 3184.82 1115.51   4
  -4 -18  -1 3794.77 1149.11   4
   4 -22  -1 4222.30 1376.43   2
  18   4   2 4185.48 946.310   1
  18   4   2 4870.67 1599.71   3
  22  -4   2 2401.47 1342.95   3
   4 -22   2 3603.73 1114.60   3
   4 -22   2 3850.09 1142.83   4
  -4 -18   2 1169.08 1004.89   4
   4 -22   2 3915.34 1101.51   2
  -4 -18   2 3099.58 970.610   2
  22  -4   2 2611.38 725.279   1
  18   4   5 1681.69 1217.49   3
  22  -4   5 3033.47 1397.25   3
   4 -22   5 2951.46 1210.00   4
   4 -22   5 3870.00 1265.02   3
  -4 -18   5 3704.25 1140.57   4
   4 -22   5 5108.11 1108.05   2
  -4 -18   5 3868.95 783.251   2
  18   4   8 1147.03 1193.63   3
  22  -4   8 2042.84 1395.23   3
   4 -22   8 1128.25 1457.27   3
  -4 -18   8-1407.90 1067.37   4
   4 -22   8 4101.48 1062.88   2
   3 -22  -5 1561.63 1343.61   2
  -3 -19  -5 3062.43 1320.61   2
  22  -3  -5 3586.93 1189.18   1
   3 -22  -5 5117.15 1389.65   4
  19   3  -5 4486.71 1342.94   1
  -3 -19  -5 2886.16 1136.66   4
  22  -3  -2 1186.16 1456.74   3
  -3 -19  -2 2501.86 1145.54   2
  19   3  -2 1758.34 1049.33   1
  22  -3  -2 1211.51 693.760   2
   3 -22  -2 635.619 1104.48   4
  -3 -19  -2 1431.47 1077.29   4
  22  -3  -2 2609.06 1006.07   1
   3 -22  -2 683.374 1222.16   2
  19   3  -2 2555.06 709.169   2
  22  -3   1 3022.59 881.491   1
  19   3   1 6039.01 1565.26   3
  22  -3   1-134.740 1416.92   3
  19   3   1 3055.30 1023.90   1
   3 -22   1 4480.75 1302.10   4
  -3 -19   1 2455.07 1112.79   4
   3 -22   1 882.237 1111.66   2
  -3 -19   1 4037.71 1095.30   2
  19   3   4 1623.28 1296.24   3
  22  -3   4 1388.00 1424.40   3
  19   3   4 705.633 823.964   1
   3 -22   4 1716.80 1001.80   4
   3 -22   4 749.032 1150.34   3
  -3 -19   4-459.464 995.603   4
   3 -22   4 1382.16 949.260   2
  -3 -19   4-222.972 740.111   2
  19   3   7-525.789 1204.31   3
  22  -3   7-772.967 1345.13   3
   3 -22   7 1212.41 1305.12   3
  -3 -19   7 1580.82 1041.11   4
   3 -22   7-660.255 848.193   2
  -2 -20  -6 8508.34 1704.05   2
  22  -2  -6 8849.24 1543.42   1
  20   2  -6 7123.77 1456.90   1
   2 -22  -6 10848.3 1621.13   4
  -2 -20  -6 8121.80 1545.02   4
   2 -22  -6 10028.1 1949.74   2
  22  -2  -3 14433.9 1463.95   1
  20   2  -3 16321.0 1701.01   1
   2 -22  -3 18808.5 1757.85   4
  -2 -20  -3 16149.7 1694.16   4
   2 -22  -3 19604.3 2005.96   2
  -2 -20  -3 17920.1 1835.59   2
  20   2   0 2679.06 1506.86   3
  22  -2   0 4972.36 1709.54   3
  22  -2   0 3822.90 1041.46   1
  22  -2   0 4151.72 863.263   4
  -2 -20   0 827.436 999.070   4
  20   2   0 5332.98 1138.36   1
   2 -22   0 4915.89 1336.45   4
   2 -22   0 4304.82 1291.59   2
  -2 -20   0 4939.64 1195.06   2
  20   2   3 15333.5 2037.86   3
  22  -2   3 15252.5 2128.47   3
  22  -2   3 16007.0 1205.07   1
   2 -22   3 11846.7 1534.87   4
  -2 -20   3 17429.1 1668.97   4
   2 -22   3 17578.8 1530.02   2
  -2 -20   3 15988.2 1370.65   2
  20   2   3 13990.8 1312.50   1
  20   2   6-108.402 1307.29   3
  22  -2   6 2683.53 1526.80   3
   2 -22   6 6137.66 1583.17   3
   2 -22   6 5072.87 1273.00   4
  -2 -20   6 4044.34 1234.32   4
   2 -22   6 1565.60 929.428   2
  -2 -20   6 3722.30 810.167   2
   1 -22  -7 1390.22 1569.63   2
  -1 -21  -7 1405.24 1417.04   2
  22  -1  -7 497.602 1265.65   1
  21   1  -7 4129.94 1488.21   1
   1 -22  -7 1235.36 1327.24   4
  -1 -21  -7 1134.25 1166.26   4
   1 -22  -4 2925.67 1544.68   2
  -1 -21  -4 1188.84 1269.88   2
  22  -1  -4 1062.83 1073.34   1
   1 -22  -4 3551.78 1181.03   4
  -1 -21  -4 1157.52 1084.36   4
  21   1  -4 1356.46 1117.92   1
  21   1  -1 2033.32 1430.86   3
  22  -1  -1 3333.08 1635.69   3
  22  -1  -1 1764.65 927.701   1
  21   1  -1 1689.93 1005.55   1
   1 -22  -1 1344.77 1097.59   4
  -1 -21  -1 1259.69 1082.32   4
   1 -22  -1 1648.67 1187.51   2
  -1 -21  -1 3643.12 1285.70   2
  22  -1   2-455.865 794.433   1
  21   1   2 948.760 842.314   1
  21   1   2 1719.67 1336.66   3
  22  -1   2 268.810 1403.96   3
   1 -22   2-616.018 1187.75   4
   1 -22   2-149.377 985.012   2
  -1 -21   2 1764.30 1060.38   4
  -1 -21   2 796.168 970.226   2
  21   1   5 3280.21 1547.19   3
  22  -1   5 4872.70 1625.73   3
   1 -22   5-35.8536 1135.20   4
  -1 -21   5 1121.31 1107.33   4
   1 -22   5 2703.79 977.967   2
  -1 -21   5 2639.94 887.055   2
  22   0  -5 40.2477 1165.91   1
   0 -22  -5 2188.71 1267.69   4
  22   0  -2-283.087 1011.20   1
   0 -22  -2 1911.74 1101.87   4
   0 -22  -2 2662.22 1240.30   2
  22   0   1-1437.29 1472.64   3
  22   0   1 17.3165 846.150   1
   0 -22   1-183.588 1023.40   4
   0 -22   1 3009.16 1188.21   2
  22   0   4 292.566 746.549   1
  22   0   4 578.358 1367.97   3
   0 -22   4 1982.25 1158.87   4
   0 -22   4-1131.64 924.265   2
  22   0   7 611.541 1400.54   3
   0 -22   7 949.201 1132.04   4
  23 -23  -5 828.510 1045.77   3
 -23   0  -5 360.092 1020.85   2
  23 -23  -5 96.7710 976.735   1
  23 -23  -5 2011.98 976.967   4
  23 -23  -5 233.690 1297.80   2
   0  23  -5-1897.31 1317.89   1
 -23   0  -5-333.200 892.006   4
  23 -23  -2 5803.25 1559.07   3
  23 -23  -2 6130.76 1179.84   4
  23 -23  -2 4665.88 1364.26   2
   0  23  -2 3952.45 1144.51   1
 -23   0  -2 6244.27 982.859   4
  23 -23   1-84.4305 1257.67   3
  23 -23   1 511.157 315.523   1
 -23   0   1-328.211 468.802   4
  23 -23   4 729.995 1339.06   3
  23 -22  -6 6481.68 1371.28   3
 -22  -1  -6 5599.56 1338.67   2
 -23   1  -6 7743.67 1489.08   2
   1  22  -6 5727.06 1559.29   1
  -1  23  -6 4927.90 1429.01   1
  23 -22  -6 5397.77 1403.93   1
  22 -23  -6 3924.65 1104.56   4
  23 -22  -6 2684.06 1491.22   2
  22 -23  -6 6597.90 1642.97   2
 -22  -1  -6 5310.64 1216.11   4
 -23   1  -6 6473.26 1301.04   4
   1  22  -3 9267.94 1409.43   1
  23 -22  -3 9983.62 1520.16   3
  -1  23  -3 9384.71 1441.92   1
  22 -23  -3 10305.9 1543.65   3
 -22  -1  -3 8959.62 1360.68   2
 -23   1  -3 11441.8 1373.03   2
  23 -22  -3 10672.9 1181.60   1
  23 -22  -3 8560.96 1506.68   2
  22 -23  -3 11307.5 1575.01   2
  23 -22  -3 11593.8 1253.59   4
  22 -23  -3 9033.42 1250.56   4
 -22  -1  -3 9268.48 1211.03   4
 -23   1  -3 12607.4 1294.07   4
  23 -22   0 3570.13 1332.39   3
  22 -23   0 4121.73 1328.94   3
   1  22   0 3791.38 1200.87   1
  -1  23   0 4787.12 1283.32   1
  23 -22   0 3475.84 556.990   1
  23 -22   0 4085.54 1041.36   4
  22 -23   0 2975.26 1004.44   4
 -22  -1   0 3409.00 704.922   4
 -23   1   0 3536.63 669.570   4
  23 -22   3 15416.5 2021.27   3
  22 -23   3 14899.2 1916.81   3
   1  22   3 13259.4 1629.85   1
  23 -22   6 3626.15 1538.09   3
  22 -23   6 3127.86 1480.75   3
   2  21  -7-718.495 1293.72   1
  -2  23  -7-329.348 1225.25   1
 -21  -2  -7 82.0147 1224.53   2
 -23   2  -7 767.109 1174.06   2
  23 -21  -7-128.032 1153.93   1
  21 -23  -7 755.756 987.341   4
  23 -21  -7 979.573 1316.81   2
  21 -23  -7 1482.89 1389.59   2
 -21  -2  -7 2164.28 1162.04   4
 -23   2  -7 316.650 1127.81   4
  -2  23  -4 930.776 1043.18   1
  23 -21  -4 1133.91 1147.90   3
  21 -23  -4 532.537 982.876   3
 -21  -2  -4-132.481 929.794   2
 -23   2  -4-318.845 941.169   2
  21 -23  -4 1934.31 920.213   4
  23 -21  -4-168.561 826.979   4
  23 -21  -4-352.284 1205.31   2
  23 -21  -4-613.119 863.912   1
  21 -23  -4 224.377 1235.66   2
   2  21  -4 1845.32 1223.54   1
 -21  -2  -4 28.4646 868.512   4
 -23   2  -4-118.507 809.053   4
  -2  23  -1 927.717 960.374   1
  23 -21  -1 52.6000 1200.64   3
  21 -23  -1 849.188 1163.29   3
 -21  -2  -1 1806.42 799.605   2
  23 -21  -1-296.340 868.537   4
  23 -21  -1 2582.73 1141.14   2
  21 -23  -1 1507.12 940.885   4
  21 -23  -1-969.781 1083.44   2
  23 -21  -1 1479.94 570.977   1
   2  21  -1-331.658 938.711   1
 -21  -2  -1 553.216 704.501   4
 -23   2  -1 1113.91 656.171   4
  23 -21   2 2601.03 1347.16   3
  21 -23   2 6062.65 1463.60   3
   2  21   2 6213.30 1274.94   1
  -2  23   2 7717.53 1376.92   1
 -21  -2   2 3800.08 522.253   4
  23 -21   5 5049.13 1659.24   3
  21 -23   5 3384.66 1408.18   3
  23 -20  -5 862.937 1046.35   3
  20 -23  -5 862.409 871.908   3
 -20  -3  -5 2380.74 1121.72   2
   3  20  -5 3441.22 1371.42   1
 -23   3  -5 3435.71 1209.34   2
  20 -23  -5 1291.46 880.819   4
  23 -20  -5 3167.52 810.047   4
  23 -20  -5 3722.20 1333.57   2
  23 -20  -5 1894.12 924.476   1
  20 -23  -5 2819.74 1503.14   2
  -3  23  -5 493.130 1086.39   1
 -20  -3  -5 1689.61 1012.26   4
 -23   3  -5 1965.51 1036.02   4
   3  20  -2 7927.00 1386.16   1
  23 -20  -2 5389.09 1389.05   3
  20 -23  -2 6618.53 1291.74   3
  -3  23  -2 7292.85 1260.48   1
 -20  -3  -2 6173.37 1142.54   2
  23 -20  -2 8640.68 1445.90   2
  23 -20  -2 6990.07 1060.47   4
  23 -20  -2 7815.80 882.607   1
  20 -23  -2 5243.46 1167.29   4
  20 -23  -2 5441.76 1299.36   2
 -20  -3  -2 6520.21 1016.91   4
 -23   3  -2 6340.39 884.761   4
  23 -20   1 4803.30 1388.57   3
  -3  23   1 7253.22 1314.59   1
  20 -23   1 6415.95 1455.51   3
   3  20   1 5262.50 1169.00   1
  20 -23   1 7036.91 1156.91   4
 -20  -3   1 4743.79 684.477   4
   3  20   4 1117.54 582.057   3
  23 -20   4 1977.62 1312.81   3
  20 -23   4 1604.65 1274.81   3
  23 -20   7 3744.54 1561.77   3
  20 -23   7 616.162 1366.78   3
  19 -23  -6 7403.12 1243.40   4
  23 -19  -6 4634.95 1322.98   3
 -19  -4  -6 10701.6 1625.34   2
 -23   4  -6 9138.76 1450.13   2
   4  19  -6 9861.32 1687.28   1
  -4  23  -6 7558.22 1398.18   1
  23 -19  -6 5622.11 1392.86   2
 -19  -4  -6 8582.86 1430.19   4
  23 -19  -6 6626.13 1245.82   1
  19 -23  -6 7665.66 1649.83   2
 -23   4  -6 5622.91 1218.84   4
  23 -19  -3 20196.0 2043.74   3
  19 -23  -3 23109.7 1770.23   3
  -4  23  -3 21995.2 1725.59   1
 -19  -4  -3 24312.9 1776.05   2
  23 -19  -3 19456.6 1730.05   2
  19 -23  -3 23028.1 1938.46   2
  23 -19  -3 21296.1 1308.90   4
  19 -23  -3 18928.5 1589.39   4
  23 -19  -3 20936.5 1351.10   1
 -19  -4  -3 21821.8 1571.58   4
   4  19  -3 19979.9 1763.33   1
 -23   4  -3 22301.5 1504.42   4
  23 -19   0 10448.0 1761.23   3
  23 -19   0 10092.6 630.074   1
  19 -23   0 12026.0 1637.47   3
  23 -19   0 7972.52 644.834   1
   4  19   0 9645.46 1443.66   1
 -19  -4   0 12418.5 1077.66   2
  19 -23   0 10070.1 1510.95   2
  19 -23   0 11987.7 1376.85   4
 -19  -4   0 9185.94 920.071   4
  -4  23   0 11974.4 1447.39   1
 -23   4   0 10129.1 761.122   4
   4  19   3 13096.0 1201.67   3
  23 -19   3 11881.7 1823.01   3
  19 -23   3 13522.1 1753.01   3
 -19  -4   3 11249.8 701.857   4
  23 -19   6 3152.21 1530.36   3
  19 -23   6 3470.98 1541.21   3
  23 -18  -7 3394.96 1306.50   3
   5  18  -7 1980.84 1407.42   1
 -18  -5  -7 6661.15 1499.87   2
  -5  23  -7 1691.15 1204.63   1
 -23   5  -7 2512.31 1252.56   2
  18 -23  -7 1311.85 1063.90   4
  23 -18  -7 4227.43 1326.27   2
  23 -18  -7 4159.03 1250.18   1
  18 -23  -7 3272.73 1566.75   2
 -18  -5  -7 3088.39 1281.72   4
 -23   5  -7 3222.49 1086.44   4
  23 -18  -4 2184.42 1155.09   3
  -5  23  -4 9.34418 977.905   1
  18 -23  -4 2925.23 907.916   3
 -18  -5  -4 812.438 947.806   2
   5  18  -4 1345.10 1199.49   1
  18 -23  -4 4221.31 1088.78   4
  23 -18  -4 3451.80 1151.19   2
  23 -18  -4 2524.36 684.707   4
  18 -23  -4 1577.95 1236.27   2
  23 -18  -4 890.608 774.947   1
 -18  -5  -4 3142.29 1118.48   4
 -23   5  -4 2823.34 878.308   4
  23 -18  -1 4272.57 1378.00   3
  18 -23  -1 6245.17 1238.25   3
  -5  23  -1 3876.03 1078.87   1
   5  18  -1 719.170 1067.55   1
 -18  -5  -1 4162.12 888.136   2
  23 -18  -1 6017.48 938.380   4
  23 -18  -1 4304.61 722.372   1
  18 -23  -1 4727.01 1048.97   4
  18 -23  -1 3082.36 1211.77   2
  23 -18  -1 4415.69 650.769   1
 -18  -5  -1 3104.27 807.920   4
 -23   5  -1 5372.54 735.522   4
 -23   5  -1 3079.69 669.898   1
  -5  23   2 3739.35 1083.95   1
  -5  23   2 2826.33 754.525   3
  23 -18   2 993.786 1287.36   3
  18 -23   2 2730.74 1233.33   3
  18 -23   2 2452.63 674.180   1
 -18  -5   2 2044.07 563.967   4
   5  18   2 994.747 1001.24   1
   5  18   5 3074.28 641.827   3
  23 -18   5 5228.41 1522.18   3
  18 -23   5 6353.92 1533.94   3
 -18  -5   5 3865.71 466.007   4
  23 -17  -5 7481.89 1455.13   3
  17 -23  -5 5892.26 774.860   3
 -17  -6  -5 9871.01 1445.90   2
   6  17  -5 8543.63 1506.59   1
  23 -17  -5 7537.74 1365.53   2
  23 -17  -5 10038.7 1246.22   1
  17 -23  -5 8936.23 1297.65   4
 -17  -6  -5 7408.68 1331.22   4
  17 -23  -5 8125.02 1635.58   2
  -6  23  -5 7198.27 1203.38   1
 -23   6  -5 11218.7 1322.41   4
  -6  23  -2 3580.87 1045.04   1
  23 -17  -2 4967.60 1469.58   3
  17 -23  -2 4984.31 1125.39   3
 -17  -6  -2 5105.66 1038.38   2
  23 -17  -2 4538.19 816.026   4
  17 -23  -2 6992.22 1398.73   2
  17 -23  -2 4358.98 1144.18   4
  23 -17  -2 4912.48 734.987   1
 -17  -6  -2 4093.38 944.770   4
  23 -17  -2 4453.72 624.467   4
   6  17  -2 3667.55 1208.93   1
 -23   6  -2 5346.96 816.156   4
 -23   6  -2 3738.36 588.685   1
  17 -23   1 3444.77 843.255   1
  -6  23   1 2892.09 999.397   1
  23 -17   1 6266.71 1484.34   3
   6  17   1 4264.60 1130.87   1
  -6  23   1 3973.68 941.561   3
  17 -23   1 3906.21 1222.02   3
 -17  -6   1 5151.83 746.218   2
  17 -23   1 5061.82 1095.18   4
  17 -23   1 3565.83 1148.42   2
 -17  -6   1 4848.00 742.921   4
   6  17   4 3228.85 1211.58   1
   6  17   4 2205.13 828.383   3
  23 -17   4 2376.25 1259.54   3
  17 -23   4 2083.65 1193.50   3
 -17  -6   4 2738.03 586.709   4
  23 -17   7 4704.36 1654.37   3
  17 -23   7 5339.07 1596.21   3
  23 -16  -6 8400.05 1646.35   3
   7  16  -6 8149.63 1598.06   1
 -16  -7  -6 8788.94 1492.15   2
  23 -16  -6 7837.90 1380.94   2
  23 -16  -6 9618.43 1326.13   1
  16 -23  -6 5263.26 1191.33   4
 -16  -7  -6 10092.6 1482.52   4
  -7  23  -6 8916.52 1335.81   1
  16 -23  -6 8757.86 1832.47   2
 -23   7  -6 10092.5 1391.01   4
  23 -16  -3 14369.8 1855.79   3
 -16  -7  -3 15694.2 1470.57   2
  16 -23  -3 15974.1 1307.09   3
  -7  23  -3 16601.9 1469.41   1
  23 -16  -3 12301.3 1460.66   2
  16 -23  -3 13440.5 1456.41   4
  16 -23  -3 15532.2 1716.40   2
  23 -16  -3 14358.1 898.389   4
 -23   7  -3 10376.2 632.335   1
  23 -16  -3 13089.3 1095.63   1
   7  16  -3 14033.0 1657.40   1
 -16  -7  -3 14980.8 1411.52   4
 -23   7  -3 14479.7 1219.35   4
  23 -16   0 2546.88 473.994   1
  23 -16   0 3483.92 1341.40   3
  -7  23   0 2472.95 998.255   1
  16 -23   0 3369.72 1133.83   3
 -16  -7   0 4087.54 819.450   2
  23 -16   0 3629.67 487.085   1
  16 -23   0 4124.01 1077.51   4
   7  16   0 2001.81 1005.47   1
  16 -23   0 3409.58 1210.37   2
 -23   7   0 1715.35 603.675   1
 -16  -7   0 2880.58 772.601   4
   7  16   3 4057.01 1000.96   3
  16 -23   3 3849.70 734.821   1
  -7  23   3 1735.56 301.355   3
  23 -16   3 2348.08 1413.97   3
  16 -23   3 5737.66 1357.56   3
   7  16   3 2157.72 1244.51   1
 -16  -7   3 2961.66 679.322   4
   7  16   6 3583.46 745.180   3
  23 -16   6 3788.62 1493.62   3
 -16  -7   6 4376.45 653.866   4
   8  15  -7 6069.86 1708.38   1
  23 -15  -7 4919.52 1386.80   3
 -15  -8  -7 6787.18 1523.91   2
  -8  23  -7 5939.05 1201.41   1
  15 -23  -7 6692.62 1280.66   4
  23 -15  -7 6588.74 1257.49   2
 -15  -8  -7 6803.17 1390.54   4
  15 -23  -7 7219.14 1740.69   2
  23 -15  -7 5253.04 1256.40   1
  23 -15  -4 2665.90 813.733   1
  23 -15  -4 782.672 1291.16   3
   8  15  -4 1147.32 1223.86   1
  -8  23  -4 129.098 935.768   1
 -15  -8  -4 791.343 1118.12   2
  15 -23  -4 1287.64 571.223   3
  23 -15  -4 1416.28 1045.29   2
  15 -23  -4 364.900 944.990   4
  23 -15  -4 766.193 237.988   4
  15 -23  -4 3712.49 1323.58   2
 -15  -8  -4 1767.60 925.706   4
   8  15  -1 5974.36 1231.90   1
 -15  -8  -1 7936.52 1088.03   2
  15 -23  -1 7188.28 1193.11   3
 -23   8  -1 6197.03 663.764   1
  15 -23  -1 5354.07 1172.69   4
  15 -23  -1 4907.31 1256.81   2
 -15  -8  -1 5604.20 940.999   4
  23 -15  -1 5771.47 716.394   4
  23 -15  -1 7178.57 713.412   1
  -8  23  -1 7812.15 1141.17   1
  -8  23   2 231.151 564.519   3
  23 -15   2 2069.05 1289.36   3
  15 -23   2 434.436 1013.35   3
   8  15   2-715.017 961.789   1
 -15  -8   2 47.9366 420.676   2
 -15  -8   2 80.9072 603.370   4
  15 -23   2 1490.34 732.199   1
   8  15   5 9554.70 1142.81   3
  23 -15   5 10363.8 1826.45   3
  15 -23   5 8135.20 1643.72   3
 -15  -8   5 8143.21 811.985   4
  23 -15   8 3311.99 1466.18   3
  15 -23   8 1626.23 1431.83   3
  14 -23  -8 3366.35 1574.49   2
  23 -14  -8 5258.14 1406.83   1
  23 -14  -8 3109.90 1368.79   3
 -14  -9  -8 3511.23 1368.52   2
  -9  23  -8 3856.28 1258.41   1
  14 -23  -8 1909.61 1161.10   4
 -14  -9  -8 3146.64 1332.95   4
   9  14  -8 3361.64 1526.67   1
  23 -14  -8 2684.27 1098.26   2
  23 -14  -5 17672.4 2075.83   3
  -9  23  -5 16195.3 1468.15   1
 -14  -9  -5 18783.6 1768.36   2
   9  14  -5 16438.8 1876.43   1
  23 -14  -5 17114.5 1560.92   2
  14 -23  -5 11745.4 1448.70   4
  14 -23  -5 18809.8 2040.60   2
  23 -14  -5 17717.1 1501.54   1
 -14  -9  -5 18669.9 1684.75   4
  23 -14  -2 2320.76 1459.55   3
  23 -14  -2 2265.60 680.019   1
 -14  -9  -2 595.333 881.350   2
  -9  23  -2 1957.76 875.869   1
  14 -23  -2 1348.66 805.879   3
  23 -14  -2 1535.00 571.027   4
  14 -23  -2 1110.50 1003.44   4
   9  14  -2 971.513 1138.76   1
  14 -23  -2 777.012 1084.60   2
 -14  -9  -2 1793.61 894.876   4
  23 -14  -2 940.188 442.855   4
  23 -14   1 11513.5 1761.77   3
  -9  23   1 11786.7 1192.41   3
 -14  -9   1 17359.3 1092.41   2
  14 -23   1 15802.5 1624.42   3
   9  14   1 15078.1 1528.00   1
  14 -23   1 16260.4 1477.69   4
  14 -23   1 15296.7 1538.34   2
 -14  -9   1 13764.6 1113.19   4
   9  14   4 1595.42 950.820   3
  23 -14   4 3211.39 1417.92   3
  14 -23   4 1629.62 1344.69   3
 -14  -9   4 2292.11 707.257   4
   9  14   4 636.897 1047.58   1
  23 -14   7 5967.63 1643.03   3
  14 -23   7 6110.41 1641.74   3
 -14  -9   7 4859.99 848.620   4
  10  13  -6 5519.13 1498.49   1
  23 -13  -6 6557.30 1617.45   3
 -13 -10  -6 7919.38 1557.26   2
  23 -13  -6 8041.34 1251.53   2
  23 -13  -6 7392.90 1264.18   1
  13 -23  -6 4758.54 1272.05   4
 -13 -10  -6 7839.34 1400.83   4
 -10  23  -6 8150.03 1197.30   1
  13 -23  -6 6374.37 1724.95   2
 -10  23  -3-865.413 918.871   1
  23 -13  -3-263.190 1252.76   3
  23 -13  -3 690.643 675.503   1
 -13 -10  -3 1398.51 1015.41   2
  10  13  -3 2662.57 1184.21   1
  13 -23  -3 1067.04 575.603   3
  23 -13  -3-817.103 946.980   2
  13 -23  -3 473.318 948.121   4
  13 -23  -3-268.032 1217.23   2
 -13 -10  -3-416.241 875.206   4
  23 -13   0 13231.0 1827.62   3
  10  13   0 12552.7 1472.85   1
 -13 -10   0 13987.5 1160.05   2
  23 -13   0 14371.8 808.060   1
  13 -23   0 12392.1 1369.06   3
  13 -23   0 12399.9 1389.01   4
  13 -23   0 11690.8 1467.45   2
 -13 -10   0 13293.1 1200.45   4
 -10  23   0 12954.5 1316.44   1
  23 -13   0 9118.23 848.420   4
  10  13   3 1299.09 1030.38   3
  10  13   3 2135.44 1056.48   1
  23 -13   3 1460.56 1360.85   3
  13 -23   3 3176.23 1258.25   3
 -13 -10   3 980.229 274.646   2
 -13 -10   3 1548.52 717.176   4
  10  13   6 5743.40 1074.62   3
  23 -13   6 4571.94 1507.64   3
  13 -23   6 5041.52 1580.12   3
 -13 -10   6 3634.84 820.501   4
  23 -12  -7 4988.56 1433.04   3
  23 -12  -7 4655.55 1268.64   1
 -12 -11  -7 5265.77 1402.29   2
 -11  23  -7 6411.04 1071.57   1
  12 -23  -7 5369.38 1291.71   4
 -12 -11  -7 5540.53 1346.12   4
  11  12  -7 4580.95 1643.00   1
  23 -12  -7 4655.00 1117.91   2
  12 -23  -7 8689.64 1905.64   2
  23 -12  -4 693.817 1186.19   3
  23 -12  -4 303.110 777.239   1
  11  12  -4 1404.05 1267.13   1
 -12 -11  -4 1743.70 1100.58   2
  23 -12  -4-763.193 894.469   2
  12 -23  -4 534.524 957.139   4
 -11  23  -4-680.377 803.813   1
 -12 -11  -4-88.8305 964.257   4
  12 -23  -4 67.8530 1346.65   2
  23 -12  -1 15104.5 1947.00   3
 -12 -11  -1 13395.9 1252.68   2
  23 -12  -1 15203.5 994.706   1
  12 -23  -1 17505.7 1391.08   3
 -11  23  -1 16611.8 1353.09   1
  12 -23  -1 12391.2 1414.29   4
  11  12  -1 10039.0 998.647   2
  12 -23  -1 15462.1 1702.94   2
 -12 -11  -1 17457.6 1403.44   4
  23 -12  -1 12985.2 799.474   4
  11  12  -1 15185.1 1583.41   1
 -11  23   2 3517.22 744.195   3
 -12 -11   2 4620.04 662.017   2
  23 -12   2 4931.60 1641.83   3
  11  12   2 3603.86 1131.43   1
  12 -23   2 4021.70 1214.39   3
  12 -23   2 4475.23 1141.59   4
  12 -23   2 3167.26 1146.26   2
 -12 -11   2 4425.23 885.158   4
  11  12   5 9636.40 1311.66   3
  23 -12   5 13069.9 1962.85   3
  12 -23   5 14775.1 1881.26   3
 -12 -11   5 9482.82 1051.87   4
  23 -12   8 1596.44 1471.48   3
  12 -23   8-554.722 1384.41   3
 -12 -11   8 1127.67 804.159   4
  11 -23  -8 4271.01 1708.94   2
  23 -11  -8 1885.79 1210.55   1
 -11 -12  -8 3779.47 1469.09   2
 -12  23  -8 990.443 995.591   1
  12  11  -8 5213.74 1664.77   1
  11 -23  -8 3179.28 1276.94   4
 -11 -12  -8 3436.07 1274.94   4
  23 -11  -5 9927.61 1834.09   3
 -11 -12  -5 10180.3 1492.18   2
 -12  23  -5 12751.2 1215.99   1
  12  11  -5 12351.0 1759.09   1
  23 -11  -5 12046.3 1192.98   2
  11 -23  -5 9727.75 1411.43   4
  11 -23  -5 14069.2 1949.60   2
 -11 -12  -5 13370.9 1621.38   4
  23 -11  -5 13023.3 1370.20   1
  23 -11  -2 3790.71 1572.82   3
 -12  23  -2 5050.77 909.128   1
 -11 -12  -2 3324.98 1032.06   2
  23 -11  -2 3664.76 796.886   1
  11 -23  -2 4193.08 743.760   3
  12  11  -2 2709.38 1179.27   1
  23 -11  -2 2139.93 293.050   4
  12  11  -2 1712.51 587.768   2
  11 -23  -2 4634.33 1159.31   4
  23 -11  -2 2293.60 277.930   4
 -11 -12  -2 3070.48 939.583   4
  11 -23  -2 6313.34 1522.53   2
 -12  23   1 13255.6 1279.39   3
  23 -11   1 13105.9 1852.96   3
 -11 -12   1 15888.5 1135.70   2
  12  11   1 14956.9 1475.54   1
  11 -23   1 16390.8 1530.16   3
  11 -23   1 14743.4 1437.07   4
  11 -23   1 15437.3 1570.18   2
 -11 -12   1 12875.4 1208.24   4
  23 -11   1 12358.1 682.783   1
  23 -11   1 12164.5 1012.95   4
  12  11   4 60.8563 971.567   3
  23 -11   4-876.174 1336.11   3
  12  11   4 1382.78 993.146   1
  11 -23   4 10.8912 1070.14   3
 -11 -12   4 892.394 835.831   4
 -11 -12   7 4606.16 929.354   4
  12  11   7 5882.16 1124.54   3
  23 -11   7 6651.66 1870.78   3
  11 -23   7 5851.95 1548.06   3
  23 -10  -6 3689.64 1129.70   1
 -13  23  -6 3347.94 874.272   1
 -10 -13  -6 4131.43 1333.09   2
  10 -23  -6 3508.48 1148.35   4
  23 -10  -6 3791.18 958.949   2
 -10 -13  -6 5171.29 1325.32   4
  13  10  -6 5004.49 1413.00   1
  10 -23  -6 5351.21 1685.15   2
  23 -10  -3 2324.53 1579.52   3
 -10 -13  -3 1852.59 1076.00   2
  13  10  -3 1692.21 1280.80   1
  23 -10  -3 2432.73 764.574   1
 -13  23  -3 1840.20 767.635   1
  10 -23  -3 2248.27 1165.54   4
 -10 -13  -3 947.316 1013.58   4
  10 -23  -3 1954.05 1377.41   2
 -10 -13   0 13412.5 1219.88   2
  23 -10   0 11634.0 1880.70   3
  13  10   0 13512.5 1449.61   1
  10 -23   0 16795.6 1422.18   3
  23 -10   0 12982.6 949.845   1
  10 -23   0 15073.6 1571.69   4
  10 -23   0 13325.0 1560.10   2
 -10 -13   0 10778.2 1238.50   4
  23 -10   0 10668.3 860.596   4
  13  10   3-936.809 1081.25   3
  23 -10   3-550.792 1246.63   3
 -10 -13   3 392.170 453.445   2
  10 -23   3 248.288 1108.27   3
  10 -23   3 90.4866 989.919   4
  10 -23   3-1890.30 1082.19   2
 -10 -13   3-359.399 796.589   4
  13  10   3 894.766 975.644   1
  13  10   6 7314.15 1257.52   3
  23 -10   6 6993.44 1661.25   3
  10 -23   6 5562.60 1444.20   3
 -10 -13   6 8372.65 1125.68   4
 -14  23  -7 5905.41 960.714   1
  -9 -14  -7 7365.48 1515.29   2
  -9 -14  -7 8223.51 1555.28   4
   9 -23  -7 6197.54 1352.73   4
  14   9  -7 6052.53 1605.15   1
   9 -23  -7 10628.0 2039.13   2
  23  -9  -7 8633.96 1429.55   1
  23  -9  -4 2810.42 1402.44   3
  14   9  -4 2755.95 1267.02   1
  -9 -14  -4 5121.08 1304.47   2
  23  -9  -4 2069.49 908.057   1
 -14  23  -4 4247.71 825.141   1
  23  -9  -4 2349.15 849.871   2
   9 -23  -4 2548.70 1171.12   4
  -9 -14  -4 1536.77 1031.90   4
   9 -23  -4 3218.92 1492.55   2
  -9 -14  -1 14622.1 1401.15   2
  23  -9  -1 15559.6 2050.54   3
  23  -9  -1 14687.9 1098.29   1
   9 -23  -1 17030.9 1273.12   3
   9 -23  -1 15889.5 1610.46   4
   9 -23  -1 14065.1 1735.09   2
  14   9  -1 12326.6 1080.53   2
  -9 -14  -1 12907.6 1331.72   4
  23  -9  -1 10563.8 688.614   4
  14   9  -1 16391.2 1573.96   1
  14   9   2-1055.70 1177.24   3
 -14  23   2 220.845 683.886   3
  -9 -14   2-453.676 614.876   2
  23  -9   2 2147.83 1448.03   3
  14   9   2 1383.24 999.773   1
  23  -9   2 944.587 345.643   1
   9 -23   2 1182.47 1046.71   3
   9 -23   2 424.098 967.437   4
   9 -23   2 437.768 1009.42   2
  -9 -14   2 181.593 847.425   4
  14   9   5 12955.0 1633.39   3
  23  -9   5 12333.4 1954.56   3
   9 -23   5 15836.9 1901.89   3
   9 -23   5 15361.4 1491.91   2
  -9 -14   5 16281.4 1387.29   4
  14   9   8 3672.95 1203.85   3
  23  -9   8 4648.38 1574.38   3
   9 -23   8 7103.19 1681.46   3
  -9 -14   8 2108.94 963.219   4
   8 -23  -8 2158.74 1508.69   2
  23  -8  -8 3767.84 1307.45   1
  -8 -15  -8 977.134 1339.63   2
  15   8  -8 4122.00 1584.66   1
   8 -23  -8 1971.04 1231.16   4
  -8 -15  -8 1928.52 1220.70   4
  23  -8  -5 9316.30 1286.63   1
  -8 -15  -5 10607.7 1637.30   2
  15   8  -5 7215.05 1570.33   1
 -15  23  -5 8154.68 941.683   1
  23  -8  -5 9335.35 1007.70   2
   8 -23  -5 9246.30 1468.44   4
   8 -23  -5 10168.6 1862.03   2
  -8 -15  -5 7477.06 1352.71   4
  23  -8  -2 1396.90 1294.50   3
  -8 -15  -2 681.546 980.749   2
  15   8  -2 813.290 1123.49   1
  23  -8  -2 452.583 775.478   1
   8 -23  -2 714.915 1027.51   4
  15   8  -2 533.087 556.803   2
  -8 -15  -2-96.4032 870.311   4
   8 -23  -2 1206.15 1288.76   2
  23  -8   1 5925.37 1598.25   3
   8 -23   1 7543.35 1252.71   3
  15   8   1 3922.83 1105.65   1
   8 -23   1 7038.89 1254.44   4
  -8 -15   1 5887.07 1143.85   4
   8 -23   1 7064.68 1267.03   2
  23  -8   1 3965.80 768.781   4
  23  -8   1 5500.21 751.048   1
  -8 -15   1 5987.12 941.896   2
  15   8   4 1899.90 1178.82   3
  -8 -15   4 341.520 450.574   2
  23  -8   4 2295.56 1429.53   3
  -8 -15   4 2766.79 987.011   4
   8 -23   4 3317.28 1213.56   3
   8 -23   4-459.630 942.305   4
   8 -23   4 1342.59 969.618   2
  15   8   4 1371.64 958.030   1
  15   8   7 6026.70 1352.50   3
  23  -8   7 5601.80 1613.02   3
   8 -23   7 5287.87 1506.94   3
  -8 -15   7 4867.51 1116.29   4
   7 -23  -6 4955.04 1584.99   2
  23  -7  -6 6014.62 1337.30   1
  -7 -16  -6 4721.35 1374.53   2
 -16  23  -6 4866.34 817.446   1
   7 -23  -6 5715.97 1322.67   4
  16   7  -6 4862.81 1480.14   1
  -7 -16  -6 5067.38 1346.56   4
  23  -7  -3 4208.99 1631.40   3
  -7 -16  -3 5083.24 1313.49   2
  16   7  -3 3228.44 1326.19   1
  23  -7  -3 5111.74 1057.81   1
   7 -23  -3 4709.45 1256.40   4
  -7 -16  -3 2078.36 1018.75   4
   7 -23  -3-140.414 1346.78   2
  -7 -16   0 5057.77 1023.33   2
  23  -7   0 3891.98 1548.98   3
  23  -7   0 4390.75 875.594   1
   7 -23   0 7519.18 1136.27   3
   7 -23   0 5008.50 1275.93   4
  23  -7   0 4006.65 727.312   4
  -7 -16   0 3357.74 1069.47   4
   7 -23   0 5191.36 1292.36   2
  16   7   0 2317.69 1032.07   1
  16   7   3 14201.5 1852.28   3
  23  -7   3 13594.5 1998.14   3
   7 -23   3 16482.6 1782.80   3
   7 -23   3 11466.5 1434.80   4
   7 -23   3 15341.8 1501.44   2
  -7 -16   3 13554.7 1425.99   4
  -7 -16   3 13496.5 994.424   2
  16   7   3 14918.7 1482.73   1
  16   7   6 10084.2 1605.06   3
  23  -7   6 11013.6 1854.54   3
   7 -23   6 9748.80 1714.03   3
   7 -23   6 7602.46 1271.87   2
  -7 -16   6 7866.38 1215.46   4
   6 -23  -7 5526.62 1697.60   2
  -6 -17  -7 7429.04 1584.86   2
  23  -6  -7 4225.93 1303.04   1
  17   6  -7 6358.66 1538.59   1
   6 -23  -7 4300.73 1286.98   4
  -6 -17  -7 2917.35 1237.56   4
  -6 -17  -4 2119.98 1228.24   2
  23  -6  -4 2164.50 998.079   1
  23  -6  -4 2171.11 736.966   2
   6 -23  -4 3049.69 1201.00   4
  -6 -17  -4 4186.99 1216.91   4
   6 -23  -4 3697.08 1528.30   2
  17   6  -4 1225.37 1182.36   1
  23  -6  -1 1812.00 1395.18   3
  -6 -17  -1 4997.63 1098.52   2
  23  -6  -1 6081.55 1024.49   1
  17   6  -1 5312.35 1182.12   1
   6 -23  -1 3331.61 1280.91   4
  23  -6  -1 3297.82 553.213   4
  -6 -17  -1 5160.22 1148.41   4
   6 -23  -1 6196.79 1424.94   2
  17   6  -1 4184.51 885.981   2
  17   6   2 6600.46 1585.62   3
  23  -6   2 6881.30 1778.96   3
  23  -6   2 5949.14 804.359   1
  17   6   2 6883.44 1178.41   1
   6 -23   2 5830.90 1266.48   3
   6 -23   2 8403.36 1385.39   2
   6 -23   2 4540.86 1203.45   4
  -6 -17   2 4638.44 1070.77   4
  -6 -17   2 6681.41 994.464   2
  17   6   5 6539.68 1452.57   3
  23  -6   5 7306.94 1794.51   3
   6 -23   5 9643.54 1614.78   3
   6 -23   5 8352.95 1332.28   4
   6 -23   5 8933.24 1296.72   2
  -6 -17   5 7775.25 1215.62   4
  -6 -17   5 6498.64 660.195   2
   5 -23  -5 7469.95 1787.46   2
  -5 -18  -5 8412.90 1563.81   2
  23  -5  -5 6023.89 1253.51   1
   5 -23  -5 4894.63 1294.13   4
  -5 -18  -5 5529.44 1317.62   4
  18   5  -5 6053.69 1382.61   1
  23  -5  -2 714.341 1344.53   3
  -5 -18  -2 4024.15 1205.45   2
  18   5  -2 3403.13 1140.44   1
   5 -23  -2 819.746 1195.21   4
  -5 -18  -2 3048.49 1082.77   4
  23  -5  -2 4409.72 1009.43   1
   5 -23  -2 1319.10 1418.38   2
  -5 -18   1 5898.29 1079.87   2
  18   5   1 3803.22 1520.81   3
  23  -5   1 3952.13 1510.65   3
  18   5   1 6452.16 1145.15   1
   5 -23   1 5417.38 1123.94   3
   5 -23   1 6292.46 1307.03   4
  -5 -18   1 3661.55 1094.14   4
   5 -23   1 7096.36 1323.78   2
  23  -5   1 4657.39 849.169   1
  18   5   4 3631.61 1494.12   3
  23  -5   4 3186.88 1548.52   3
   5 -23   4 3273.81 1281.84   3
   5 -23   4 2543.39 1069.47   4
  -5 -18   4 2700.53 1058.56   4
   5 -23   4 3031.73 1027.57   2
  18   5   4 4590.75 1096.37   1
  -5 -18   4 2646.87 742.731   2
  18   5   7 3513.30 1456.64   3
  23  -5   7 6590.12 1751.36   3
   5 -23   7 1480.25 1371.00   3
  -5 -18   7 3287.48 1122.80   4
   5 -23   7 3389.95 1012.04   2
   4 -23  -6 2618.45 1493.50   2
  -4 -19  -6 1984.06 1369.75   2
  23  -4  -6 1409.64 1126.50   1
  19   4  -6 3862.46 1352.03   1
   4 -23  -6 2736.71 1169.55   4
  -4 -19  -6 2981.45 1280.19   4
  23  -4  -3 12449.5 1336.40   1
  19   4  -3 16118.8 1646.19   1
   4 -23  -3 17009.6 1753.37   4
  -4 -19  -3 18054.9 1726.00   4
   4 -23  -3 18066.1 1988.43   2
  -4 -19  -3 16399.0 1781.48   2
  19   4   0 13347.1 1998.07   3
  23  -4   0 13246.3 2058.96   3
   4 -23   0 16163.9 1690.93   2
   4 -23   0 12633.7 1532.06   4
  -4 -19   0 10778.3 1379.23   4
  23  -4   0 10005.6 965.890   4
  23  -4   0 11175.7 1190.34   1
  -4 -19   0 12479.3 1398.78   2
  19   4   0 12862.5 1458.37   1
  19   4   3 18303.7 2129.53   3
  23  -4   3 17780.7 2235.45   3
  23  -4   3 19865.5 1228.05   1
   4 -23   3 20558.4 1908.12   3
   4 -23   3 19979.6 1750.61   4
  -4 -19   3 19958.6 1704.18   4
   4 -23   3 21978.7 1690.46   2
  -4 -19   3 20059.2 1372.16   2
  19   4   3 21024.7 1590.16   1
  19   4   6 7544.21 1655.88   3
  23  -4   6 5021.61 1651.45   3
   4 -23   6 9094.63 1693.89   3
   4 -23   6 6833.22 1416.54   4
   4 -23   6 6929.48 1162.90   2
  -4 -19   6 7296.88 1314.85   4
   3 -23  -7 3606.45 1632.11   2
  -3 -20  -7 2707.49 1439.16   2
  23  -3  -7-201.754 1191.31   1
  20   3  -7 2654.48 1389.96   1
   3 -23  -7 1094.68 1127.09   4
  -3 -20  -7 2162.95 1245.14   4
   3 -23  -4 1836.62 1484.84   2
  -3 -20  -4 2270.45 1314.07   2
  23  -3  -4 2153.54 1045.31   1
  23  -3  -4 1604.63 526.145   2
   3 -23  -4 2663.29 1208.56   4
  -3 -20  -4 2310.10 1152.65   4
  20   3  -4 3124.81 1313.12   1
  -3 -20  -1 5474.64 1271.70   2
  23  -3  -1 5694.14 1837.62   3
  20   3  -1 5929.54 1240.69   1
  23  -3  -1 7020.21 1143.70   1
   3 -23  -1 6457.92 1295.89   4
  -3 -20  -1 4811.20 1248.31   4
   3 -23  -1 8094.14 1596.13   2
  20   3   2 4313.38 1055.41   1
  20   3   2 6622.46 1729.73   3
   3 -23   2 4118.56 1179.78   4
  23  -3   2 5397.81 1739.22   3
  23  -3   2 4763.28 908.152   1
  -3 -20   2 4169.90 1184.01   4
   3 -23   2 6913.82 1268.78   2
  -3 -20   2 5534.85 1123.51   2
  20   3   5 2209.03 1344.92   3
  23  -3   5 2507.24 1478.15   3
   3 -23   5 2340.36 1449.04   3
   3 -23   5 2049.96 1180.57   4
  -3 -20   5 2778.45 1167.95   4
   3 -23   5 1670.93 967.673   2
  -3 -20   5 1237.23 738.759   2
   2 -23  -5 5134.74 1595.32   2
  -2 -21  -5 7733.88 1717.66   2
  23  -2  -5 5241.09 1300.80   1
   2 -23  -5 1199.41 1158.95   4
  -2 -21  -5 3575.16 1309.44   4
  21   2  -5 5407.46 1411.66   1
  -2 -21  -2 5590.79 1380.74   2
  23  -2  -2 5974.21 1866.55   3
  23  -2  -2 5568.93 1186.00   1
  21   2  -2 5148.64 1203.12   1
  -2 -21  -2 5683.83 1421.29   4
   2 -23  -2 4711.09 1377.91   4
   2 -23  -2 5330.58 1396.66   2
  21   2   1-20.6069 1408.07   3
  23  -2   1-427.887 1394.76   3
  23  -2   1 52.9833 872.983   1
  21   2   1 566.268 895.915   1
   2 -23   1-197.002 1182.67   4
  -2 -21   1-654.527 1092.77   4
   2 -23   1 90.2904 1060.28   2
  -2 -21   1 2147.02 1047.40   2
  21   2   4-1206.16 1335.45   3
  23  -2   4 690.158 1329.26   3
  21   2   4-640.093 836.705   1
   2 -23   4-1219.64 1045.28   4
  -2 -21   4-545.823 1025.76   4
   2 -23   4 305.250 926.458   2
  -2 -21   4-907.041 827.265   2
  21   2   7 59.3435 1297.01   3
  23  -2   7-979.493 1407.77   3
   2 -23   7 1015.67 1555.56   3
   2 -23   7 1066.71 1064.39   4
  -2 -21   7 1612.15 1225.20   4
   2 -23   7 546.791 904.909   2
   1 -23  -6 2597.73 1490.64   2
  -1 -22  -6 3799.06 1434.27   2
  23  -1  -6 310.789 1217.14   1
  22   1  -6 1228.20 1279.93   1
   1 -23  -6 1760.88 1276.47   4
  -1 -22  -6 259.033 1144.53   4
  23  -1  -3 16521.7 1636.94   1
  22   1  -3 16081.9 1643.70   1
   1 -23  -3 13131.6 1613.09   4
  -1 -22  -3 13583.6 1665.80   4
   1 -23  -3 15670.0 1965.17   2
  -1 -22  -3 15237.5 1888.61   2
  22   1   0 5337.31 1728.18   3
  23  -1   0 2123.27 1488.16   3
   1 -23   0 3364.06 1171.07   4
  -1 -22   0 2647.81 1194.92   4
  23  -1   0 1918.91 967.369   1
  22   1   0 5988.11 1157.93   1
   1 -23   0 3692.08 1296.02   2
  -1 -22   0 3763.43 1282.52   2
  23  -1   3 11360.4 2201.29   3
  23  -1   3 11428.0 1197.60   1
  22   1   3 11914.8 1951.76   3
   1 -23   3 12806.3 1567.28   4
  -1 -22   3 10242.4 1562.91   4
   1 -23   3 11828.1 1416.00   2
  -1 -22   3 10048.1 1303.04   2
  22   1   3 11472.9 1292.10   1
  22   1   6 4696.64 1707.43   3
   1 -23   6 5802.24 1349.29   4
  -1 -22   6 5039.28 1279.73   4
  -1 -22   6 5669.37 975.177   2
   1 -23   6 3792.31 963.173   2
   0 -23  -4 803.161 1188.19   2
   0 -23  -4 2496.22 1327.88   4
  23   0  -4 2914.30 1214.41   1
  23   0  -1 433.559 1525.03   3
  23   0  -1 2413.09 1112.11   1
   0 -23  -1-165.643 1187.57   4
   0 -23  -1 2132.86 1317.59   2
  23   0   2 3863.09 990.671   1
  23   0   2 5571.08 1815.98   3
   0 -23   2 3200.49 1159.39   4
   0 -23   2 3838.40 1123.88   2
  23   0   5 1797.46 1467.74   3
   0 -23   5-338.893 1186.89   4
   0 -23   5-747.994 841.589   2
  24 -24  -3 2180.72 1175.32   3
  24 -24  -3-872.735 1237.41   2
   0  24  -3 1323.89 1143.12   1
 -24   0  -3 1281.58 952.172   2
  24 -24  -3-462.115 877.482   1
  24 -24  -3 79.4354 921.924   4
 -24   0  -3 238.534 751.161   4
  24 -24   0 14682.9 1992.18   3
  24 -24   0 15085.3 1505.12   4
  24 -24   0 14489.6 874.861   1
   0  24   0 13442.5 1646.79   1
 -24   0   0 13596.8 983.301   4
   0  24   3 1067.99 1086.11   1
  24 -24   3-2127.08 1380.53   3
   1  23  -4 98.4629 1055.60   1
  -1  24  -4 1128.82 1045.26   1
  24 -23  -4 1200.99 1096.02   3
  23 -24  -4-660.964 1067.88   3
 -23  -1  -4-1338.17 1081.95   2
 -24   1  -4 70.7809 985.886   2
  23 -24  -4-883.797 997.150   4
  24 -23  -4 374.055 875.672   4
  24 -23  -4 1360.76 994.007   1
  24 -23  -4 698.841 1240.06   2
  23 -24  -4 657.937 1349.60   2
 -23  -1  -4-1178.22 910.392   4
 -24   1  -4 226.146 828.927   4
   1  23  -1 1285.02 1015.31   1
  -1  24  -1 1948.73 1095.92   1
  24 -23  -1 2999.00 1345.13   3
  23 -24  -1 1081.49 1182.17   3
  24 -23  -1 1911.06 982.232   4
  23 -24  -1 2377.69 1071.05   4
  24 -23  -1 3297.89 1266.05   2
  23 -24  -1 1910.28 1114.35   2
  24 -23  -1 2402.46 648.942   1
 -23  -1  -1 1222.84 693.982   4
 -24   1  -1 3058.66 731.709   4
  -1  24   2 1722.30 1212.23   1
  24 -23   2 649.679 1316.55   3
  23 -24   2-871.155 1318.43   3
   1  23   2-1976.67 1248.02   1
 -23  -1   2 77.4593 331.384   4
  24 -23   5 2641.49 1478.30   3
  23 -24   5-258.108 1409.93   3
  24 -22  -5 2564.59 1120.17   3
  22 -24  -5 1670.66 959.259   3
 -22  -2  -5-959.409 1106.22   2
 -24   2  -5 2600.19 1180.92   2
   2  22  -5 2401.05 1318.03   1
  22 -24  -5 131.792 1007.46   4
  24 -22  -5 1904.16 883.428   4
  24 -22  -5-163.482 884.434   1
  24 -22  -5 536.711 1225.32   2
  22 -24  -5-1716.30 1328.30   2
  -2  24  -5 260.454 1146.57   1
 -22  -2  -5 990.741 1032.98   4
 -24   2  -5 103.354 889.174   4
  24 -22  -2 2723.24 1365.94   3
  22 -24  -2 371.400 1091.67   3
   2  22  -2 269.751 1112.78   1
 -22  -2  -2 458.730 808.108   2
  24 -22  -2 2216.81 987.191   4
  22 -24  -2-437.791 977.938   4
  24 -22  -2 18.4758 1159.85   2
  22 -24  -2 332.051 1162.42   2
  24 -22  -2 907.317 671.425   1
  -2  24  -2-1129.60 1027.53   1
 -22  -2  -2-15.4233 743.291   4
 -24   2  -2 458.112 703.505   4
  24 -22   1 2177.20 1306.03   3
  -2  24   1 1584.07 1081.61   1
  22 -24   1 871.586 1204.16   3
  22 -24   1 995.423 929.912   4
   2  22   1 1611.97 1073.44   1
 -22  -2   1 1683.10 558.413   4
 -24   2   1 901.005 390.441   4
  24 -22   4 718.500 1334.87   3
  22 -24   4 88.6197 1401.93   3
  24 -21  -6 15926.2 1879.76   3
 -21  -3  -6 20334.9 2140.54   2
 -24   3  -6 18389.6 1926.64   2
  24 -21  -6 19304.8 1794.80   1
  24 -21  -6 17224.5 1994.55   2
  21 -24  -6 13965.3 1984.10   2
  21 -24  -6 15335.9 1555.79   4
   3  21  -6 17571.6 1972.61   1
  -3  24  -6 20242.0 1916.01   1
 -21  -3  -6 19734.4 1877.83   4
 -24   3  -6 19334.3 1821.53   4
   3  21  -3 821.318 1223.79   1
  24 -21  -3 3098.31 1172.35   3
  21 -24  -3 2076.00 1143.81   3
 -21  -3  -3 635.049 869.710   2
  -3  24  -3 683.893 998.960   1
  24 -21  -3 1388.85 869.118   4
  21 -24  -3 963.528 1009.77   4
  24 -21  -3 2335.18 1237.88   2
  21 -24  -3 2433.77 1226.41   2
  24 -21  -3 2045.75 779.948   1
 -21  -3  -3 1532.50 838.623   4
 -24   3  -3 1912.16 833.956   4
  24 -21   0 18621.5 2083.82   3
  21 -24   0 13675.7 1812.17   3
   3  21   0 15759.4 1734.24   1
  24 -21   0 16607.7 1459.52   4
  21 -24   0 15814.3 1701.15   2
  21 -24   0 16058.5 1545.17   4
  24 -21   0 12890.1 697.388   1
 -21  -3   0 12871.6 1041.23   4
  -3  24   0 16004.6 1616.14   1
 -24   3   0 13635.5 903.043   4
  24 -21   3-172.304 1282.72   3
  21 -24   3-766.388 1372.81   3
   3  21   3 2028.95 1281.28   1
 -21  -3   3 434.985 317.655   4
  24 -21   6 10927.2 1991.25   3
  21 -24   6 9482.19 1777.49   3
  24 -20  -4 3521.45 1244.62   3
  -4  24  -4 3961.28 1142.39   1
  20 -24  -4 2711.45 976.117   3
 -20  -4  -4 3520.85 1170.36   2
  20 -24  -4 1645.07 970.561   4
   4  20  -4 1772.24 1258.54   1
  24 -20  -4 515.504 1158.18   2
  24 -20  -4 1228.36 749.841   4
  20 -24  -4 1597.92 1349.66   2
  24 -20  -4 956.210 847.701   1
 -20  -4  -4 3147.63 1007.70   4
 -24   4  -4 527.903 809.720   4
  24 -20  -1 691.038 1228.89   3
  20 -24  -1 1948.56 1130.42   3
  -4  24  -1 5132.09 1177.99   1
 -20  -4  -1 3005.31 890.842   2
  24 -20  -1 2774.06 873.259   4
  20 -24  -1 1546.77 1008.91   4
   4  20  -1-1779.37 1085.40   1
  20 -24  -1-86.3517 1107.02   2
 -20  -4  -1 1790.29 779.605   4
  24 -20  -1 997.706 525.236   1
 -24   4  -1 1684.58 619.855   4
   4  20   2 1119.04 1063.25   1
  24 -20   2 1771.92 1311.63   3
  20 -24   2 3968.86 1316.28   3
  -4  24   2 829.149 980.542   1
 -20  -4   2 1652.49 519.941   4
  24 -20   5 2432.42 1459.92   3
  20 -24   5 2031.79 1389.93   3
  -5  24  -5 4403.97 1177.91   1
  24 -19  -5 442.895 1125.97   3
 -19  -5  -5 328.939 1049.17   2
   5  19  -5-67.0070 1268.54   1
  19 -24  -5 2274.14 1062.07   4
  24 -19  -5 634.786 1124.83   2
  19 -24  -5 1061.86 1262.64   2
  24 -19  -5 4941.34 1088.09   1
 -19  -5  -5 1435.17 987.621   4
 -24   5  -5 3081.41 1019.98   4
  -5  24  -2 1784.32 939.450   1
   5  19  -2 2495.57 1210.60   1
  24 -19  -2 1874.01 1223.43   3
  19 -24  -2 3523.00 1217.82   3
 -19  -5  -2 4632.67 1026.51   2
  24 -19  -2 3927.34 1207.55   2
  24 -19  -2 3639.28 892.730   4
  19 -24  -2 723.719 979.153   4
  19 -24  -2 2867.97 1201.20   2
 -19  -5  -2 1546.16 776.882   4
  24 -19  -2 3355.57 725.029   1
 -24   5  -2 3287.87 751.663   4
  19 -24   1 7962.35 1543.22   3
  24 -19   1 3783.32 1435.92   3
  19 -24   1 7323.76 1227.24   4
   5  19   1 6715.81 1394.30   1
 -19  -5   1 5350.19 755.757   4
  -5  24   1 6143.81 1298.19   1
   5  19   4 4385.01 869.745   3
  24 -19   4 4157.28 1438.09   3
  19 -24   4 3036.27 1391.09   3
 -19  -5   4 2579.53 452.422   4
  24 -19   7 1983.37 1458.59   3
  19 -24   7 3230.56 1489.48   3
  24 -18  -6 5579.79 1505.22   3
 -18  -6  -6 7572.02 1545.68   2
   6  18  -6 7310.69 1510.55   1
  18 -24  -6 4432.79 1221.02   4
  -6  24  -6 6747.62 1293.30   1
  24 -18  -6 5621.52 1339.86   2
  18 -24  -6 3862.87 1630.91   2
 -18  -6  -6 7307.91 1369.35   4
  24 -18  -6 6209.80 1232.21   1
 -24   6  -6 6575.16 1233.63   4
  24 -18  -3-489.168 1191.43   3
  18 -24  -3 909.580 875.346   3
 -18  -6  -3 1877.11 976.106   2
  24 -18  -3 3088.65 1192.07   2
  18 -24  -3 2360.02 1060.40   4
  24 -18  -3 235.385 644.768   4
  -6  24  -3 1311.77 947.642   1
   6  18  -3-1448.96 1210.42   1
  18 -24  -3 753.443 1341.82   2
 -18  -6  -3 1677.27 848.886   4
  24 -18  -3 881.137 698.789   1
 -24   6  -3 1124.03 697.158   4
  24 -18   0 18008.7 2172.29   3
  -6  24   0 11964.3 1434.94   1
  18 -24   0 20097.4 1862.62   3
   6  18   0 18311.6 1682.15   1
 -18  -6   0 17924.1 1260.64   2
  18 -24   0 13207.6 1406.07   4
  18 -24   0 17562.4 1752.75   2
 -18  -6   0 13135.2 1103.65   4
  24 -18   0 14911.6 704.406   1
   6  18   3-156.403 833.870   3
  24 -18   3 1776.37 1468.99   3
  18 -24   3 1330.12 1255.01   3
   6  18   3 1476.22 1107.67   1
 -18  -6   3 795.395 501.763   4
  24 -18   6 12560.6 2012.25   3
  18 -24   6 13204.6 1993.74   3
  24 -17  -7-685.176 1211.39   3
   7  17  -7-1079.96 1343.45   1
 -17  -7  -7-867.573 1214.29   2
  -7  24  -7 22.8264 1082.29   1
  17 -24  -7 166.144 1069.36   4
  24 -17  -7 358.511 1144.96   2
 -17  -7  -7-2397.27 1177.28   4
  17 -24  -7-1578.26 1435.38   2
  24 -17  -7 160.443 1103.13   1
 -24   7  -7 1348.96 1130.04   4
  24 -17  -4 3569.87 1407.73   3
  17 -24  -4 3751.64 806.614   3
  -7  24  -4 3056.99 1061.17   1
 -17  -7  -4 2570.36 1133.66   2
   7  17  -4 4009.69 1332.71   1
  24 -17  -4 4211.97 1139.86   2
  17 -24  -4 5570.99 1158.87   4
  24 -17  -4 2732.40 529.955   4
  17 -24  -4 5923.07 1487.07   2
 -17  -7  -4 2890.96 1041.20   4
  24 -17  -4 2953.31 832.446   1
 -24   7  -4 4587.63 1004.36   4
  24 -17  -1-391.740 505.754   1
  24 -17  -1 843.005 1158.14   3
   7  17  -1 963.534 1122.68   1
  17 -24  -1-120.782 935.771   3
 -17  -7  -1-737.038 790.202   2
  24 -17  -1 390.708 689.502   4
 -24   7  -1 1955.09 716.976   1
  -7  24  -1-85.5064 956.983   1
  17 -24  -1-24.2272 1047.53   4
  17 -24  -1 1393.95 1262.28   2
 -17  -7  -1 230.535 742.082   4
  24 -17   2 1629.39 1308.81   3
  17 -24   2 577.774 1107.93   3
   7  17   2 1214.65 1043.49   1
 -17  -7   2-1066.28 581.758   4
   7  17   5 1643.94 766.036   3
  24 -17   5 632.267 1426.54   3
  17 -24   5 705.095 1231.20   3
 -17  -7   5-337.185 494.967   4
  24 -16  -5 5221.98 1040.01   1
  24 -16  -5 6968.71 1541.19   3
  -8  24  -5 4421.28 1085.27   1
   8  16  -5 5038.31 1467.40   1
 -16  -8  -5 5198.44 1305.89   2
  16 -24  -5 2830.57 1106.43   4
  24 -16  -5 3106.98 1147.20   2
  16 -24  -5 6408.15 1672.46   2
 -16  -8  -5 3056.97 1196.18   4
  24 -16  -2 7967.99 1712.42   3
 -16  -8  -2 10872.8 1289.16   2
  16 -24  -2 8899.22 1176.50   3
  24 -16  -2 8403.24 857.959   4
 -24   8  -2 6238.14 590.620   1
  16 -24  -2 9897.76 1375.47   4
  16 -24  -2 8767.21 1458.85   2
  -8  24  -2 9114.70 1257.99   1
 -16  -8  -2 8662.88 1159.38   4
  24 -16  -2 8387.18 878.713   1
   8  16  -2 8110.56 1409.18   1
   8  16   1 4442.75 1218.31   1
  24 -16   1 2194.64 1238.10   3
  -8  24   1 3630.31 918.524   3
 -16  -8   1 7034.73 816.509   2
  16 -24   1 4649.96 1200.26   3
  16 -24   1 5830.37 1178.46   4
  -8  24   1 5703.48 1162.04   1
  16 -24   1 4862.86 1205.78   2
 -16  -8   1 4205.78 799.448   4
   8  16   4 5836.70 1068.71   3
  24 -16   4 9611.26 1858.20   3
  16 -24   4 8703.08 1735.73   3
 -16  -8   4 7493.67 812.237   4
   8  16   4 7414.21 1342.14   1
  24 -16   7 191.763 1403.86   3
  16 -24   7 3250.27 1391.08   3
  24 -15  -6 12543.2 1839.17   3
 -15  -9  -6 13597.9 1721.02   2
   9  15  -6 13309.8 1815.33   1
  24 -15  -6 9751.35 1381.22   2
  15 -24  -6 9367.70 1434.16   4
  15 -24  -6 11923.2 1974.05   2
  24 -15  -6 12669.6 1463.31   1
 -15  -9  -6 12904.5 1637.17   4
  -9  24  -6 11186.5 1377.63   1
  -9  24  -3 971.813 887.941   1
  24 -15  -3 2524.73 1332.03   3
  24 -15  -3 2352.66 771.486   1
 -15  -9  -3-360.471 1017.49   2
  15 -24  -3 1972.35 781.437   3
   9  15  -3 265.445 1180.17   1
  24 -15  -3 1761.68 1050.65   2
  15 -24  -3 3081.24 1083.83   4
  24 -15  -3 1692.06 411.706   4
  15 -24  -3 3341.51 1384.40   2
 -15  -9  -3 2341.53 925.653   4
  24 -15   0 9145.52 1718.55   3
  24 -15   0 8121.94 645.478   1
   9  15   0 10601.9 1420.72   1
 -15  -9   0 10644.2 1091.31   2
  15 -24   0 10865.5 1395.46   3
  -9  24   0 7871.13 1211.85   1
  15 -24   0 8651.96 1305.90   4
  15 -24   0 10250.1 1462.43   2
 -15  -9   0 8708.46 1058.94   4
   9  15   3 24.8782 925.811   3
  24 -15   3-206.935 1285.23   3
   9  15   3-382.090 1034.85   1
  15 -24   3-1664.05 1263.36   3
 -15  -9   3 1157.30 692.185   4
   9  15   6 3119.76 894.929   3
  24 -15   6 3047.34 1570.26   3
  15 -24   6 3610.27 1423.41   3
 -15  -9   6 1823.47 674.138   4
  10  14  -7-169.069 1296.35   1
  24 -14  -7 1407.39 1266.49   3
  24 -14  -7 1465.98 1049.29   1
 -14 -10  -7-722.520 1186.13   2
 -10  24  -7 1742.62 972.544   1
  14 -24  -7-722.270 1171.42   4
 -14 -10  -7 297.141 1029.59   4
  24 -14  -7 1090.26 1079.65   2
  14 -24  -7 2518.40 1712.24   2
  24 -14  -4 3097.28 1404.03   3
  24 -14  -4 1975.75 806.474   1
  10  14  -4 3096.71 1318.72   1
 -14 -10  -4 1808.24 1073.55   2
  14 -24  -4 1808.82 352.067   3
  24 -14  -4 2791.79 1041.22   2
  14 -24  -4 2814.36 1133.22   4
 -10  24  -4 4947.97 1009.98   1
  14 -24  -4 763.015 1392.15   2
 -14 -10  -4 3807.01 1087.49   4
  10  14  -1-2228.53 1072.63   1
  24 -14  -1 44.9889 1282.64   3
 -14 -10  -1 181.366 782.469   2
 -10  24  -1 839.337 857.257   1
  24 -14  -1 1686.23 598.220   1
  14 -24  -1 1615.81 974.810   3
  14 -24  -1 66.6407 918.560   4
  14 -24  -1 1888.19 1176.96   2
 -14 -10  -1 1419.54 796.864   4
  24 -14  -1 1475.07 537.743   4
 -10  24   2 4717.58 809.610   3
  24 -14   2 4427.35 1480.77   3
 -14 -10   2 4862.44 625.486   2
  14 -24   2 5358.95 1304.27   3
  14 -24   2 6925.24 1241.27   2
  14 -24   2 6724.59 1201.23   4
 -14 -10   2 5214.00 881.453   4
  10  14   2 7720.52 1275.90   1
  10  14   5-733.444 903.558   3
  24 -14   5 763.721 1345.10   3
  14 -24   5-413.631 1157.54   3
 -14 -10   5 845.160 649.543   4
  24 -13  -5 2533.61 1387.08   3
  24 -13  -5 4358.12 1006.23   1
  11  13  -5 4095.62 1361.69   1
 -13 -11  -5 2471.43 1264.15   2
 -11  24  -5 2897.34 935.421   1
  13 -24  -5 3543.43 1114.20   4
  24 -13  -5 3525.70 1057.31   2
 -13 -11  -5 4664.81 1198.71   4
  13 -24  -5 2081.10 1438.71   2
  24 -13  -2 8527.54 907.075   1
 -11  24  -2 9338.21 1133.68   1
  24 -13  -2 5274.00 1571.03   3
 -13 -11  -2 10784.2 1283.61   2
  13 -24  -2 10766.3 1084.10   3
  11  13  -2 5581.76 775.206   2
  24 -13  -2 7521.90 594.659   4
  13 -24  -2 9797.74 1416.57   4
  13 -24  -2 11003.7 1572.12   2
  11  13  -2 6568.31 1405.22   1
 -13 -11  -2 6805.41 1138.13   4
  24 -13  -2 5900.94 483.381   4
 -11  24   1 1549.26 873.726   3
  24 -13   1 4415.15 1445.18   3
 -13 -11   1 1323.77 678.135   2
  13 -24   1 2132.00 1083.31   3
  13 -24   1 5068.62 1171.57   4
  13 -24   1 3415.75 1151.34   2
 -13 -11   1 2086.84 810.758   4
  24 -13   1 791.256 267.608   1
  11  13   1 932.996 1016.76   1
  11  13   4 3804.87 1161.25   3
  24 -13   4 6256.59 1632.65   3
  13 -24   4 7856.59 1599.93   3
 -13 -11   4 5626.62 899.963   4
  11  13   4 7417.10 1420.99   1
  11  13   7 286.427 811.576   3
  24 -13   7 2177.31 1471.11   3
  13 -24   7 335.490 1202.61   3
 -13 -11   7 1551.74 789.422   4
  12  12  -6 3565.28 1380.63   1
  24 -12  -6 2573.64 1418.27   3
  24 -12  -6 3560.02 1069.31   1
 -12  24  -6 2913.04 940.088   1
 -12 -12  -6 1340.05 1266.25   2
  12 -24  -6 1691.30 1126.28   4
  24 -12  -6 1517.91 971.647   2
 -12 -12  -6 1396.79 1111.35   4
  12 -24  -6 3005.13 1542.42   2
  24 -12  -3 1226.35 1326.88   3
 -12 -12  -3-60.5885 964.078   2
  24 -12  -3 1233.02 741.094   1
  12  12  -3 2895.86 1278.92   1
 -12  24  -3 1037.46 796.473   1
  12 -24  -3 790.360 473.685   3
  24 -12  -3 783.735 901.513   2
  12 -24  -3-1449.83 997.527   4
 -12 -12  -3-2182.52 1042.86   4
  12 -24  -3 771.959 1309.66   2
  24 -12   0 2607.46 1416.90   3
 -12 -12   0 2742.43 824.927   2
  12  12   0 4276.88 1212.42   1
  12 -24   0 3193.26 1029.53   3
  12 -24   0 2265.58 1002.39   4
  12 -24   0 2088.97 1201.84   2
 -12 -12   0 2740.33 885.695   4
  24 -12   0 1724.54 603.948   4
  24 -12   0 2311.73 632.393   1
  12  12   3-661.671 1077.80   3
  24 -12   3 1145.71 1399.39   3
 -12 -12   3 998.705 383.490   2
  12 -24   3 149.423 1116.63   3
  12 -24   3-1931.43 1016.08   4
  12 -24   3 1202.20 991.048   2
 -12 -12   3 1121.21 764.156   4
  12  12   3 386.209 970.411   1
  12  12   6 2344.85 1039.95   3
  24 -12   6 1066.84 1266.73   3
  12 -24   6 3030.69 1405.62   3
 -12 -12   6 1666.41 809.753   4
  11 -24  -7-523.591 1483.58   2
 -13  24  -7-621.462 857.887   1
  24 -11  -7-48.1565 1069.66   1
 -11 -13  -7 1450.94 1238.34   2
  11 -24  -7 1359.41 1178.89   4
 -11 -13  -7-160.374 1161.32   4
  24 -11  -4 3035.70 1668.53   3
 -11 -13  -4 4716.81 1390.87   2
  13  11  -4 5818.84 1439.71   1
 -13  24  -4 8301.38 1041.65   1
  24 -11  -4 3703.40 955.086   2
  11 -24  -4 5153.33 1339.05   4
 -11 -13  -4 7538.75 1295.42   4
  11 -24  -4 6521.62 1653.09   2
  24 -11  -4 5326.88 1059.14   1
  24 -11  -1 2344.20 1341.64   3
 -11 -13  -1 2549.25 976.566   2
  11 -24  -1 2232.84 844.998   3
  24 -11  -1 2599.35 715.575   1
  11 -24  -1 3529.50 1221.87   4
  13  11  -1 1850.21 771.335   2
 -11 -13  -1 2912.69 985.802   4
  11 -24  -1 3180.17 1259.87   2
  24 -11  -1 1622.75 491.767   4
  13  11  -1 2346.46 1199.30   1
  13  11   2 9248.15 1574.57   3
 -13  24   2 9655.41 1029.09   3
 -11 -13   2 10930.3 942.682   2
  24 -11   2 9910.42 1687.36   3
  11 -24   2 14871.9 1623.41   3
  11 -24   2 7820.87 1289.28   4
  11 -24   2 10111.3 1397.83   2
  13  11   2 12282.5 1492.74   1
 -11 -13   2 9435.21 1122.33   4
  13  11   5 5247.88 1260.14   3
  24 -11   5 1151.81 1313.72   3
  11 -24   5 3832.63 1325.35   3
 -11 -13   5 2696.61 916.743   4
 -14  24  -5 706.878 794.248   1
  14  10  -5-1272.73 1298.99   1
  24 -10  -5 1404.30 1404.56   3
 -10 -14  -5-1767.68 1149.29   2
  24 -10  -5-588.422 945.877   1
  10 -24  -5-286.346 1146.00   4
  24 -10  -5 826.310 812.608   2
 -10 -14  -5-7.30749 1101.93   4
  10 -24  -5-1734.11 1605.99   2
  24 -10  -2 4156.74 1544.64   3
 -10 -14  -2 4523.13 1157.37   2
  14  10  -2 4367.16 1287.67   1
  24 -10  -2 4584.85 862.887   1
  10 -24  -2 4310.56 738.949   3
 -14  24  -2 4887.89 957.479   1
  10 -24  -2 5292.22 1280.02   4
  14  10  -2 3551.53 632.445   2
 -10 -14  -2 5720.71 1147.25   4
  10 -24  -2 3668.23 1488.57   2
  24 -10   1 860.705 1327.79   3
 -10 -14   1 589.238 705.012   2
  10 -24   1 1532.39 1015.90   3
  10 -24   1 2043.75 1063.53   4
  14  10   1 1174.08 1094.14   1
  10 -24   1 517.910 1050.74   2
 -10 -14   1 1507.13 841.108   4
  24 -10   1 1827.83 557.143   1
  14  10   4 3942.58 1364.18   3
  24 -10   4 1986.43 1431.62   3
 -10 -14   4 1396.79 299.521   2
  10 -24   4 2518.44 1215.48   3
  10 -24   4 4216.16 1190.64   2
 -10 -14   4 2129.51 886.956   4
  14  10   4 3990.42 1145.49   1
  14  10   7 908.846 1048.35   3
  24 -10   7 1932.73 1451.10   3
  10 -24   7 678.886 1280.38   3
 -10 -14   7 763.884 851.836   4
  -9 -15  -6 2953.08 1374.45   2
   9 -24  -6 3671.81 1223.26   4
 -15  24  -6 3957.86 853.723   1
  -9 -15  -6 6260.15 1346.43   4
  24  -9  -6 3652.88 909.962   2
  15   9  -6 1333.26 1288.75   1
   9 -24  -6 4348.83 1768.86   2
  24  -9  -6 7913.05 1302.76   1
  24  -9  -3 1118.99 1462.74   3
  -9 -15  -3-642.793 1049.60   2
  15   9  -3-302.417 1171.38   1
  24  -9  -3-209.310 787.789   1
 -15  24  -3 863.425 712.729   1
   9 -24  -3 2084.98 1225.36   4
  -9 -15  -3 642.342 1063.18   4
   9 -24  -3 107.802 1340.19   2
  15   9   0 9203.27 1362.60   1
  24  -9   0 8757.25 1771.00   3
   9 -24   0 11147.7 1273.80   3
  24  -9   0 9422.93 976.688   1
   9 -24   0 9840.64 1361.44   4
  -9 -15   0 8302.09 1180.13   4
  24  -9   0 7986.82 826.276   4
   9 -24   0 7933.53 1390.54   2
  -9 -15   0 9162.61 1166.67   2
  15   9   3 1247.75 1293.40   3
  -9 -15   3 1331.96 581.410   2
  24  -9   3 1311.92 1390.85   3
   9 -24   3 3339.35 1158.28   3
   9 -24   3 1832.31 1011.75   4
  -9 -15   3 2274.58 961.185   4
   9 -24   3 3076.82 1164.60   2
  15   9   3 1478.86 973.046   1
  15   9   6 14309.7 1711.90   3
  24  -9   6 7728.30 1844.08   3
   9 -24   6 11350.6 1793.58   3
   9 -24   6 10922.6 1479.89   2
  -9 -15   6 11673.7 1336.93   4
   8 -24  -7 5151.37 1616.65   2
  -8 -16  -7 2561.59 1532.56   2
  24  -8  -7 885.879 1096.66   1
   8 -24  -7 4021.71 1329.89   4
  16   8  -7 2693.71 1472.07   1
  -8 -16  -7 4587.93 1397.80   4
  -8 -16  -4 13291.4 1644.90   2
  24  -8  -4 7312.78 1914.79   3
  16   8  -4 7206.25 1473.62   1
  24  -8  -4 9450.40 1247.59   1
 -16  24  -4 7515.23 917.245   1
  24  -8  -4 7858.50 1062.48   2
   8 -24  -4 8843.81 1480.86   4
  -8 -16  -4 7498.81 1345.09   4
   8 -24  -4 8861.49 1774.39   2
  24  -8  -1 4345.47 1559.93   3
  -8 -16  -1 4928.24 1094.04   2
   8 -24  -1 3851.94 870.538   3
  24  -8  -1 4924.52 584.148   4
  16   8  -1 6949.52 1275.24   1
   8 -24  -1 4370.93 1227.81   4
  -8 -16  -1 4775.86 1070.42   4
   8 -24  -1 4740.42 1444.17   2
  16   8  -1 4085.06 875.431   2
  24  -8  -1 5007.48 933.764   1
  16   8   2 9888.55 1659.04   3
  24  -8   2 6659.04 1659.03   3
   8 -24   2 8849.48 1413.48   3
  16   8   2 8402.08 1267.34   1
  24  -8   2 8054.83 683.952   1
   8 -24   2 9141.88 1326.14   2
   8 -24   2 6853.60 1324.90   4
  -8 -16   2 8195.12 1195.97   4
  -8 -16   2 7528.63 940.304   2
  16   8   5 4794.57 1382.68   3
  24  -8   5 4410.35 1714.02   3
   8 -24   5 4072.33 1468.62   3
  -8 -16   5 5722.92 1094.13   4
   8 -24   5 3894.33 1117.22   2
  -7 -17  -5 3757.88 1345.73   2
  24  -7  -5 1546.71 961.698   1
   7 -24  -5-166.696 1081.87   4
  24  -7  -5 839.182 692.998   2
  -7 -17  -5 1274.72 1069.47   4
  17   7  -5 1038.61 1216.68   1
   7 -24  -5 1984.03 1710.71   2
 -17  24  -5 1673.13 685.435   1
  24  -7  -2-1160.71 1415.81   3
  -7 -17  -2-1202.89 1044.25   2
  17   7  -2 218.977 1091.94   1
   7 -24  -2-1680.15 1067.67   4
  24  -7  -2 1710.40 891.236   1
  -7 -17  -2 50.9925 916.780   4
   7 -24  -2 919.192 1204.39   2
  17   7   1-266.262 1272.36   3
  -7 -17   1-325.811 801.909   2
  24  -7   1 1567.94 1522.03   3
  17   7   1-835.838 1006.51   1
   7 -24   1-1912.31 1041.90   3
   7 -24   1 440.979 1093.57   4
  -7 -17   1 1904.13 1029.53   4
   7 -24   1 712.358 1123.46   2
  24  -7   1 1011.05 728.282   1
  17   7   4 3109.02 1404.85   3
  24  -7   4 4788.91 1654.33   3
   7 -24   4 5039.90 1348.72   3
   7 -24   4 4218.42 1231.44   4
  -7 -17   4 3563.86 1098.51   4
   7 -24   4 2897.34 1044.96   2
  17   7   4 3574.32 1145.16   1
  -7 -17   4 4137.67 707.025   2
  17   7   7 2130.44 1218.51   3
  24  -7   7 610.288 1352.72   3
   7 -24   7 3239.86 1365.72   3
  -7 -17   7-1041.91 1082.80   4
   7 -24   7 1298.27 1006.16   2
  -6 -18  -6 12173.4 1805.65   2
  24  -6  -6 10170.6 1497.20   1
  18   6  -6 11178.8 1793.91   1
   6 -24  -6 11068.5 1610.68   4
  -6 -18  -6 10499.0 1632.17   4
   6 -24  -6 15557.6 2098.16   2
  24  -6  -3 74.5807 1388.76   3
  -6 -18  -3 1830.70 1162.77   2
  18   6  -3 1930.45 1158.74   1
  24  -6  -3 868.270 881.819   1
   6 -24  -3 360.351 1114.01   4
  -6 -18  -3 202.592 1038.86   4
   6 -24  -3 4059.04 1523.79   2
  24  -6   0 15826.4 2305.71   3
   6 -24   0 17895.0 1458.57   3
   6 -24   0 15281.9 1686.77   4
  -6 -18   0 15848.3 1600.96   4
  24  -6   0 14771.7 1234.18   1
   6 -24   0 14373.8 1677.99   2
  -6 -18   0 11145.0 1322.20   2
  18   6   0 14389.5 1506.72   1
  -6 -18   3 456.215 715.221   2
  18   6   3 140.828 1228.99   3
  24  -6   3-231.040 1358.46   3
   6 -24   3 2163.88 1221.72   3
   6 -24   3 28.5329 1015.55   4
  -6 -18   3 934.962 992.304   4
  18   6   3-867.824 926.633   1
   6 -24   3 1046.43 1076.71   2
  24  -6   3 1454.55 556.422   1
  18   6   6 2557.70 1341.53   3
  24  -6   6 5490.39 1782.51   3
   6 -24   6 4933.29 1466.97   3
   6 -24   6 7977.29 1282.90   2
   6 -24   6 4464.99 1258.82   4
  -6 -18   6 6125.38 1255.71   4
   5 -24  -7 4322.64 1667.00   2
  -5 -19  -7 914.731 1286.83   2
  24  -5  -7 1197.36 1177.01   1
  19   5  -7 2961.67 1404.46   1
   5 -24  -7-172.158 1207.59   4
  -5 -19  -7 4451.48 1416.38   4
  19   5  -4 3783.61 1291.97   1
  -5 -19  -4 5671.78 1383.84   2
  24  -5  -4 4730.55 1161.51   1
  24  -5  -4 3108.70 709.895   2
   5 -24  -4 5597.97 1403.95   4
  -5 -19  -4 2466.94 1219.99   4
   5 -24  -4 2692.12 1447.15   2
  -5 -19  -1 7547.44 1304.42   2
  24  -5  -1 7068.21 1858.62   3
  24  -5  -1 5479.13 1045.47   1
  19   5  -1 6072.21 1243.65   1
   5 -24  -1 3253.39 1147.52   4
  -5 -19  -1 6445.48 1260.63   4
   5 -24  -1 5688.78 1492.16   2
  -5 -19   2 2199.68 871.446   2
  24  -5   2 912.289 664.650   1
  19   5   2 1568.80 967.154   1
  19   5   2 2006.22 1470.38   3
  24  -5   2 2454.99 1522.90   3
   5 -24   2 1969.63 1111.47   3
   5 -24   2 2612.37 1129.48   4
  -5 -19   2 2458.09 1120.12   4
   5 -24   2 915.918 1120.47   2
  19   5   5 1513.67 1379.85   3
   5 -24   5 1945.72 1342.72   3
   5 -24   5 3271.01 1168.61   4
  -5 -19   5 662.420 1025.92   4
   5 -24   5 3204.92 1013.50   2
  -5 -19   5 1658.47 659.009   2
   4 -24  -5 1380.50 1410.91   2
  -4 -20  -5 1638.10 1336.29   2
  24  -4  -5 329.882 1104.36   1
   4 -24  -5 82.4715 1109.41   4
  -4 -20  -5 2711.31 1189.30   4
  20   4  -5 2887.58 1283.46   1
  24  -4  -2 3590.47 1648.39   3
  -4 -20  -2 3179.50 1265.59   2
  20   4  -2 2871.93 1150.75   1
   4 -24  -2 641.578 1127.36   4
  -4 -20  -2 1101.07 1075.23   4
   4 -24  -2 3934.41 1415.78   2
  24  -4  -2 3909.21 1062.25   1
  -4 -20   1 1819.51 952.674   2
  20   4   1 4370.66 1577.67   3
  24  -4   1 602.412 1520.53   3
  24  -4   1 1497.22 830.334   1
  20   4   1 3423.99 1062.74   1
   4 -24   1 3215.38 1277.78   4
  -4 -20   1 1841.68 1031.51   4
   4 -24   1 3895.41 1198.17   2
  20   4   4 1900.80 1028.02   1
  20   4   4 1036.35 1389.33   3
  24  -4   4 1749.58 1497.27   3
   4 -24   4 1022.42 1185.14   3
   4 -24   4 1611.14 1102.18   4
  -4 -20   4 2049.34 1107.01   4
   4 -24   4 335.616 962.246   2
  -4 -20   4 1794.52 829.046   2
   3 -24  -6 9164.14 1834.38   2
  24  -3  -6 10443.7 1580.10   1
  -3 -21  -6 9677.78 1646.36   4
  21   3  -6 7421.86 1544.42   1
   3 -24  -6 8115.19 1507.76   4
  -3 -21  -6 10117.0 1888.66   2
  24  -3  -3 825.968 1388.76   3
  -3 -21  -3 687.098 1087.51   2
  21   3  -3-1531.90 1174.25   1
   3 -24  -3 1791.49 1139.71   4
  -3 -21  -3-56.4816 1071.25   4
  24  -3  -3 969.727 1067.13   1
   3 -24  -3 2306.51 1378.99   2
  21   3   0 16582.5 2203.82   3
  24  -3   0 15257.9 2208.06   3
   3 -24   0 14447.9 1628.02   4
  -3 -21   0 22045.6 1878.97   4
   3 -24   0 14698.5 1772.96   2
  24  -3   0 20989.6 1526.84   1
  -3 -21   0 18312.9 1693.12   2
  21   3   0 18036.4 1605.38   1
  21   3   3 2040.16 1567.53   3
  24  -3   3 2524.39 817.306   1
  24  -3   3 2933.26 1575.44   3
   3 -24   3 1720.93 1154.46   4
  -3 -21   3 3043.13 1206.95   4
  21   3   3 511.520 914.811   1
   3 -24   3 3991.48 1203.90   2
  -3 -21   3 1733.96 951.509   2
  21   3   6 12993.4 2060.52   3
  24  -3   6 12887.2 2135.54   3
   3 -24   6 17580.1 2137.11   3
   3 -24   6 15083.6 1844.43   4
  -3 -21   6 14877.4 1693.84   4
   3 -24   6 18231.3 1533.23   2
   2 -24  -4 1170.32 1438.72   2
  -2 -22  -4 1327.26 1245.37   2
   2 -24  -4 1861.97 1185.86   4
  -2 -22  -4 2610.02 1259.46   4
  24  -2  -4-108.455 1139.75   1
  22   2  -4-835.855 1187.57   1
  -2 -22  -1 1824.31 1189.46   2
  22   2  -1 1773.39 1570.84   3
  24  -2  -1 2242.15 1767.39   3
  24  -2  -1 1802.32 1047.82   1
  22   2  -1 1028.72 1021.36   1
   2 -24  -1 3812.01 1300.97   4
  -2 -22  -1 2414.30 1234.01   4
   2 -24  -1 1117.23 1310.25   2
  24  -2   2-12.9854 772.538   1
  22   2   2-350.153 876.074   1
  22   2   2 1617.83 1481.99   3
  24  -2   2 1544.10 1565.67   3
   2 -24   2-1061.57 1158.62   4
  -2 -22   2 939.262 1191.13   4
   2 -24   2 1650.72 1148.67   2
  -2 -22   2-262.159 983.766   2
  22   2   5 3042.52 1485.40   3
  24  -2   5-528.393 1405.90   3
   2 -24   5 2290.37 1223.25   4
  -2 -22   5-532.095 1113.49   4
   2 -24   5-796.675 932.274   2
  -2 -22   5 1356.01 824.239   2
   1 -24  -5 2072.14 1448.43   2
  -1 -23  -5 384.313 1284.18   2
  24  -1  -5-230.687 1168.11   1
   1 -24  -5-4.26594 1278.02   4
  -1 -23  -5 207.121 1200.17   4
  23   1  -5 952.490 1224.79   1
  -1 -23  -2-1076.81 1315.35   2
  24  -1  -2 1367.63 1451.10   3
  24  -1  -2 2283.64 1105.62   1
  23   1  -2 363.841 1058.08   1
   1 -24  -2 1549.78 1177.78   4
  -1 -23  -2-895.566 1074.68   4
   1 -24  -2-1766.65 1246.82   2
  23   1   1 1340.49 1571.41   3
  24  -1   1 230.992 1571.93   3
  24  -1   1 1786.33 935.432   1
  23   1   1 2577.52 993.726   1
   1 -24   1-316.085 1201.89   4
  -1 -23   1 3158.94 1207.24   4
   1 -24   1 717.706 1171.29   2
  -1 -23   1 1407.06 1079.84   2
  23   1   4-1386.98 1521.57   3
  24  -1   4 1885.71 1609.75   3
   1 -24   4 1446.29 1237.47   4
  -1 -23   4 1986.58 1152.14   4
  23   1   4-2085.62 885.749   1
   1 -24   4 305.180 982.762   2
  -1 -23   4-27.2075 888.849   2
   0 -24  -3-441.737 1344.89   2
  24   0  -3 700.182 1086.16   1
   0 -24  -3-2522.31 1213.70   4
  24   0   0 15726.1 2306.60   3
   0 -24   0 12609.2 1625.53   4
   0 -24   0 13877.8 1655.20   2
  24   0   0 12059.3 1414.23   1
  24   0   3-666.337 1447.55   3
   0 -24   3-870.641 1178.17   4
  24   0   3-1643.47 973.985   1
   0 -24   3 1587.68 1035.80   2
  25 -25  -4 7117.35 1480.20   3
   0  25  -4 6150.81 1494.22   1
 -25   0  -4 4441.21 1296.17   2
  25 -25  -4 5728.51 1169.64   4
  25 -25  -4 5139.37 1132.53   1
  25 -25  -4 3243.34 1371.01   2
 -25   0  -4 5944.62 1151.88   4
   0  25  -1-1035.19 1079.56   1
  25 -25  -1 457.374 1307.76   3
  25 -25  -1-1228.13 1000.73   4
  25 -25  -1-2349.78 1238.57   2
  25 -25  -1 226.704 597.302   1
 -25   0  -1 180.923 655.313   4
   0  25   2 3541.99 1319.98   1
  25 -25   2 3013.47 1358.73   3
  -1  25  -5 726.150 1225.88   1
  25 -24  -5 2187.71 1259.63   3
 -24  -1  -5 879.478 1110.34   2
 -25   1  -5-272.032 1069.53   2
  24 -25  -5-339.853 1084.63   1
  24 -25  -5 1291.72 1010.25   4
  25 -24  -5 3482.26 1220.16   1
  25 -24  -5 1473.64 1429.01   2
  24 -25  -5-2271.71 1574.20   2
   1  24  -5 983.887 1280.38   1
 -24  -1  -5 2488.57 1151.55   4
 -25   1  -5 3923.87 1158.29   4
  -1  25  -2 2844.23 1248.47   1
  25 -24  -2 3121.38 1352.42   3
  24 -25  -2 2891.67 1271.73   3
  25 -24  -2 4668.95 1157.70   4
  24 -25  -2 983.479 1070.93   4
  25 -24  -2 2164.92 1306.93   2
  24 -25  -2 3082.32 1301.02   2
  25 -24  -2 4350.29 873.129   1
   1  24  -2 4358.80 1242.37   1
 -24  -1  -2 4315.89 862.048   4
 -25   1  -2 2999.76 839.502   4
  25 -24   1 4255.59 1726.35   3
  -1  25   1 891.694 1137.22   1
  24 -25   1-937.301 1284.56   3
  24 -25   1 2052.64 1079.78   4
 -24  -1   1 1430.03 535.422   4
   1  24   1 1027.37 1163.97   1
  25 -24   4 1852.31 1575.46   3
  24 -25   4 7.21159 1333.22   3
   2  23  -3 11264.1 1624.02   1
  25 -23  -3 12644.2 1781.46   3
  23 -25  -3 12153.6 1639.13   3
  -2  25  -3 13102.8 1602.95   1
 -23  -2  -3 12417.7 1487.00   2
  23 -25  -3 12830.2 1749.90   2
  25 -23  -3 11753.9 1233.50   1
  25 -23  -3 11720.0 1299.86   4
  23 -25  -3 11947.0 1431.22   4
  25 -23  -3 8985.36 1635.08   2
 -23  -2  -3 11425.1 1301.04   4
 -25   2  -3 13051.0 1315.02   4
  25 -23   0 4745.53 1411.26   3
  23 -25   0 6299.17 1609.37   3
   2  23   0 4631.21 1240.88   1
  25 -23   0 6855.28 1216.64   4
  23 -25   0 6454.66 1250.79   4
  23 -25   0 5415.39 1361.54   2
 -23  -2   0 4525.07 765.025   4
  -2  25   0 6645.12 1416.86   1
 -25   2   0 4913.69 693.758   4
  25 -23   3 10837.1 1923.67   3
  23 -25   3 16043.2 2116.44   3
   2  23   3 12690.2 1704.41   1
  25 -22  -4 2112.67 1315.34   3
  22 -25  -4 1069.09 947.686   3
  -3  25  -4 2046.10 1156.80   1
 -22  -3  -4 1344.51 972.220   2
  22 -25  -4 569.873 976.188   4
  25 -22  -4 736.274 846.512   4
  25 -22  -4 479.961 1257.98   2
  22 -25  -4-402.571 1301.51   2
  25 -22  -4 926.501 834.375   1
 -22  -3  -4 1622.71 928.285   4
   3  22  -4 3652.54 1314.82   1
 -25   3  -4-209.383 839.247   4
  25 -22  -1 1567.13 1299.38   3
  22 -25  -1 1702.61 1347.30   3
  -3  25  -1 93.7888 1053.22   1
 -22  -3  -1 2865.65 903.706   2
  25 -22  -1 165.071 865.483   4
  25 -22  -1 1297.38 1161.78   2
  22 -25  -1-24.9310 1028.60   4
  22 -25  -1-160.353 1204.29   2
  25 -22  -1 490.627 537.399   1
 -22  -3  -1 1567.40 702.484   4
   3  22  -1-586.674 1002.71   1
 -25   3  -1 225.340 569.620   4
  -3  25   2-499.284 1034.92   1
  25 -22   2-1178.63 1341.05   3
  22 -25   2 980.846 1343.65   3
   3  22   2 910.700 1126.73   1
 -22  -3   2 870.691 476.381   4
  25 -22   5 1193.60 1352.75   3
  22 -25   5 886.735 1318.34   3
  -4  25  -5-428.767 1121.44   1
  25 -21  -5 850.820 1180.95   3
 -21  -4  -5 48.7526 1072.21   2
   4  21  -5 133.219 1240.91   1
  21 -25  -5-699.652 1041.80   4
  25 -21  -5-1611.76 1263.28   2
  21 -25  -5 2087.55 1391.91   2
  25 -21  -5 1306.83 967.564   1
 -21  -4  -5 2124.50 980.543   4
 -25   4  -5 861.713 889.168   4
  -4  25  -2 6996.10 1303.85   1
  25 -21  -2 5018.97 1503.24   3
  21 -25  -2 5164.85 1292.05   3
   4  21  -2 3823.48 1307.19   1
 -21  -4  -2 7204.75 1192.03   2
  25 -21  -2 4311.01 1010.06   4
  21 -25  -2 5934.94 1286.60   4
  25 -21  -2 2254.32 1320.59   2
  21 -25  -2 6313.06 1399.74   2
 -21  -4  -2 6422.81 1077.73   4
  25 -21  -2 3729.71 726.407   1
 -25   4  -2 2556.18 780.334   4
  25 -21   1 1403.49 1251.36   3
  21 -25   1 272.239 1217.04   3
   4  21   1-415.528 1091.64   1
  21 -25   1 1073.16 1040.06   4
  -4  25   1 1052.84 1043.37   1
 -21  -4   1 1116.46 622.152   4
  25 -21   4 8061.60 1951.67   3
  21 -25   4 2531.52 1459.58   3
  25 -20  -6 1259.30 1177.64   3
   5  20  -6 3472.12 1443.43   1
 -20  -5  -6 2299.44 1291.93   2
  20 -25  -6 2406.28 1140.47   4
  25 -20  -6 732.288 1225.18   2
  20 -25  -6 1041.67 1437.66   2
  -5  25  -6 2130.83 1157.96   1
  25 -20  -6 4020.39 1155.85   1
 -20  -5  -6 2691.18 1130.28   4
 -25   5  -6 5418.11 1276.82   4
  25 -20  -3 15475.2 2044.18   3
  20 -25  -3 15878.9 1630.50   3
  -5  25  -3 15245.2 1561.93   1
 -20  -5  -3 18046.8 1664.43   2
  25 -20  -3 15598.2 1698.99   2
  20 -25  -3 14584.9 1854.94   2
  25 -20  -3 15920.9 1225.90   4
  20 -25  -3 19723.1 1673.41   4
  25 -20  -3 13947.3 1181.40   1
 -20  -5  -3 17509.7 1497.05   4
 -25   5  -3 15335.7 1321.81   4
   5  20  -3 15380.7 1714.49   1
  -5  25   0 5636.77 1259.72   1
  25 -20   0 3996.44 1509.08   3
  20 -25   0 5214.11 1343.28   3
 -20  -5   0 5519.13 873.597   2
   5  20   0 9966.18 1450.56   1
  20 -25   0 5324.07 1174.63   4
  20 -25   0 6061.30 1374.95   2
 -20  -5   0 7035.20 921.034   4
  25 -20   0 6436.66 533.960   1
   5  20   3 10154.9 1184.57   3
  20 -25   3 10875.8 1735.15   3
  25 -20   3 9780.51 1749.12   3
   5  20   3 9598.46 1539.26   1
 -20  -5   3 6799.38 655.913   4
  25 -20   6 3209.07 1489.03   3
  20 -25   6 5179.26 1728.48   3
  25 -19  -4-179.019 1256.39   3
  19 -25  -4 226.766 830.756   3
  -6  25  -4 838.698 964.842   1
 -19  -6  -4 2552.52 1140.65   2
   6  19  -4 1044.55 1341.75   1
  19 -25  -4 865.729 1046.56   4
  25 -19  -4 633.413 1133.57   2
  19 -25  -4 3377.66 1548.19   2
 -19  -6  -4 1874.65 1021.75   4
  25 -19  -4 311.365 698.799   1
 -25   6  -4 1245.07 812.822   4
  25 -19  -1 3220.78 612.205   1
  25 -19  -1 6159.30 1651.43   3
  19 -25  -1 5428.70 1282.24   3
 -19  -6  -1 3692.19 986.761   2
   6  19  -1 4727.88 1335.15   1
  -6  25  -1 3609.03 1115.45   1
  25 -19  -1 3889.26 918.420   4
  19 -25  -1 2679.45 1105.31   4
  19 -25  -1 1612.92 1271.37   2
 -19  -6  -1 3767.85 843.556   4
  25 -19   2 1091.48 1402.32   3
  19 -25   2-162.973 1163.07   3
 -19  -6   2 1281.88 611.239   4
   6  19   2-319.459 1074.94   1
  25 -19   5 4440.87 1658.51   3
  19 -25   5 5606.59 1573.56   3
  25 -18  -5 909.879 1216.57   3
  -7  25  -5 5052.66 1205.45   1
   7  18  -5 4474.16 1476.96   1
 -18  -7  -5 3172.54 1273.24   2
  18 -25  -5 1457.42 1110.76   4
  25 -18  -5 3416.79 1239.03   2
  18 -25  -5 2241.12 1438.26   2
 -18  -7  -5 2291.98 1107.25   4
  25 -18  -5 2691.40 964.449   1
 -25   7  -5 3831.74 1017.74   4
  25 -18  -2 8728.71 1710.74   3
   7  18  -2 5884.00 1412.42   1
  18 -25  -2 6868.73 1260.83   3
 -18  -7  -2 7991.96 1174.75   2
  25 -18  -2 7348.63 929.568   4
  25 -18  -2 5234.95 1246.86   2
  -7  25  -2 5995.30 1217.31   1
  18 -25  -2 4840.05 1176.49   4
  18 -25  -2 7735.59 1489.17   2
  25 -18  -2 5976.46 808.243   1
 -18  -7  -2 5598.61 991.991   4
  25 -18   1 8485.89 1715.57   3
  18 -25   1 9550.79 1593.82   3
 -18  -7   1 7923.89 847.842   2
  18 -25   1 9343.13 1382.36   4
  18 -25   1 8432.56 1387.64   2
   7  18   1 11033.7 1519.74   1
 -18  -7   1 6004.09 888.947   4
  -7  25   1 9052.46 1351.35   1
   7  18   4 5696.18 1054.23   3
   7  18   4 9054.99 1462.87   1
  25 -18   4 10876.7 1944.59   3
  18 -25   4 9180.52 1620.22   3
 -18  -7   4 7638.33 741.297   4
  25 -17  -6 3721.68 1059.48   1
  -8  25  -6 1602.37 1109.12   1
  25 -17  -6 3654.51 1474.09   3
   8  17  -6 626.765 1440.83   1
 -17  -8  -6 2548.65 1229.61   2
  17 -25  -6 1795.03 1046.95   4
  25 -17  -6 2420.37 1197.12   2
  17 -25  -6-27.9771 1497.82   2
 -17  -8  -6-502.450 1018.48   4
  25 -17  -3 7286.03 1764.63   3
 -17  -8  -3 13077.3 1437.10   2
  17 -25  -3 11146.2 1222.78   3
  -8  25  -3 12033.6 1384.88   1
  25 -17  -3 10771.2 1507.01   2
  17 -25  -3 12517.1 1723.65   2
  25 -17  -3 10286.2 821.233   4
  17 -25  -3 8673.25 1332.82   4
  25 -17  -3 7899.05 954.160   1
 -17  -8  -3 10152.0 1293.39   4
   8  17  -3 10528.3 1620.02   1
  25 -17   0-102.474 1274.92   3
  17 -25   0 2453.67 1155.52   3
 -17  -8   0 1332.37 693.528   2
  25 -17   0 356.078 403.754   1
  17 -25   0 1414.93 1019.99   4
  17 -25   0 1466.77 1201.15   2
  -8  25   0 1917.73 964.087   1
   8  17   0 1206.01 1084.33   1
 -17  -8   0 1257.76 708.691   4
   8  17   3 6574.14 1150.58   3
  25 -17   3 6286.91 1621.75   3
   8  17   3 9386.04 1484.81   1
  17 -25   3 6357.82 1443.12   3
 -17  -8   3 7122.76 843.197   4
  25 -17   6 2134.95 1465.61   3
  17 -25   6 4532.94 1552.53   3
  25 -16  -7 4473.89 1208.51   1
  25 -16  -7 1517.84 1422.80   3
   9  16  -7 2988.59 1698.26   1
 -16  -9  -7 2762.27 1343.72   2
  16 -25  -7 4140.25 1330.37   4
  -9  25  -7 3485.53 1167.84   1
  25 -16  -7 1407.51 1187.20   2
 -16  -9  -7 1106.23 1189.92   4
  16 -25  -7 1068.00 1623.55   2
  25 -16  -4 802.118 780.414   1
  25 -16  -4 504.364 1225.78   3
 -16  -9  -4-342.077 1034.13   2
   9  16  -4 1386.96 1311.77   1
  25 -16  -4 954.495 1037.24   2
  16 -25  -4-470.691 1011.41   4
  -9  25  -4 477.633 859.079   1
  16 -25  -4 470.741 1424.01   2
 -16  -9  -4 1234.84 912.489   4
   9  16  -1 7103.28 1418.67   1
  25 -16  -1 6778.19 1618.00   3
  -9  25  -1 4719.41 1044.12   1
 -16  -9  -1 5745.05 1034.89   2
  25 -16  -1 3249.91 665.335   1
  16 -25  -1 6757.87 1210.46   3
  25 -16  -1 5806.53 836.149   4
  16 -25  -1 6568.26 1318.17   4
  16 -25  -1 5932.64 1394.82   2
 -16  -9  -1 4822.53 994.815   4
  25 -16   2-190.675 1245.16   3
  16 -25   2 632.075 1139.33   3
 -16  -9   2 115.314 445.815   2
   9  16   2 1265.53 1029.66   1
  16 -25   2-22.5698 1023.92   4
  16 -25   2 1088.76 1008.82   2
 -16  -9   2-884.099 688.330   4
   9  16   5 5241.09 1060.89   3
  25 -16   5 5206.69 1668.72   3
  16 -25   5 5392.35 1473.35   3
 -16  -9   5 4948.40 769.455   4
  25 -15  -5 5636.91 1618.23   3
 -15 -10  -5 11280.0 1687.70   2
  10  15  -5 8874.27 1671.19   1
 -10  25  -5 6319.01 1136.98   1
  25 -15  -5 8569.70 1330.94   2
  15 -25  -5 8768.90 1402.35   4
  15 -25  -5 10642.8 1892.98   2
 -15 -10  -5 8357.06 1344.62   4
  25 -15  -5 6814.31 1174.89   1
  25 -15  -2 9992.56 1866.84   3
 -15 -10  -2 13805.2 1395.83   2
  15 -25  -2 10174.5 1171.73   3
  25 -15  -2 8875.81 771.942   4
  15 -25  -2 8855.13 1430.37   4
  15 -25  -2 12646.6 1679.26   2
 -15 -10  -2 8745.81 1204.60   4
  10  15  -2 10572.1 1636.32   1
 -10  25  -2 9378.02 1243.07   1
  25 -15  -2 9613.03 928.209   1
  10  15   1 6393.06 1237.68   1
  25 -15   1 6234.82 1565.23   3
 -15 -10   1 4975.06 808.024   2
  15 -25   1 5898.10 1382.77   3
  15 -25   1 6655.77 1386.55   4
  15 -25   1 7342.55 1349.66   2
 -15 -10   1 6704.94 972.876   4
  10  15   4 5415.83 1151.81   3
  25 -15   4 5723.99 1719.97   3
  15 -25   4 7075.74 1547.34   3
  10  15   4 5959.27 1310.07   1
 -15 -10   4 3790.41 811.448   4
  25 -15   7 5867.55 1714.16   3
  15 -25   7 7204.31 1759.93   3
  25 -14  -6-639.974 1276.57   3
  11  14  -6 2377.02 1466.38   1
  25 -14  -6 416.348 893.286   1
 -11  25  -6-209.514 849.813   1
 -14 -11  -6-545.815 1134.88   2
  14 -25  -6-1385.93 1100.64   4
  25 -14  -6-221.678 983.292   2
 -14 -11  -6 1205.66 1130.46   4
  14 -25  -6 2116.79 1500.67   2
  25 -14  -3 5421.58 1625.81   3
  25 -14  -3 3646.93 870.818   1
 -14 -11  -3 3171.75 1120.90   2
  14 -25  -3 4200.08 721.634   3
 -11  25  -3 4502.29 1053.04   1
  11  14  -3 1590.73 1241.66   1
  25 -14  -3 3514.05 1105.77   2
  14 -25  -3 3684.09 1176.67   4
  14 -25  -3 3351.09 1393.82   2
 -14 -11  -3 4628.58 1074.86   4
  25 -14   0 1131.82 1426.55   3
 -14 -11   0 868.877 780.499   2
  14 -25   0 1333.04 984.037   3
  11  14   0 1441.70 1047.80   1
  14 -25   0 2872.18 1052.54   4
  14 -25   0 1092.61 1150.79   2
 -14 -11   0 747.507 791.077   4
  25 -14   0 1251.56 524.322   1
  11  14   3 1553.59 1122.92   3
  11  14   3 422.657 1066.99   1
  25 -14   3 947.210 1376.34   3
  14 -25   3-896.924 1204.78   3
 -14 -11   3-366.605 282.476   2
  14 -25   3-994.718 1008.50   4
  14 -25   3 1021.09 1176.08   2
 -14 -11   3-178.226 735.693   4
  11  14   6 2007.58 904.149   3
  25 -14   6 1200.77 1366.27   3
  14 -25   6 2663.01 1411.12   3
 -14 -11   6 1209.15 737.041   4
  12  13  -7 2120.71 1459.66   1
  25 -13  -7 5774.95 1692.22   3
 -12  25  -7 2182.22 946.410   1
  25 -13  -7 4439.29 1224.86   1
 -13 -12  -7 4204.39 1373.61   2
  13 -25  -7 2112.00 1163.55   4
 -13 -12  -7 2519.15 1143.01   4
  25 -13  -7 738.109 1037.92   2
  13 -25  -7 3264.34 1696.50   2
  25 -13  -4 2111.64 1415.33   3
 -12  25  -4 2857.46 928.865   1
  25 -13  -4 3176.48 935.369   1
  12  13  -4 4787.28 1499.29   1
 -13 -12  -4 2487.55 1056.88   2
  25 -13  -4 5006.83 1147.67   2
  13 -25  -4 1041.39 1151.19   4
 -13 -12  -4 4323.46 1146.21   4
  13 -25  -4 5660.89 1585.79   2
  12  13  -1 2402.28 1164.03   1
  25 -13  -1 4719.75 1556.74   3
 -13 -12  -1 2990.13 917.766   2
  13 -25  -1 3579.06 990.771   3
 -12  25  -1 3809.69 959.857   1
  25 -13  -1 3519.99 744.452   1
  13 -25  -1 4612.76 1246.12   4
  13 -25  -1 2289.61 1205.13   2
 -13 -12  -1 2251.95 932.107   4
  12  13   2 12451.5 1609.40   3
 -13 -12   2 10428.1 861.664   2
  25 -13   2 9050.39 1814.25   3
  13 -25   2 9660.47 1503.01   3
  13 -25   2 10578.2 1370.73   4
  13 -25   2 9329.67 1416.35   2
 -13 -12   2 9813.40 1091.69   4
  12  13   2 11896.5 1534.70   1
  12  13   5 2867.18 1117.54   3
  25 -13   5 3149.64 1452.58   3
  13 -25   5 6032.99 1526.07   3
 -13 -12   5 4059.61 869.077   4
  25 -12  -5 3288.23 1580.98   3
  13  12  -5 3575.56 1377.02   1
  25 -12  -5 5141.46 1110.44   1
 -12 -13  -5 4764.38 1357.46   2
  12 -25  -5 3938.88 1188.52   4
  25 -12  -5 3745.31 1104.67   2
 -12 -13  -5 6518.59 1313.64   4
  12 -25  -5 5227.06 1564.51   2
 -13  25  -5 4768.68 1035.43   1
  25 -12  -2 8326.88 1870.28   3
 -12 -13  -2 10311.9 1409.44   2
  25 -12  -2 8275.80 987.689   1
 -13  25  -2 11376.7 1235.37   1
  12 -25  -2 9486.52 1000.58   3
  12 -25  -2 10372.1 1493.05   4
  12 -25  -2 9869.27 1673.00   2
 -12 -13  -2 8068.59 1233.46   4
  13  12  -2 10139.1 1485.50   1
  25 -12   1 2497.16 1420.91   3
 -12 -13   1 4332.60 813.200   2
  12 -25   1 3976.86 1104.57   3
  12 -25   1 2717.30 1008.90   4
  12 -25   1 3686.85 1170.59   2
 -12 -13   1 2443.53 926.708   4
  13  12   1 2753.57 1102.48   1
  25 -12   1 2641.16 446.833   1
  13  12   4 1980.72 1068.63   1
  13  12   4 3792.13 1243.45   3
  25 -12   4 2238.93 1385.14   3
  12 -25   4 3993.87 1405.62   3
  12 -25   4 2884.75 1082.48   2
 -12 -13   4 3959.20 902.877   4
  13  12   7 1927.99 1024.79   3
  25 -12   7 5981.01 1793.14   3
  12 -25   7 4648.66 1534.44   3
 -12 -13   7 5928.24 1030.21   4
  14  11  -6 3060.33 1415.36   1
  25 -11  -6 762.564 1374.22   3
  25 -11  -6 2050.94 1027.06   1
 -11 -14  -6 527.129 1269.60   2
 -14  25  -6 332.554 830.437   1
  11 -25  -6 2363.84 1127.63   4
  25 -11  -6 739.050 877.284   2
 -11 -14  -6 3725.04 1249.64   4
  11 -25  -6 2100.01 1470.81   2
  25 -11  -3 1906.13 1481.68   3
 -14  25  -3 1548.76 814.217   1
 -11 -14  -3 2189.63 1088.90   2
  14  11  -3-939.167 1301.26   1
  25 -11  -3-304.474 790.644   1
  11 -25  -3 761.774 1075.05   4
 -11 -14  -3 755.773 946.150   4
  11 -25  -3 191.904 1469.05   2
  25 -11   0 164.300 662.370   1
  25 -11   0 2770.85 1502.53   3
 -11 -14   0 1027.56 809.370   2
  14  11   0 543.888 1030.09   1
  11 -25   0 460.613 913.494   3
  11 -25   0 1107.44 1150.82   4
  11 -25   0 2704.46 1284.43   2
 -11 -14   0 751.012 910.991   4
  14  11   3 3675.20 1469.27   3
  25 -11   3 4493.92 1620.53   3
 -11 -14   3 3386.65 573.315   2
  11 -25   3 4771.72 1305.07   3
  11 -25   3 2206.17 1095.79   4
  11 -25   3 3956.91 1250.29   2
 -11 -14   3 3821.66 933.729   4
  14  11   3 5128.65 1286.89   1
  14  11   6-1769.94 1051.84   3
  25 -11   6 677.072 1391.63   3
  11 -25   6 1358.56 1289.25   3
 -11 -14   6 830.790 887.938   4
  10 -25  -7 6525.19 1882.92   2
 -10 -15  -7 9687.87 1840.07   2
 -10 -15  -7 7595.85 1478.65   4
  10 -25  -7 5223.60 1347.12   4
  15  10  -7 7711.81 1748.03   1
  25 -10  -7 7422.79 1402.33   1
 -10 -15  -4 8374.88 1421.17   2
  25 -10  -4 9359.11 1914.19   3
  25 -10  -4 6101.60 1085.04   1
  15  10  -4 6899.38 1677.89   1
  25 -10  -4 6036.82 1067.66   2
  10 -25  -4 6988.37 1356.45   4
 -10 -15  -4 7232.20 1395.50   4
  10 -25  -4 5909.88 1580.21   2
 -15  25  -4 6449.81 984.149   1
 -10 -15  -1 7464.75 1220.35   2
  25 -10  -1 4989.89 1714.81   3
  25 -10  -1 7609.31 972.585   1
  10 -25  -1 6888.78 1010.89   3
  10 -25  -1 7283.00 1442.10   4
  10 -25  -1 6746.00 1624.62   2
 -10 -15  -1 8692.27 1231.81   4
  15  10  -1 6298.46 1292.59   1
  15  10   2 9978.17 1727.75   3
 -10 -15   2 9971.80 943.607   2
  25 -10   2 6026.03 457.703   1
  25 -10   2 10734.4 1893.91   3
  10 -25   2 10008.9 1495.82   3
  10 -25   2 8409.44 1294.79   4
  15  10   2 9581.61 1407.89   1
 -10 -15   2 6577.17 1115.50   4
  10 -25   2 8915.69 1385.83   2
  15  10   5 7013.88 1481.76   3
  25 -10   5 4698.82 1675.31   3
  10 -25   5 4836.06 1476.75   3
  10 -25   5 8525.24 1335.42   2
 -10 -15   5 5688.06 1117.58   4
  25  -9  -5 5558.42 1682.61   3
  16   9  -5 5532.18 1494.29   1
  -9 -16  -5 6601.22 1388.55   2
  25  -9  -5 4445.64 1126.89   1
  -9 -16  -5 6461.68 1386.95   4
   9 -25  -5 4380.78 1233.00   4
  25  -9  -5 4729.85 952.695   2
 -16  25  -5 6720.94 936.434   1
   9 -25  -5 2640.12 1487.08   2
  25  -9  -2 2065.38 1509.31   3
  -9 -16  -2 1401.05 1003.24   2
  16   9  -2 1362.86 1179.81   1
  25  -9  -2 201.734 797.852   1
   9 -25  -2 1133.23 1194.30   4
  -9 -16  -2 1239.62 983.448   4
  16   9   1 5042.24 1509.90   3
  25  -9   1 5810.66 1698.07   3
   9 -25   1 4367.57 1152.73   3
  16   9   1 6306.37 1197.43   1
   9 -25   1 3766.28 1142.20   4
  -9 -16   1 5421.33 1195.27   4
   9 -25   1 4094.79 1409.39   2
  25  -9   1 4394.50 717.056   1
  -9 -16   1 6055.08 1005.21   2
  16   9   4 327.122 1206.83   3
  25  -9   4 535.914 1411.29   3
  -9 -16   4 339.231 413.480   2
   9 -25   4 484.001 1124.05   3
   9 -25   4-1475.24 1097.45   4
  -9 -16   4-527.423 879.524   4
   9 -25   4 1106.12 1045.38   2
  16   9   4 1439.93 1098.28   1
  16   9   7 2546.91 1227.76   3
  25  -9   7 4845.86 1706.85   3
   9 -25   7 2184.09 1372.37   3
   9 -25   7 1573.59 1082.30   2
  -9 -16   7 1979.28 986.350   4
   8 -25  -6 5511.91 1845.34   2
  -8 -17  -6 5193.47 1450.05   2
  25  -8  -6 5241.41 1284.89   1
   8 -25  -6 4193.13 1339.36   4
  -8 -17  -6 4722.70 1320.59   4
  17   8  -6 1871.73 1491.20   1
  -8 -17  -3 8138.72 1374.39   2
  25  -8  -3 6484.21 1734.74   3
  25  -8  -3 7180.52 1185.53   1
  17   8  -3 8707.75 1475.08   1
   8 -25  -3 7848.39 1445.10   4
  -8 -17  -3 8709.59 1420.50   4
   8 -25  -3 11278.6 1887.74   2
  17   8   0 1055.24 971.836   1
  25  -8   0 1217.76 1403.82   3
  -8 -17   0 1423.58 908.484   2
  25  -8   0 1165.98 811.416   1
   8 -25   0 1072.29 870.722   3
   8 -25   0 3037.20 1141.17   4
  -8 -17   0 257.368 975.877   4
   8 -25   0 965.580 1170.49   2
  17   8   3 9894.01 1734.55   3
  25  -8   3 7509.23 1730.48   3
   8 -25   3 10666.0 1583.98   3
   8 -25   3 11433.3 1471.37   4
   8 -25   3 9830.17 1511.26   2
  -8 -17   3 10208.6 1320.07   4
  17   8   3 8227.39 1347.60   1
  -8 -17   3 11216.5 971.017   2
  17   8   6 1039.05 1133.63   3
   8 -25   6 1049.91 1349.50   3
  -8 -17   6 2302.90 1081.90   4
   8 -25   6 1736.22 1133.52   2
  25  -7  -4 6732.35 1731.10   3
  -7 -18  -4 6671.76 1517.74   2
  25  -7  -4 8629.89 1295.94   1
  18   7  -4 10824.2 1604.38   1
  25  -7  -4 7526.20 1014.22   2
   7 -25  -4 8499.39 1454.45   4
  -7 -18  -4 7396.93 1423.20   4
   7 -25  -4 7638.62 1744.38   2
  25  -7  -1 11687.6 1982.24   3
  25  -7  -1 9771.28 1120.05   1
   7 -25  -1 7154.00 1462.96   4
  -7 -18  -1 9500.71 1436.39   4
   7 -25  -1 9723.84 1617.23   2
  18   7  -1 7862.46 1371.56   1
  -7 -18  -1 9370.28 1315.37   2
  18   7   2 4409.91 1624.98   3
  18   7   2 2952.55 1044.28   1
  25  -7   2 3758.02 1539.73   3
   7 -25   2 7224.96 1390.27   3
  25  -7   2 5265.12 739.213   1
   7 -25   2 7324.84 1374.21   4
  -7 -18   2 4007.78 1090.40   4
   7 -25   2 4683.40 1279.11   2
  -7 -18   2 5159.96 976.144   2
  18   7   5-573.757 1225.32   3
  25  -7   5 1101.86 1405.87   3
   7 -25   5 3496.27 1336.63   3
   7 -25   5 4035.65 1262.35   4
  -7 -18   5 1949.49 1072.03   4
   7 -25   5 3844.69 1157.19   2
   6 -25  -5 3096.87 1568.73   2
  -6 -19  -5 2944.03 1384.10   2
  25  -6  -5 2962.25 1093.27   1
   6 -25  -5 2043.76 1189.25   4
  -6 -19  -5 4004.31 1299.43   4
  19   6  -5 4817.32 1423.95   1
  25  -6  -2-438.330 1397.46   3
  -6 -19  -2 2012.63 1179.24   2
  19   6  -2 465.723 1095.84   1
   6 -25  -2 1030.77 1095.76   4
  -6 -19  -2 290.266 1088.56   4
  25  -6  -2 1550.56 1003.22   1
   6 -25  -2 76.3088 1421.43   2
  19   6   1 2072.04 1354.95   3
  -6 -19   1 3130.28 945.035   2
  25  -6   1 3376.29 1799.35   3
  25  -6   1 3192.72 848.802   1
  19   6   1 2164.93 1092.18   1
   6 -25   1 3865.23 1169.93   3
   6 -25   1 2181.03 1175.31   4
  -6 -19   1 2830.45 1123.26   4
   6 -25   1 3876.22 1200.39   2
  -6 -19   4 1122.56 670.094   2
  19   6   4 3160.57 1398.92   3
  25  -6   4 1126.78 1655.13   3
   6 -25   4 1176.03 1133.46   3
   6 -25   4-1276.79 1142.10   4
  -6 -19   4 1856.81 1078.03   4
   6 -25   4 591.770 1102.62   2
  19   6   4 1472.88 942.650   1
   5 -25  -6 5393.92 1848.08   2
  -5 -20  -6 5663.49 1557.10   2
  25  -5  -6 4532.25 1297.31   1
   5 -25  -6 4286.86 1371.59   4
  -5 -20  -6 1837.41 1238.06   4
  20   5  -6 6.25447 1352.04   1
  25  -5  -3 6855.50 1765.12   3
  20   5  -3 6453.89 1472.54   1
  25  -5  -3 10247.7 1406.96   1
   5 -25  -3 10256.5 1581.13   4
  -5 -20  -3 13243.9 1656.94   4
   5 -25  -3 11075.9 1888.33   2
  -5 -20  -3 12223.0 1711.81   2
  20   5   0 6515.61 1773.43   3
  -5 -20   0 7153.39 1250.88   2
  25  -5   0 3717.86 1560.36   3
  -5 -20   0 9306.65 1469.09   4
   5 -25   0 6034.47 1350.57   4
  25  -5   0 9136.92 1177.67   1
   5 -25   0 7337.21 1526.92   2
  20   5   0 7014.47 1328.89   1
  20   5   3 15934.2 2149.45   3
  25  -5   3 12807.6 2133.03   3
  25  -5   3 13975.7 1072.76   1
   5 -25   3 15482.8 1786.09   3
   5 -25   3 12511.5 1649.40   4
  -5 -20   3 14774.0 1701.08   4
   5 -25   3 18496.8 1757.33   2
  -5 -20   3 12950.6 1201.73   2
  20   5   3 10875.2 1410.33   1
  20   5   6-1493.05 1456.28   3
  25  -5   6 2453.44 1558.73   3
   5 -25   6 523.589 1233.31   3
   5 -25   6 1892.94 1154.37   4
  -5 -20   6 2537.14 1139.89   4
   5 -25   6 1527.51 986.611   2
   4 -25  -4 2140.27 1448.12   2
  21   4  -4 2292.36 1234.96   1
  -4 -21  -4 5739.75 1424.03   2
  25  -4  -4 3215.61 1164.27   1
   4 -25  -4 6010.15 1414.63   4
  -4 -21  -4 4146.87 1366.16   4
  -4 -21  -1 1170.44 1103.71   2
  25  -4  -1 3087.62 1721.96   3
  25  -4  -1 2230.52 1019.23   1
  21   4  -1 275.423 1046.77   1
   4 -25  -1 786.712 1133.30   4
  -4 -21  -1 878.339 1111.23   4
   4 -25  -1 2425.45 1397.44   2
  -4 -21   2 4140.53 1080.98   2
  25  -4   2 3157.19 899.521   1
  21   4   2 5588.79 1723.15   3
  21   4   2 3168.55 1056.92   1
  25  -4   2 5802.36 1780.01   3
   4 -25   2 8845.08 1525.37   4
  -4 -21   2 3072.25 1191.95   4
   4 -25   2 4170.80 1248.11   2
  21   4   5 807.635 1280.61   3
  25  -4   5 1757.16 1583.20   3
   4 -25   5 1917.83 1349.75   3
   4 -25   5 1632.16 1186.62   4
  -4 -21   5 1998.03 1137.47   4
   4 -25   5 2794.97 1127.75   2
   3 -25  -5-1823.49 1603.18   2
  -3 -22  -5 1333.56 1313.44   2
  25  -3  -5 3808.90 1292.60   1
   3 -25  -5 3423.30 1352.19   4
  -3 -22  -5 96.5412 1257.23   4
  22   3  -5 243.622 1248.14   1
  25  -3  -2-415.118 1620.53   3
  -3 -22  -2 401.000 1112.05   2
  25  -3  -2 2236.63 1016.43   1
  22   3  -2 787.772 1101.31   1
   3 -25  -2-673.664 1275.95   4
  -3 -22  -2-617.136 1151.54   4
   3 -25  -2 1794.31 1389.77   2
  -3 -22   1 1273.83 1022.23   2
  22   3   1 1836.11 1457.27   3
  25  -3   1 692.326 1526.90   3
  25  -3   1 2071.95 918.664   1
  22   3   1-447.532 953.979   1
   3 -25   1-1023.96 1258.28   4
  -3 -22   1-639.218 1040.97   4
   3 -25   1-1515.34 1266.44   2
  22   3   4 507.816 1391.46   3
  25  -3   4 1441.37 1466.70   3
  22   3   4 466.326 896.782   1
   3 -25   4 509.190 1156.33   4
  -3 -22   4-898.739 1064.76   4
   3 -25   4 2178.76 1043.64   2
  -3 -22   4 1156.26 850.517   2
  25  -2  -3 8297.47 1964.86   3
  25  -2  -3 14365.7 1598.97   1
  23   2  -3 9995.18 1614.03   1
   2 -25  -3 10068.7 1557.25   4
  -2 -23  -3 9159.34 1546.91   4
   2 -25  -3 15698.0 2044.11   2
  -2 -23  -3 14838.6 1884.08   2
  -2 -23   0 6162.96 1354.91   2
  23   2   0 1456.13 1531.92   3
  25  -2   0 6843.28 2009.40   3
   2 -25   0 3536.86 1322.79   4
  -2 -23   0 3424.78 1320.51   4
  25  -2   0 4841.60 1197.49   1
   2 -25   0 2158.16 1306.54   2
  23   2   0 5034.75 1169.03   1
  23   2   3 12397.3 1421.98   1
  23   2   3 12589.0 2164.34   3
  25  -2   3 12933.1 2169.47   3
  25  -2   3 12295.3 1246.79   1
   2 -25   3 13670.7 1715.82   4
  -2 -23   3 11367.2 1567.52   4
   2 -25   3 11971.8 1503.32   2
  -2 -23   3 12638.3 1413.51   2
  24   1  -4 2743.81 1277.35   1
   1 -25  -4-1417.26 1389.51   2
  -1 -24  -4 1269.15 1442.75   2
   1 -25  -4-967.302 1197.14   4
  -1 -24  -4-1954.20 1247.23   4
  25  -1  -4 754.745 1221.66   1
  -1 -24  -1 574.756 1327.42   2
  24   1  -1 107.175 1524.35   3
  25  -1  -1 526.056 1633.28   3
  25  -1  -1 3505.82 1148.29   1
  24   1  -1 2096.22 1071.20   1
   1 -25  -1 2906.31 1295.78   4
  -1 -24  -1 1422.31 1124.80   4
   1 -25  -1 1788.74 1231.24   2
  24   1   2 4831.63 1697.95   3
  25  -1   2 3727.54 1734.63   3
  24   1   2 3647.74 1087.83   1
  25  -1   2 2916.23 1005.80   1
   1 -25   2 1953.45 1230.62   4
  -1 -24   2 384.851 1101.03   4
   1 -25   2 1591.93 1216.48   2
  -1 -24   2 1958.09 1138.29   2
  24   1   5 1314.13 1508.21   3
  25  -1   5 707.856 1472.26   3
   1 -25   5 1439.65 1237.87   4
  -1 -24   5 3957.40 1327.65   4
   1 -25   5 1502.51 984.335   2
  -1 -24   5 873.608 881.337   2
   0 -25  -2 4833.62 1518.85   2
  25   0  -2 3146.65 1841.86   3
  25   0  -2 6698.44 1383.33   1
   0 -25  -2 3237.49 1310.57   4
  25   0   1 1665.68 1793.23   3
  25   0   1 325.795 909.318   1
   0 -25   1-85.2392 1249.90   4
   0 -25   1-1324.37 1326.69   2
  25   0   4 6580.33 1890.40   3
   0 -25   4 4677.55 1357.51   4
   0 -25   4 3538.03 1169.38   2
   0  26  -2 1553.33 1150.69   1
  26 -26  -2 3173.15 1462.56   3
  26 -26  -2 3072.66 1223.67   4
  26 -26  -2 805.429 1290.35   2
  26 -26  -2 2559.09 842.494   1
 -26   0  -2 1575.53 792.508   4
  26 -26   1 2009.25 1459.97   3
   0  26   1 1234.15 1210.01   1
  26 -26   1-774.652 1051.84   4
  26 -25  -3 13850.5 1943.21   3
  25 -26  -3 12059.4 1762.51   3
   1  25  -3 12575.9 1648.04   1
  -1  26  -3 9526.55 1563.57   1
 -25  -1  -3 14965.2 1609.14   2
  26 -25  -3 12155.1 1805.54   2
  26 -25  -3 12791.1 1288.45   1
  25 -26  -3 10109.5 1762.19   2
  25 -26  -3 9561.67 1390.95   4
  26 -25  -3 9721.78 1341.45   4
 -25  -1  -3 12073.2 1338.99   4
 -26   1  -3 11951.8 1345.66   4
  26 -25   0 3030.56 1399.74   3
  25 -26   0 1833.54 1347.62   3
   1  25   0 4523.12 1350.79   1
  26 -25   0 1758.08 1063.53   4
  25 -26   0 2584.56 1182.23   4
  25 -26   0 1055.32 1219.21   2
  -1  26   0 866.948 1074.73   1
 -25  -1   0 109.908 580.216   4
 -26   1   0 511.790 583.379   4
  26 -25   3 10638.7 2012.87   3
  25 -26   3 9338.07 1855.91   3
   1  25   3 8410.63 1620.62   1
   2  24  -4 837.607 1237.38   1
  26 -24  -4-1647.41 1222.16   3
  24 -26  -4 852.358 1120.09   3
  -2  26  -4 2039.11 1280.54   1
 -24  -2  -4 2384.17 1075.73   2
  24 -26  -4 559.864 990.814   4
  26 -24  -4 2094.28 1456.92   2
  24 -26  -4-756.254 1292.98   2
  26 -24  -4 2801.91 1069.80   1
 -24  -2  -4 54.3219 926.903   4
 -26   2  -4-140.723 902.120   4
   2  24  -1 1215.49 1190.67   1
  26 -24  -1 1223.43 1365.45   3
  24 -26  -1-475.297 1352.84   3
  -2  26  -1 919.280 1129.85   1
  26 -24  -1 3145.98 1077.45   4
  24 -26  -1-535.355 1082.01   4
  26 -24  -1 627.719 1218.57   2
  24 -26  -1 1612.21 1150.98   2
  26 -24  -1 1952.77 602.215   1
 -24  -2  -1 2072.83 738.488   4
 -26   2  -1 286.044 597.117   4
  26 -24   2 578.560 1316.66   3
  24 -26   2 3200.09 1410.10   3
   2  24   2 588.308 1173.77   1
  -2  26   2 2139.44 1185.75   1
  26 -23  -5 2366.89 1366.92   3
  -3  26  -5 1706.55 1161.62   1
 -23  -3  -5 712.421 1034.42   2
  23 -26  -5 1229.52 1023.26   4
  26 -23  -5 3365.29 1464.41   2
  23 -26  -5 3265.39 1475.69   2
   3  23  -5 981.989 1328.05   1
  26 -23  -5 3917.35 1113.12   1
 -23  -3  -5 2683.12 1089.86   4
 -26   3  -5 1920.72 979.004   4
  -3  26  -2 2757.38 1130.61   1
  26 -23  -2 4936.98 1578.17   3
  23 -26  -2 7524.86 1537.35   3
 -23  -3  -2 4749.41 1073.71   2
   3  23  -2 5599.23 1334.53   1
  26 -23  -2 2379.44 1005.96   4
  23 -26  -2 3431.98 1192.44   4
  26 -23  -2 5136.85 1414.84   2
  23 -26  -2 1368.45 1277.02   2
  26 -23  -2 3181.38 760.674   1
 -23  -3  -2 3272.96 889.946   4
 -26   3  -2 2765.16 830.346   4
  26 -23   1 1402.57 1396.13   3
  23 -26   1 3448.34 1430.26   3
  23 -26   1 4074.29 1167.10   4
  -3  26   1 1731.91 1196.84   1
   3  23   1 2591.10 1207.86   1
 -23  -3   1 1529.62 605.890   4
  26 -23   4 953.527 1385.66   3
  23 -26   4 1241.88 1334.33   3
  26 -22  -3 9112.70 1665.00   3
  22 -26  -3 10856.2 1484.67   3
   4  22  -3 6623.63 1400.73   1
  -4  26  -3 10464.0 1508.89   1
 -22  -4  -3 10340.6 1384.84   2
  26 -22  -3 9934.32 1652.06   2
  26 -22  -3 6999.50 1067.28   4
  26 -22  -3 8577.54 1078.13   1
  22 -26  -3 6516.92 1253.80   4
  22 -26  -3 6065.53 1605.40   2
 -22  -4  -3 7311.92 1171.64   4
 -26   4  -3 9405.44 1114.31   4
  -4  26   0 1104.26 1088.98   1
  26 -22   0 663.063 1316.82   3
   4  22   0 877.802 1127.18   1
  22 -26   0 2795.33 1342.70   3
  26 -22   0 4219.40 1071.46   4
  22 -26   0 3067.86 1122.48   4
  22 -26   0 1294.34 1216.42   2
 -22  -4   0 2679.72 786.137   4
   4  22   3 6070.49 1028.85   3
  26 -22   3 12499.9 2033.30   3
  22 -26   3 10764.3 1949.56   3
   4  22   3 10981.4 1651.65   1
  26 -21  -4 1407.36 1391.80   3
  21 -26  -4 108.970 882.891   3
 -21  -5  -4 3002.22 1222.37   2
  -5  26  -4-784.878 1048.11   1
  21 -26  -4 1546.85 1124.49   4
  26 -21  -4 1455.27 1275.85   2
  21 -26  -4 2138.88 1456.04   2
   5  21  -4-1269.31 1179.42   1
 -21  -5  -4 1141.74 939.668   4
  26 -21  -4 2090.62 972.796   1
 -26   5  -4 102.842 790.406   4
  26 -21  -1 796.738 536.424   1
  26 -21  -1 799.127 1258.65   3
  21 -26  -1-1424.34 1234.40   3
 -21  -5  -1 831.506 798.642   2
  -5  26  -1 1537.10 1043.97   1
  26 -21  -1 2428.74 920.613   4
  21 -26  -1-471.880 1103.07   4
  21 -26  -1-281.534 1096.07   2
   5  21  -1 2227.09 1235.86   1
 -21  -5  -1 69.2912 697.471   4
   5  21   2 1749.78 1142.69   1
  26 -21   2 3097.76 1359.33   3
  21 -26   2 1947.52 1256.90   3
 -21  -5   2 450.322 515.197   4
  26 -21   5 2323.96 1597.90   3
  21 -26   5-906.627 1299.86   3
  -6  26  -5 6260.86 1357.33   1
  26 -20  -5 3965.87 1489.45   3
 -20  -6  -5 7025.41 1371.78   2
   6  20  -5 4434.43 1397.31   1
  20 -26  -5 2764.34 1203.76   4
  26 -20  -5 4040.49 1349.33   2
  20 -26  -5 2146.17 1453.32   2
 -20  -6  -5 4630.31 1249.15   4
  26 -20  -5 2575.38 929.506   1
 -26   6  -5 5508.14 1131.96   4
  26 -20  -2 3953.66 1435.31   3
   6  20  -2 3697.94 1320.74   1
  -6  26  -2 2366.49 1117.36   1
  20 -26  -2 4001.86 1227.79   3
 -20  -6  -2 4266.32 1055.89   2
  26 -20  -2 5934.21 974.699   4
  26 -20  -2 3245.63 1338.97   2
  20 -26  -2 6115.03 1320.80   4
  20 -26  -2 5028.72 1445.03   2
  26 -20  -2 4767.74 769.621   1
 -20  -6  -2 5012.42 962.977   4
  26 -20   1 6452.98 1602.48   3
  20 -26   1 6318.93 1448.25   3
  20 -26   1 6418.96 1283.67   4
  -6  26   1 6916.43 1290.38   1
  20 -26   1 3487.64 1332.71   2
   6  20   1 7854.49 1386.90   1
 -20  -6   1 4601.64 779.835   4
   6  20   4 1951.96 809.863   3
  26 -20   4 3740.85 1602.12   3
  20 -26   4 2860.38 1402.59   3
   6  20   4 4981.56 1322.36   1
  -7  26  -6 2421.47 1184.89   1
  26 -19  -6 3164.72 1386.39   3
   7  19  -6 7133.61 1695.22   1
 -19  -7  -6 2790.46 1290.33   2
  19 -26  -6 3061.89 1166.97   4
  26 -19  -6 3787.48 1378.02   2
  19 -26  -6 4476.89 1704.50   2
 -19  -7  -6 3963.65 1318.94   4
  26 -19  -6 2952.95 1165.71   1
 -26   7  -6 3388.07 1116.03   4
  -7  26  -3 6661.25 1217.45   1
  26 -19  -3 6589.14 1653.98   3
  19 -26  -3 5952.79 1107.48   3
 -19  -7  -3 6996.93 1220.71   2
  19 -26  -3 5965.00 1367.01   4
  19 -26  -3 8209.20 1655.00   2
  26 -19  -3 6289.54 1390.00   2
  26 -19  -3 5311.40 795.586   4
  26 -19  -3 6741.09 928.644   1
 -19  -7  -3 7548.56 1185.15   4
   7  19  -3 7694.54 1520.94   1
  26 -19   0 3993.22 467.381   1
  26 -19   0 5048.86 1496.13   3
 -19  -7   0 6961.68 940.930   2
   7  19   0 7151.07 1397.89   1
  19 -26   0 6853.40 1415.50   3
  -7  26   0 5660.82 1235.60   1
  19 -26   0 7941.22 1325.96   4
  19 -26   0 4966.00 1324.08   2
 -19  -7   0 6057.22 940.760   4
   7  19   3 6639.07 1191.28   3
  26 -19   3 10183.1 1848.13   3
  19 -26   3 8211.56 1650.60   3
   7  19   3 8578.44 1521.03   1
 -19  -7   3 7322.97 803.211   4
  26 -19   6-1038.85 1401.26   3
  19 -26   6-1575.17 1486.70   3
  26 -18  -4 1494.00 807.972   1
  26 -18  -4 4047.58 1541.83   3
 -18  -8  -4 1602.26 1026.72   2
   8  18  -4-708.487 1323.09   1
  26 -18  -4 2462.03 1158.35   2
  18 -26  -4 1211.60 1039.71   4
  -8  26  -4 930.792 996.077   1
  18 -26  -4 2701.24 1379.74   2
 -18  -8  -4-580.747 887.716   4
  -8  26  -1 4696.41 1162.84   1
  26 -18  -1 5166.84 1562.07   3
  26 -18  -1 4048.86 649.919   1
  18 -26  -1 4497.06 1288.74   3
   8  18  -1 4647.95 1308.04   1
 -18  -8  -1 3552.03 928.320   2
  26 -18  -1 3372.70 855.540   4
  18 -26  -1 6529.00 1274.98   4
  18 -26  -1 4658.07 1354.37   2
 -18  -8  -1 4933.68 992.275   4
  26 -18   2 2717.48 1664.45   3
  18 -26   2 3280.23 1256.18   3
  18 -26   2 536.891 1141.63   4
  18 -26   2-233.439 1076.21   2
   8  18   2 2833.97 1169.40   1
 -18  -8   2 3604.79 756.058   4
  26 -18   5 484.603 1392.98   3
  18 -26   5 1444.94 1333.82   3
  26 -17  -5 4267.20 1011.16   1
  26 -17  -5 4252.44 1587.82   3
 -17  -9  -5 7141.57 1429.89   2
   9  17  -5 2197.80 1378.14   1
  -9  26  -5 6276.87 1180.70   1
  17 -26  -5 1922.47 1094.80   4
  26 -17  -5 5290.03 1252.53   2
  17 -26  -5 6142.53 1606.25   2
 -17  -9  -5 3818.74 1262.66   4
   9  17  -2 5951.03 1404.88   1
  26 -17  -2 2606.75 1403.68   3
  26 -17  -2 4363.05 752.356   1
 -17  -9  -2 7306.44 1209.53   2
  17 -26  -2 2891.87 957.390   3
  -9  26  -2 5340.50 1130.28   1
  26 -17  -2 4958.22 755.243   4
  17 -26  -2 5620.98 1321.29   4
  17 -26  -2 6064.71 1542.00   2
 -17  -9  -2 6139.27 1085.99   4
  26 -17   1 9390.61 1779.56   3
  17 -26   1 9440.91 1569.00   3
 -17  -9   1 10382.5 967.858   2
   9  17   1 10925.8 1531.54   1
  17 -26   1 10055.2 1406.62   4
  17 -26   1 10832.7 1578.41   2
 -17  -9   1 11142.4 1088.96   4
   9  17   4 2743.29 959.060   3
  26 -17   4 2624.59 1562.36   3
  17 -26   4 2083.45 1356.66   3
 -17  -9   4 2322.05 695.732   4
   9  17   4 2759.32 1261.48   1
  26 -16  -6 4691.76 1178.96   1
  26 -16  -6 3667.87 1527.07   3
 -10  26  -6 4143.69 1173.96   1
 -16 -10  -6 2624.86 1241.79   2
  10  16  -6 7626.93 1818.89   1
  16 -26  -6 3030.06 1246.72   4
  26 -16  -6 2291.25 1159.06   2
 -16 -10  -6 486.607 1132.62   4
  16 -26  -6 1242.90 1477.22   2
  26 -16  -3 3389.59 1519.06   3
  26 -16  -3 4453.64 856.431   1
 -10  26  -3 1721.14 951.019   1
 -16 -10  -3 2847.31 1086.85   2
  16 -26  -3 2231.28 759.272   3
  26 -16  -3 3707.25 1127.07   2
  10  16  -3 3794.63 1374.05   1
  16 -26  -3 1582.83 1192.84   4
  16 -26  -3 119.094 1422.57   2
 -16 -10  -3 614.821 904.930   4
 -10  26   0 3455.21 1046.62   1
  26 -16   0 3240.18 1520.88   3
 -16 -10   0 6002.86 955.305   2
  16 -26   0 3259.99 1179.77   3
  16 -26   0 4372.51 1222.85   4
  10  16   0 3280.61 1158.89   1
  16 -26   0 4039.28 1227.37   2
  26 -16   0 2676.87 516.706   1
 -16 -10   0 3148.65 896.835   4
  10  16   3 3492.67 1108.99   3
  26 -16   3 2266.04 1641.51   3
  10  16   3 5572.55 1388.19   1
  16 -26   3 3766.05 1370.30   3
  16 -26   3 2084.85 1017.53   4
  16 -26   3 2195.59 1133.63   2
 -16 -10   3 3812.39 824.912   4
  26 -16   6 6236.09 1848.94   3
  16 -26   6 4481.23 1568.98   3
  26 -15  -4-681.468 1318.81   3
 -11  26  -4 2331.62 1010.10   1
  26 -15  -4 504.402 805.445   1
 -15 -11  -4 2738.39 1159.06   2
  11  15  -4 592.339 1245.62   1
  26 -15  -4 2731.22 1161.20   2
  15 -26  -4 3606.98 1250.49   4
  15 -26  -4 1798.78 1399.27   2
 -15 -11  -4 129.922 955.789   4
  11  15  -1 7567.97 1393.08   1
  26 -15  -1 8818.78 1930.58   3
  26 -15  -1 7217.19 816.545   1
 -15 -11  -1 8116.56 1180.56   2
  15 -26  -1 9715.42 1255.07   3
 -11  26  -1 9735.29 1298.51   1
  15 -26  -1 8846.09 1464.00   4
  15 -26  -1 8224.82 1492.86   2
 -15 -11  -1 6129.31 1052.22   4
  15 -26   2 384.795 1199.52   3
 -15 -11   2 898.922 525.420   2
  11  15   2-206.174 1031.78   1
  15 -26   2-575.046 1162.55   4
  15 -26   2 2561.73 1204.26   2
 -15 -11   2 1290.04 792.453   4
  11  15   5 3853.80 1116.38   3
  26 -15   5 6943.00 1860.04   3
  15 -26   5 6844.64 1626.66   3
 -15 -11   5 5382.13 858.634   4
  26 -14  -5 6168.81 1649.02   3
 -14 -12  -5 11606.7 1618.50   2
  12  14  -5 8211.20 1715.01   1
 -12  26  -5 9562.57 1259.23   1
  26 -14  -5 7961.47 1256.71   2
  14 -26  -5 8417.54 1469.96   4
  14 -26  -5 9565.61 1820.18   2
 -14 -12  -5 9924.42 1449.88   4
  26 -14  -5 9069.78 1242.84   1
  26 -14  -2 2423.00 1584.43   3
 -12  26  -2 3454.59 1023.02   1
 -14 -12  -2 2301.66 1009.28   2
  26 -14  -2 2593.83 717.735   1
  14 -26  -2 2182.37 805.950   3
  26 -14  -2 1498.71 399.257   4
  14 -26  -2 3465.28 1199.61   4
  12  14  -2 1643.91 1127.05   1
  14 -26  -2 744.979 1186.76   2
 -14 -12  -2 238.022 879.432   4
 -14 -12   1 8354.58 947.413   2
  26 -14   1 7611.35 1798.49   3
  14 -26   1 11578.6 1527.22   3
  12  14   1 8981.17 1406.26   1
  14 -26   1 8652.74 1384.26   4
  14 -26   1 8711.54 1492.61   2
 -14 -12   1 8184.79 1075.13   4
  12  14   4 693.799 1074.71   3
  26 -14   4 1255.34 1461.65   3
  12  14   4-1507.42 1105.20   1
  14 -26   4-107.822 1178.82   3
  14 -26   4 2340.16 1190.83   2
 -14 -12   4 1372.96 797.534   4
  26 -13  -6 3993.81 1696.25   3
  13  13  -6 4171.68 1611.76   1
  26 -13  -6 3591.36 1166.67   1
 -13 -13  -6 5940.31 1440.23   2
 -13  26  -6 2275.62 933.417   1
  13 -26  -6 2958.57 1298.05   4
  26 -13  -6 3668.10 1115.83   2
 -13 -13  -6 3883.88 1240.34   4
  13 -26  -6 4477.79 1708.28   2
  26 -13  -3-343.897 1422.13   3
 -13 -13  -3 992.890 991.413   2
  26 -13  -3 1133.30 739.038   1
  13  13  -3-308.168 1264.33   1
  13 -26  -3 695.470 476.788   3
  26 -13  -3-68.8445 977.110   2
  13 -26  -3 1669.79 1117.08   4
 -13 -13  -3 458.673 913.416   4
  13 -26  -3 1620.87 1345.60   2
 -13  26  -3 985.306 889.481   1
  26 -13   0 2663.88 672.999   1
  26 -13   0 1239.79 1431.56   3
 -13 -13   0 2863.22 937.047   2
  13  13   0 1650.37 1172.41   1
  13 -26   0 3621.62 1101.92   3
  13 -26   0 3048.72 1149.19   4
  13 -26   0 3274.91 1221.86   2
 -13 -13   0 2657.21 940.608   4
  13  13   3 1260.50 1102.65   1
  13  13   3 1050.46 1134.17   3
  26 -13   3-775.085 1367.40   3
 -13 -13   3 567.330 370.177   2
  13 -26   3 1414.17 1233.45   3
  13 -26   3 778.642 1069.04   4
  13 -26   3-237.396 1052.28   2
 -13 -13   3-649.656 803.376   4
  13  13   6 3807.60 1128.85   3
  26 -13   6 2143.60 1615.74   3
  13 -26   6 3538.50 1482.56   3
 -13 -13   6 3839.65 955.503   4
  26 -12  -4 1252.03 1460.45   3
 -12 -14  -4 913.253 1087.42   2
  14  12  -4 315.185 1346.64   1
  26 -12  -4 254.994 845.965   1
 -14  26  -4 188.384 812.428   1
  26 -12  -4-869.241 959.998   2
  12 -26  -4 905.143 1152.24   4
 -12 -14  -4 130.737 935.268   4
  12 -26  -4 1316.72 1482.52   2
 -12 -14  -1 9917.81 1255.53   2
  26 -12  -1 6638.72 1873.30   3
  26 -12  -1 7121.72 907.627   1
  12 -26  -1 9778.33 1173.58   3
  12 -26  -1 10814.5 1523.14   4
  12 -26  -1 11387.6 1659.73   2
 -12 -14  -1 8944.82 1264.55   4
  14  12  -1 10152.6 1463.50   1
  14  12   2 2131.88 1358.18   3
  26 -12   2 3253.07 1509.69   3
 -12 -14   2 2213.48 655.356   2
  14  12   2 2662.17 1162.51   1
  12 -26   2 3697.74 1234.97   3
  12 -26   2 3397.76 1106.24   4
  12 -26   2 3966.09 1199.69   2
 -12 -14   2 3769.07 968.690   4
  26 -12   5 9626.46 2002.57   3
  14  12   5 7349.27 1418.50   3
  12 -26   5 9915.59 1848.90   3
  12 -26   5 5452.93 1223.52   2
 -12 -14   5 6289.40 1034.81   4
  26 -11  -5 8235.40 1265.58   1
  26 -11  -5 3900.72 1700.45   3
 -11 -15  -5 9065.80 1647.19   2
  15  11  -5 6606.58 1614.10   1
  26 -11  -5 7646.81 1167.28   2
 -15  26  -5 6281.61 1039.69   1
  11 -26  -5 7264.93 1372.49   4
 -11 -15  -5 9822.26 1524.01   4
  11 -26  -5 6408.37 1784.00   2
  26 -11  -2-1310.11 1429.23   3
 -11 -15  -2-347.580 999.342   2
  11 -26  -2 443.700 659.258   3
  15  11  -2 3091.36 1186.31   1
  26 -11  -2-508.642 798.290   1
  11 -26  -2-1546.07 1158.25   4
 -11 -15  -2-774.201 1057.93   4
  11 -26  -2 2532.95 1468.52   2
  26 -11   1 6326.35 650.064   1
 -11 -15   1 9598.57 1079.70   2
  26 -11   1 10859.0 1884.09   3
  11 -26   1 9833.44 1445.24   3
  11 -26   1 6498.10 1283.84   4
  11 -26   1 9371.61 1441.79   2
 -11 -15   1 8763.32 1222.74   4
  15  11   1 5424.38 1289.93   1
  15  11   4 2382.08 1282.18   3
  26 -11   4 1221.09 1465.27   3
  11 -26   4 2889.07 1397.47   3
  11 -26   4 1465.96 1147.19   4
  11 -26   4 3151.79 1205.36   2
 -11 -15   4 1515.54 891.029   4
  15  11   4 365.502 1100.57   1
  16  10  -6 1870.91 1398.76   1
  26 -10  -6 1362.60 1454.98   3
 -16  26  -6 4346.46 904.007   1
 -10 -16  -6 2842.01 1343.25   2
  26 -10  -6 4816.60 1234.88   1
  10 -26  -6 4876.41 1391.61   4
 -10 -16  -6 4392.37 1452.43   4
  10 -26  -6-518.201 1445.08   2
  26 -10  -3 5036.82 1825.86   3
 -10 -16  -3 4000.54 1248.67   2
  16  10  -3 3324.01 1354.55   1
  26 -10  -3 3036.07 969.140   1
  10 -26  -3 3804.98 1247.80   4
 -10 -16  -3 2836.52 1129.32   4
  10 -26  -3 3056.94 1506.44   2
 -16  26  -3 2800.50 835.757   1
  26 -10   0 5710.12 1791.14   3
 -10 -16   0 4881.19 1041.24   2
  16  10   0 5061.92 1234.87   1
  10 -26   0 6421.58 1206.94   3
  26 -10   0 4981.70 873.353   1
  10 -26   0 5520.40 1349.41   4
 -10 -16   0 3201.47 1042.56   4
  10 -26   0 4213.39 1308.60   2
  16  10   3 1060.32 1327.73   3
  26 -10   3 370.092 1393.79   3
 -10 -16   3 1075.79 623.010   2
  10 -26   3 3517.57 1361.61   3
  10 -26   3 535.853 1057.06   4
 -10 -16   3 2769.11 930.572   4
  10 -26   3 989.599 1032.96   2
  16  10   3 430.187 1072.57   1
  16  10   6 3172.92 1243.25   3
  26 -10   6 3896.48 1699.54   3
  10 -26   6 3545.14 1444.16   3
  10 -26   6 3468.45 1130.65   2
 -10 -16   6 2560.32 975.362   4
  26  -9  -4 3071.16 1504.47   3
  17   9  -4 4060.61 1384.57   1
  -9 -17  -4 1562.06 1188.13   2
 -17  26  -4 5026.68 844.604   1
  26  -9  -4 3577.89 1039.06   1
  26  -9  -4 2688.70 924.792   2
   9 -26  -4 5616.45 1403.94   4
  -9 -17  -4 3515.65 1283.24   4
   9 -26  -4 3081.54 1692.96   2
  26  -9  -1 9785.98 1967.86   3
  26  -9  -1 9895.41 1144.51   1
   9 -26  -1 11159.1 1172.79   3
   9 -26  -1 10907.8 1719.08   2
  -9 -17  -1 11996.3 1400.29   4
   9 -26  -1 8735.15 1434.03   4
  17   9  -1 10256.0 1542.17   1
  -9 -17  -1 9748.58 1316.58   2
  17   9   2 7102.29 1619.04   3
  26  -9   2 3792.94 1602.98   3
  17   9   2 7426.80 1273.19   1
   9 -26   2 4751.42 1231.28   3
   9 -26   2 4474.91 1226.13   4
  -9 -17   2 5293.13 1167.74   4
   9 -26   2 4969.69 1307.45   2
  26  -9   2 4928.66 573.812   1
  -9 -17   2 5547.97 896.789   2
  17   9   5 5915.87 1466.92   3
  26  -9   5 6664.78 1900.31   3
   9 -26   5 6477.06 1539.61   3
   9 -26   5 6677.24 1370.81   4
  -9 -17   5 5615.81 1159.82   4
   9 -26   5 6012.76 1256.12   2
  26  -8  -5 309.498 1402.07   3
  18   8  -5 355.305 1390.24   1
  -8 -18  -5 5856.59 1403.64   2
  26  -8  -5 381.071 977.071   1
   8 -26  -5 1190.00 1137.97   4
  -8 -18  -5 1005.73 1066.52   4
   8 -26  -5 2533.97 1590.51   2
  26  -8  -2 2852.76 1572.22   3
  -8 -18  -2 3333.74 1225.87   2
  18   8  -2 1580.03 1256.05   1
   8 -26  -2 2809.14 1289.86   4
  -8 -18  -2-312.133 992.512   4
  26  -8  -2 2736.28 957.490   1
   8 -26  -2 3562.43 1454.27   2
  18   8   1 4584.45 1544.34   3
  26  -8   1 5745.33 1793.14   3
  26  -8   1 3316.63 767.615   1
   8 -26   1 6035.02 1286.78   3
   8 -26   1 4236.63 1217.26   4
  18   8   1 5149.57 1204.22   1
  -8 -18   1 5931.74 1203.80   4
   8 -26   1 4031.17 1304.50   2
  -8 -18   1 6918.69 1074.13   2
  18   8   4-1669.32 1437.10   3
  -8 -18   4 1142.17 553.842   2
  26  -8   4 662.823 1477.44   3
   8 -26   4 97.9401 1130.80   3
   8 -26   4 2201.06 1121.95   4
  -8 -18   4 2306.74 1104.85   4
   8 -26   4 1860.12 1098.20   2
  18   8   4 260.599 1032.48   1
   7 -26  -6 1000.16 1566.42   2
  -7 -19  -6 688.800 1235.41   2
  26  -7  -6 1033.78 1108.56   1
   7 -26  -6 16.1526 1092.31   4
  -7 -19  -6 1942.12 1233.25   4
  19   7  -6 1432.62 1423.27   1
  26  -7  -3 8586.46 1996.77   3
  26  -7  -3 8910.42 1256.29   1
  19   7  -3 5957.75 1456.07   1
   7 -26  -3 8323.94 1575.83   4
  -7 -19  -3 8017.31 1435.45   4
   7 -26  -3 7908.36 1743.70   2
  -7 -19  -3 11043.2 1595.11   2
  26  -7   0 8903.17 2005.07   3
  19   7   0 4745.06 1281.77   1
   7 -26   0 4221.77 1329.87   4
  26  -7   0 6023.95 1015.65   1
  -7 -19   0 5614.47 1252.49   4
   7 -26   0 7306.52 1486.88   2
  -7 -19   0 8709.11 1263.51   2
  19   7   3 6792.64 1715.73   3
  26  -7   3 8192.06 1990.53   3
   7 -26   3 3824.57 1294.46   3
  -7 -19   3 7686.46 1325.10   4
   7 -26   3 6843.50 1352.03   4
   7 -26   3 5493.27 1373.61   2
  -7 -19   3 5852.43 897.908   2
  19   7   3 9040.15 1374.54   1
  19   7   6 3319.60 1419.36   3
  26  -7   6 2966.72 1667.65   3
   7 -26   6 3815.02 1433.81   3
   7 -26   6 3325.07 1273.13   4
  -7 -19   6 1169.39 1059.61   4
   7 -26   6 2643.38 1106.91   2
  26  -6  -4 3876.19 1694.48   3
  20   6  -4 4794.97 1421.92   1
  -6 -20  -4 4432.96 1329.16   2
  26  -6  -4 3057.10 1093.97   1
   6 -26  -4 1981.62 1231.64   4
  -6 -20  -4 4290.14 1300.12   4
   6 -26  -4 4982.90 1646.21   2
  26  -6  -1 7953.18 2090.35   3
  26  -6  -1 4169.74 1049.13   1
   6 -26  -1 8156.05 1522.82   4
   6 -26  -1 7848.48 1662.11   2
  -6 -20  -1 6143.30 1296.61   4
  20   6  -1 8901.58 1452.83   1
  -6 -20  -1 7662.52 1347.70   2
  20   6   2 6077.35 1738.20   3
  26  -6   2 8388.33 1970.90   3
  20   6   2 5272.65 1194.24   1
  26  -6   2 5119.81 839.628   1
   6 -26   2 5444.27 1312.11   3
   6 -26   2 8053.01 1539.15   2
   6 -26   2 5009.02 1258.45   4
  -6 -20   2 3471.52 1164.95   4
  -6 -20   2 5947.26 1096.71   2
  20   6   5 4103.43 1486.58   3
  26  -6   5 2787.31 1794.04   3
   6 -26   5 4819.82 1493.61   3
   6 -26   5 3296.91 1222.09   4
  -6 -20   5 2497.56 1145.94   4
   6 -26   5 2776.50 1111.25   2
  21   5  -5 1850.90 1347.82   1
   5 -26  -5 2680.09 1700.89   2
  -5 -21  -5 3404.81 1434.32   2
  26  -5  -5 1514.94 1178.58   1
   5 -26  -5-21.2564 1155.40   4
  -5 -21  -5 116.624 1121.33   4
  26  -5  -2 3625.67 1128.51   1
  26  -5  -2 4662.17 1898.46   3
  -5 -21  -2 2060.22 1197.08   2
  21   5  -2 1093.17 1178.70   1
   5 -26  -2 5288.89 1378.78   4
  -5 -21  -2 2677.63 1214.41   4
   5 -26  -2 3042.62 1474.95   2
  -5 -21   1 1341.07 971.350   2
  21   5   1 441.688 1416.86   3
  26  -5   1 1872.32 1567.57   3
  26  -5   1-517.592 817.914   1
  21   5   1 1988.48 1083.74   1
   5 -26   1-1679.13 1311.16   4
  -5 -21   1 81.3185 1003.26   4
   5 -26   1 1002.51 1255.97   2
  21   5   4 1700.26 1107.11   1
  -5 -21   4-64.9118 755.266   2
  21   5   4-748.982 1494.52   3
  26  -5   4 4697.32 1796.99   3
   5 -26   4 1767.75 1299.68   3
   5 -26   4 1378.96 1146.75   4
  -5 -21   4-118.370 1011.13   4
   5 -26   4 3780.27 1199.97   2
  26  -4  -3 4695.16 1793.96   3
  26  -4  -3 10669.3 1426.85   1
  22   4  -3 10992.3 1649.87   1
   4 -26  -3 8982.86 1539.00   4
  -4 -22  -3 10652.9 1663.71   4
  -4 -22  -3 11249.8 1611.40   2
   4 -26  -3 11278.0 1784.15   2
  -4 -22   0 3321.01 1185.46   2
  22   4   0 3407.02 1704.81   3
  22   4   0 2332.58 1110.63   1
  26  -4   0 3172.37 1639.76   3
   4 -26   0 2539.57 1257.92   4
  26  -4   0 4131.64 1077.62   1
  -4 -22   0 4745.22 1307.00   4
   4 -26   0 6093.56 1568.33   2
  -4 -22   3 6092.81 1066.37   2
  22   4   3 8636.79 1988.71   3
  26  -4   3 9089.17 2070.62   3
  26  -4   3 6337.83 949.995   1
   4 -26   3 9877.03 1566.87   4
  -4 -22   3 9342.66 1511.33   4
   4 -26   3 7949.22 1434.33   2
  22   4   3 9661.87 1387.61   1
   3 -26  -4 3294.21 1574.52   2
  23   3  -4 958.518 1315.11   1
  -3 -23  -4 1203.70 1402.83   2
   3 -26  -4-533.621 1144.46   4
  -3 -23  -4-141.556 1156.52   4
  26  -3  -4 3689.64 1256.66   1
  -3 -23  -1 2147.54 1131.05   2
  23   3  -1 1528.37 1585.35   3
  26  -3  -1 1833.70 1614.89   3
  26  -3  -1 2205.34 1084.83   1
  23   3  -1 2551.82 1182.87   1
   3 -26  -1 954.612 1264.18   4
  -3 -23  -1 2496.22 1258.83   4
   3 -26  -1 3724.20 1420.19   2
  23   3   2-409.902 1453.52   3
  26  -3   2 3076.67 1684.44   3
  23   3   2 1254.60 979.752   1
  26  -3   2 4327.03 975.891   1
   3 -26   2 2777.29 1225.70   4
  -3 -23   2 1938.38 1166.98   4
   3 -26   2 410.215 1151.62   2
  -3 -23   2 4863.35 1189.47   2
  23   3   5 1077.80 1515.66   3
  26  -3   5-294.478 1639.47   3
   3 -26   5 4020.39 1346.29   4
  -3 -23   5 618.187 1210.13   4
   3 -26   5 964.901 1008.03   2
  24   2  -2-977.089 1509.57   3
  -2 -24  -2 54.6907 1226.08   2
  26  -2  -2 726.497 1533.11   3
  26  -2  -2 2150.80 1123.12   1
  24   2  -2 4761.50 1281.67   1
   2 -26  -2 2913.80 1388.99   4
  -2 -24  -2 3822.38 1374.62   4
   2 -26  -2 5305.16 1554.65   2
  24   2   1 2552.50 1682.65   3
  26  -2   1 1007.62 1629.49   3
  26  -2   1 734.142 900.694   1
  24   2   1 1850.13 1062.08   1
   2 -26   1 2824.37 1377.71   4
  -2 -24   1-273.941 1054.42   4
   2 -26   1 1114.38 1246.02   2
  -2 -24   1 3921.75 1253.27   2
  26  -2   4 974.753 1627.35   3
   2 -26   4 108.006 1320.92   4
  -2 -24   4 2922.41 1295.75   4
  24   2   4 4002.28 1174.35   1
   2 -26   4 3002.51 1185.36   2
  -2 -24   4 1826.84 1010.60   2
   1 -26  -3 9620.42 1776.65   2
  26  -1  -3 9673.39 2155.93   3
  25   1  -3 7975.64 1459.81   1
  26  -1  -3 8136.23 1499.72   1
   1 -26  -3 8572.16 1623.82   4
  -1 -25  -3 7613.88 1610.66   4
  -1 -25  -3 13610.3 1902.39   2
  25   1   0 1314.60 1033.87   1
  25   1   0 3923.84 2009.49   3
  26  -1   0 4336.62 1866.91   3
   1 -26   0 622.361 1180.29   4
  -1 -25   0 1220.15 1280.11   4
  26  -1   0 4549.49 1156.82   1
   1 -26   0 941.062 1263.61   2
  -1 -25   0 147.919 1146.97   2
  25   1   3 13823.9 2400.40   3
  26  -1   3 13422.5 2424.71   3
  25   1   3 10841.7 1408.41   1
  26  -1   3 12823.9 1381.83   1
   1 -26   3 12421.9 1739.65   4
  -1 -25   3 10232.6 1590.84   4
   1 -26   3 13173.3 1601.01   2
  -1 -25   3 12117.9 1446.94   2
   0 -26  -1-245.705 1248.43   2
  26   0  -1 481.215 1575.13   3
  26   0  -1 2550.10 1176.42   1
   0 -26  -1-41.6431 1117.98   4
  26   0   2 1847.18 1033.60   1
   0 -26   2 51.2762 1118.48   2
  27 -27   0 7347.65 1854.75   3
  27 -27   0 6952.32 1366.20   4
  27 -27   0 4772.25 1671.23   2
   0  27   0 5784.43 1416.22   1
  27 -26  -1 4557.42 1570.89   3
  26 -27  -1 5626.04 1657.24   3
  -1  27  -1 7192.81 1493.26   1
  27 -26  -1 5305.64 1269.67   4
  26 -27  -1 5927.28 1348.05   4
  27 -26  -1 3409.02 1377.23   2
   1  26  -1 9779.66 1549.54   1
  26 -27  -1 3306.62 1414.50   2
 -26  -1  -1 3539.44 853.110   4
 -27   1  -1 4566.34 830.515   4
   1  26   2 2713.68 1371.95   1
  27 -26   2 3403.24 1512.65   3
  26 -27   2 3012.13 1557.67   3
  -1  27   2 3140.77 1302.29   1
  -2  27  -2 836.419 1131.93   1
  27 -25  -2 1315.96 1316.09   3
  25 -27  -2-1656.28 1331.10   3
  27 -25  -2 288.233 974.545   4
  25 -27  -2 271.836 1074.55   4
  27 -25  -2-244.138 1285.84   2
  25 -27  -2-1044.95 1255.95   2
  27 -25  -2 131.895 669.025   1
   2  25  -2-2135.82 1231.17   1
 -25  -2  -2 1423.86 833.748   4
 -27   2  -2 961.197 738.726   4
   2  25   1 1305.98 1198.36   1
  27 -25   1 2463.06 1474.40   3
  25 -27   1 2931.64 1452.83   3
  -2  27   1 404.012 1219.57   1
  27 -25   1 390.983 1028.79   4
  25 -27   1 905.505 1096.12   4
  27 -24  -3 1551.43 1318.85   3
  24 -27  -3-983.926 1274.32   3
   3  24  -3-924.836 1219.71   1
 -24  -3  -3-324.273 1015.46   2
  24 -27  -3 55.3144 1129.16   4
  27 -24  -3 135.664 905.892   4
  27 -24  -3 1485.16 1333.98   2
  24 -27  -3-1471.01 1348.10   2
  27 -24  -3 907.210 750.102   1
 -24  -3  -3-204.248 830.019   4
  -3  27  -3 534.758 1122.02   1
 -27   3  -3-166.139 744.137   4
  -3  27   0 11518.8 1612.08   1
  27 -24   0 9774.41 1866.35   3
  24 -27   0 9921.24 1772.72   3
  27 -24   0 6133.83 1240.99   4
  24 -27   0 7295.69 1341.94   4
  24 -27   0 7949.65 1594.36   2
   3  24   0 8618.57 1497.01   1
 -24  -3   0 7474.12 900.103   4
   3  24   3 963.002 1141.44   1
  27 -24   3 3102.42 1576.62   3
  24 -27   3 502.471 1371.18   3
   4  23  -4 2045.26 1339.58   1
  27 -23  -4 909.414 1269.16   3
 -23  -4  -4 6.90219 984.149   2
  -4  27  -4 42.9704 1078.42   1
  23 -27  -4-909.887 1132.26   4
  27 -23  -4-1053.42 1273.07   2
  23 -27  -4-551.031 1501.81   2
  27 -23  -4-1238.27 880.313   1
 -23  -4  -4 1823.20 1005.94   4
 -27   4  -4 1424.83 888.402   4
   4  23  -1 3681.44 1240.18   1
  27 -23  -1 2400.70 1460.88   3
  23 -27  -1 392.771 1185.89   3
 -23  -4  -1 3309.48 916.083   2
  -4  27  -1 2614.82 1159.45   1
  27 -23  -1 2443.27 997.554   4
  27 -23  -1 4758.04 1483.21   2
  23 -27  -1 1974.37 1110.61   4
  23 -27  -1 2716.26 1308.48   2
 -23  -4  -1 2280.25 773.251   4
  27 -23   2 1657.05 1486.48   3
  23 -27   2 2474.82 1505.57   3
   4  23   2-1853.41 1224.73   1
  -4  27   2 350.067 987.844   1
  23 -27   2 635.845 1054.39   4
  27 -22  -2 2502.69 702.775   1
  27 -22  -2 2797.07 1507.13   3
  -5  27  -2 2486.38 1188.53   1
  22 -27  -2 4074.58 1324.99   3
   5  22  -2 2921.60 1266.48   1
 -22  -5  -2 3245.26 1000.76   2
  27 -22  -2 2692.88 1371.89   2
  27 -22  -2 4568.88 1025.57   4
  22 -27  -2 529.775 1122.06   4
  22 -27  -2 1857.74 1234.59   2
 -22  -5  -2 3301.88 951.955   4
 -27   5  -2 2399.48 754.391   4
  27 -22   1 6389.08 1690.06   3
  22 -27   1 5337.74 1473.18   3
  -5  27   1 4418.21 1259.21   1
   5  22   1 2759.87 1127.59   1
  22 -27   1 4940.18 1315.50   4
  22 -27   1 3663.07 1355.23   2
 -22  -5   1 3606.85 729.091   4
  27 -22   4-384.178 1352.79   3
  22 -27   4 28.2407 1385.28   3
  27 -21  -3 2280.96 775.784   1
  -6  27  -3 2006.63 1129.45   1
   6  21  -3 1370.90 1223.49   1
  27 -21  -3 2265.09 1446.99   3
  21 -27  -3 664.772 995.686   3
 -21  -6  -3 2176.50 1048.53   2
  27 -21  -3 3335.40 1279.29   2
  21 -27  -3 2075.03 1129.17   4
  21 -27  -3 2504.32 1408.78   2
 -21  -6  -3 294.751 925.682   4
  27 -21   0 15795.4 2066.97   3
  21 -27   0 23571.4 2143.02   3
  -6  27   0 18985.5 1856.14   1
 -21  -6   0 20080.0 1418.09   2
   6  21   0 16906.6 1812.10   1
  27 -21   0 22169.5 1575.76   4
  21 -27   0 20127.4 1812.28   4
  21 -27   0 21087.8 1987.53   2
 -21  -6   0 18911.5 1319.31   4
   6  21   3-169.484 870.614   3
  27 -21   3-111.339 1405.99   3
  21 -27   3 329.554 1198.63   3
   6  21   3 887.954 1149.21   1
  27 -20  -4-1090.89 868.296   1
  27 -20  -4 1194.65 1411.29   3
 -20  -7  -4 1793.26 1186.05   2
  20 -27  -4 556.944 1058.06   4
  27 -20  -4-235.338 1187.55   2
   7  20  -4 2197.48 1302.21   1
  20 -27  -4 3171.19 1570.33   2
  -7  27  -4-2195.38 1046.57   1
 -20  -7  -4-57.0585 908.782   4
  27 -20  -1 1718.73 1547.85   3
  27 -20  -1 1178.05 545.646   1
  20 -27  -1 2001.20 1206.29   3
 -20  -7  -1 806.637 828.748   2
  27 -20  -1 1611.45 847.856   4
  20 -27  -1 4529.72 1281.12   4
   7  20  -1 1049.17 1072.80   1
  20 -27  -1 44.2272 1275.21   2
 -20  -7  -1 1617.88 751.356   4
  -7  27  -1 618.356 1032.68   1
  27 -20   2 1442.74 1441.53   3
  20 -27   2 1581.23 1352.68   3
  20 -27   2 3491.15 1201.68   4
  20 -27   2 3028.34 1208.26   2
 -20  -7   2 1547.31 649.087   4
   7  20   2 1054.45 1063.87   1
  27 -20   5 4096.66 1631.84   3
  20 -27   5 1269.66 1423.00   3
  27 -19  -5 407.740 881.387   1
  27 -19  -5-60.2756 1322.50   3
 -19  -8  -5 2732.71 1252.50   2
   8  19  -5 1261.09 1399.48   1
  -8  27  -5 3806.52 1193.64   1
  19 -27  -5 2627.00 1201.80   4
  27 -19  -5 3054.91 1269.08   2
  19 -27  -5 3027.57 1586.76   2
 -19  -8  -5 3311.69 1125.42   4
  27 -19  -2 3280.83 1653.74   3
  27 -19  -2 2752.10 716.559   1
   8  19  -2 4013.51 1376.17   1
  19 -27  -2 2967.23 1014.27   3
 -19  -8  -2 2250.85 980.369   2
  -8  27  -2 5032.17 1233.44   1
  27 -19  -2 2917.68 1297.10   2
  27 -19  -2 3148.39 811.462   4
  19 -27  -2 3022.80 1209.20   4
  19 -27  -2 1764.66 1270.12   2
 -19  -8  -2 1989.03 889.155   4
  27 -19   1 5142.46 1610.08   3
   8  19   1 1512.63 1166.63   1
  19 -27   1 3544.32 1346.39   3
 -19  -8   1 2406.40 659.874   2
  19 -27   1 2156.20 1196.24   4
  19 -27   1 2543.41 1268.63   2
 -19  -8   1 3187.36 781.971   4
   8  19   4 4431.26 1047.26   3
  27 -19   4 5228.27 1718.18   3
  19 -27   4 6048.96 1595.03   3
   8  19   4 6414.49 1469.71   1
  27 -18  -3-1385.95 1375.50   3
  27 -18  -3 377.288 697.305   1
  -9  27  -3 1416.90 945.946   1
  18 -27  -3 1729.18 903.571   3
 -18  -9  -3 619.146 953.115   2
  27 -18  -3-876.731 1092.76   2
  18 -27  -3-214.753 1084.22   4
  18 -27  -3-107.318 1239.30   2
   9  18  -3 518.134 1163.89   1
 -18  -9  -3 635.757 879.288   4
  27 -18   0 6680.12 1725.39   3
  18 -27   0 8338.94 1469.52   3
 -18  -9   0 6302.97 1005.45   2
  -9  27   0 5831.42 1245.90   1
  18 -27   0 2885.54 1197.15   4
  18 -27   0 6174.10 1399.33   2
 -18  -9   0 4882.88 983.594   4
   9  18   0 6771.14 1395.01   1
   9  18   3 1059.54 939.801   3
  27 -18   3-904.530 1378.53   3
  18 -27   3 307.483 1236.61   3
   9  18   3-282.971 1161.02   1
  18 -27   3-341.865 1022.68   4
 -18  -9   3 172.349 609.770   4
 -10  27  -4 4933.14 1112.53   1
  27 -17  -4 6846.82 1685.73   3
 -17 -10  -4 7118.32 1353.36   2
  10  17  -4 3210.35 1403.76   1
  27 -17  -4 6426.45 1371.58   2
  17 -27  -4 3332.88 1232.44   4
  17 -27  -4 6155.81 1680.64   2
  27 -17  -4 5094.30 1003.43   1
 -17 -10  -4 6233.26 1293.93   4
  27 -17  -1 509.706 1369.97   3
  10  17  -1 83.4212 1149.89   1
  17 -27  -1 902.064 994.894   3
 -17 -10  -1 1456.39 864.473   2
  27 -17  -1 390.682 594.596   1
 -10  27  -1-1601.37 1044.34   1
  27 -17  -1-80.6275 649.466   4
  17 -27  -1 1740.82 1068.38   4
  17 -27  -1 1664.18 1276.55   2
 -17 -10  -1 1037.81 852.946   4
  27 -17   2 3326.64 1650.86   3
  17 -27   2 2305.58 1247.42   3
 -17 -10   2 2292.69 545.479   2
  10  17   2 20.0627 1115.44   1
  17 -27   2 374.288 1024.87   4
  17 -27   2 4140.31 1264.39   2
 -17 -10   2 1100.03 725.374   4
  10  17   5-310.929 860.759   3
  27 -17   5 2790.06 1420.46   3
  17 -27   5 561.680 1434.17   3
 -17 -10   5 891.920 660.689   4
  27 -16  -5 41.1804 1461.60   3
  27 -16  -5 4425.30 1040.18   1
  11  16  -5 5662.75 1588.93   1
 -16 -11  -5 4506.07 1295.68   2
  16 -27  -5 3860.01 1262.74   4
  27 -16  -5 3469.72 1233.86   2
 -16 -11  -5 4788.98 1251.08   4
  16 -27  -5 5851.05 1721.71   2
 -11  27  -5 2502.01 1110.70   1
 -11  27  -2 7431.54 1210.74   1
  27 -16  -2 3299.97 1722.80   3
 -16 -11  -2 7433.47 1206.50   2
  27 -16  -2 4228.33 791.621   1
  16 -27  -2 5790.65 1043.94   3
  16 -27  -2 6095.73 1363.03   4
 -16 -11  -2 6472.80 1171.75   4
  16 -27  -2 7529.50 1539.91   2
  11  16  -2 5341.73 1443.83   1
  27 -16   1 5305.08 1641.45   3
 -16 -11   1 6701.94 857.216   2
  16 -27   1 5333.78 1347.32   3
  11  16   1 9472.23 1498.92   1
  16 -27   1 7016.67 1299.12   4
  16 -27   1 3916.63 1225.67   2
 -16 -11   1 6214.89 990.934   4
  11  16   4 1694.69 1079.03   3
  27 -16   4 5999.22 1786.96   3
  16 -27   4 4304.63 1499.41   3
  11  16   4 6286.36 1427.50   1
 -16 -11   4 3770.12 816.050   4
  27 -15  -6-1357.51 1491.17   3
  27 -15  -6 587.096 936.863   1
  12  15  -6-1955.46 1581.43   1
 -15 -12  -6 9.30603 1108.04   2
 -12  27  -6 494.810 895.916   1
  15 -27  -6-999.738 1170.54   4
  27 -15  -6-418.290 1036.98   2
 -15 -12  -6-537.328 1142.43   4
  15 -27  -6 3585.44 1611.13   2
  27 -15  -3 3209.07 1651.40   3
  27 -15  -3 2416.43 806.144   1
 -15 -12  -3 2768.71 1104.33   2
  27 -15  -3 7078.40 1277.97   2
  12  15  -3 2595.57 1290.52   1
  15 -27  -3 4218.37 1321.33   4
 -12  27  -3 3463.40 996.411   1
  15 -27  -3 5698.49 1552.02   2
 -15 -12  -3 3447.70 1059.58   4
  27 -15   0 95.7353 501.020   1
  27 -15   0 1660.82 1387.68   3
 -15 -12   0-405.969 724.185   2
  15 -27   0 676.307 989.223   3
  12  15   0 588.838 1145.56   1
  15 -27   0 2476.90 1114.52   4
  15 -27   0-1922.56 1277.21   2
 -15 -12   0 2243.45 927.622   4
  12  15   3 479.227 1076.89   3
  12  15   3 41.2187 1133.04   1
  27 -15   3 1380.11 1471.62   3
  15 -27   3-512.124 1148.01   3
  15 -27   3 1347.50 1149.48   4
  15 -27   3 66.4262 1096.63   2
 -15 -12   3 419.111 758.561   4
  27 -15   6 2649.70 1572.62   3
  15 -27   6 2111.15 1552.83   3
 -15 -12   6 1927.55 781.597   4
  27 -14  -4 6618.71 1075.38   1
  27 -14  -4 4601.84 1672.05   3
 -14 -13  -4 8771.17 1524.54   2
  13  14  -4 2538.68 1452.33   1
  27 -14  -4 6965.51 1310.63   2
  14 -27  -4 6437.41 1447.44   4
 -13  27  -4 6721.17 1159.21   1
 -14 -13  -4 7879.09 1471.95   4
  14 -27  -4 8253.92 1788.01   2
 -14 -13  -1 10201.5 1251.99   2
  27 -14  -1 6104.07 1825.34   3
  13  14  -1 7071.08 1415.91   1
  27 -14  -1 8458.98 904.274   1
  14 -27  -1 10075.5 1267.84   3
  14 -27  -1 10462.1 1519.82   4
 -14 -13  -1 8962.72 1264.81   4
  14 -27  -1 8943.47 1549.36   2
  13  14   2 7166.53 1539.25   3
  27 -14   2 4654.08 1551.32   3
 -14 -13   2 4263.04 709.800   2
  13  14   2 6016.01 1301.43   1
  14 -27   2 4035.33 1272.86   3
  14 -27   2 5461.17 1288.00   4
  14 -27   2 5380.79 1396.76   2
 -14 -13   2 3365.03 910.751   4
  13  14   5 2944.24 1162.40   3
  27 -14   5 6421.51 1812.55   3
  14 -27   5 4951.97 1612.25   3
  14 -27   5 3306.86 1256.38   2
 -14 -13   5 3284.68 902.507   4
  27 -13  -5 808.183 1515.13   3
  14  13  -5 3227.44 1592.49   1
 -14  27  -5 3158.62 996.677   1
  27 -13  -5 2498.30 1002.82   1
 -13 -14  -5 4722.29 1408.39   2
  27 -13  -5 3380.47 1143.29   2
  13 -27  -5 4960.99 1316.97   4
 -13 -14  -5 5963.86 1346.89   4
  13 -27  -5 4999.77 1723.97   2
  27 -13  -2 4824.19 1715.58   3
 -13 -14  -2 3937.82 1067.57   2
  13 -27  -2 3149.83 802.381   3
  27 -13  -2 3682.41 836.746   1
  13 -27  -2 2510.78 1154.57   4
 -14  27  -2 6077.01 1097.38   1
  14  13  -2 5762.24 1445.39   1
 -13 -14  -2 4623.48 1164.81   4
  13 -27  -2 4206.45 1461.06   2
 -13 -14   1 9431.08 1053.99   2
  27 -13   1 8810.04 1933.71   3
  14  13   1 10837.8 1544.82   1
  13 -27   1 6098.70 1284.28   3
  13 -27   1 8691.15 1493.80   2
  13 -27   1 6519.16 1371.58   4
 -13 -14   1 7541.87 1105.77   4
  14  13   4 6224.91 1442.49   3
  14  13   4 6282.50 1418.23   1
  27 -13   4 4624.94 1670.00   3
  13 -27   4 5850.84 1536.92   3
  13 -27   4 8074.47 1381.36   4
 -13 -14   4 7010.69 1037.98   4
  13 -27   4 4419.30 1234.01   2
  27 -12  -6 3225.68 1729.35   3
  15  12  -6 5525.63 1728.55   1
 -15  27  -6 597.497 852.775   1
  27 -12  -6 3901.34 1189.11   1
 -12 -15  -6 2661.27 1272.38   2
  12 -27  -6 3965.91 1299.52   4
 -12 -15  -6 3911.91 1388.00   4
  12 -27  -6 659.975 1498.18   2
  27 -12  -3-830.435 1513.28   3
 -12 -15  -3-945.214 1113.76   2
  27 -12  -3-951.602 845.589   1
  15  12  -3 2571.37 1267.43   1
  12 -27  -3-801.111 1166.18   4
 -15  27  -3 460.203 831.749   1
 -12 -15  -3-839.443 1025.38   4
  12 -27  -3-1611.00 1404.92   2
  27 -12   0 698.320 1426.03   3
  27 -12   0 1453.64 690.028   1
 -12 -15   0 168.783 859.984   2
  15  12   0-35.9973 1043.81   1
  12 -27   0 1552.49 932.778   3
  12 -27   0 1507.81 1237.33   4
 -12 -15   0 273.749 866.929   4
  12 -27   0-1890.13 1261.61   2
  15  12   3 6068.74 1510.22   3
  27 -12   3 1842.94 1598.85   3
 -12 -15   3 3066.41 561.309   2
  12 -27   3 4764.56 1365.71   3
  12 -27   3 4260.21 1189.67   4
  12 -27   3 1276.73 1140.79   2
 -12 -15   3 1684.25 885.486   4
  15  12   3 4622.98 1233.25   1
  15  12   6 1540.45 1143.41   3
  27 -12   6 692.590 1453.14   3
  12 -27   6 1515.85 1402.44   3
  12 -27   6 151.356 1073.12   2
 -12 -15   6-22.1712 893.539   4
  27 -11  -4 1824.63 1625.60   3
 -11 -16  -4 5250.84 1341.95   2
  16  11  -4 6470.16 1612.03   1
  27 -11  -4 2714.94 988.354   1
 -16  27  -4 3971.61 962.978   1
  27 -11  -4 3574.23 1056.75   2
  11 -27  -4 6164.37 1511.88   4
 -11 -16  -4 4749.49 1290.79   4
  11 -27  -4 8188.83 1763.38   2
 -11 -16  -1 4839.18 1145.24   2
  11 -27  -1 5594.13 1055.62   3
  11 -27  -1 5555.77 1407.45   4
 -11 -16  -1 3975.30 1094.87   4
  11 -27  -1 6313.61 1553.56   2
  27 -11  -1 5210.56 950.422   1
  16  11  -1 6189.72 1380.67   1
  16  11   2 4589.55 1506.92   3
  27 -11   2 8357.74 1934.52   3
 -11 -16   2 4036.76 820.230   2
  16  11   2 6817.08 1351.21   1
  11 -27   2 6000.88 1454.18   3
  11 -27   2 4545.38 1192.76   4
 -11 -16   2 4412.90 1071.80   4
  11 -27   2 5687.85 1371.79   2
  16  11   5 3551.70 1301.02   3
  27 -11   5 7438.00 1860.05   3
  11 -27   5 5383.75 1471.64   3
  11 -27   5 3327.46 1250.11   4
  11 -27   5 4058.54 1304.01   2
 -11 -16   5 4789.34 1078.11   4
  27 -10  -5 594.042 1575.02   3
  17  10  -5 1126.22 1408.85   1
 -17  27  -5 430.588 734.203   1
 -10 -17  -5 631.056 1192.56   2
  27 -10  -5-625.855 992.215   1
  10 -27  -5 1573.62 1199.48   4
 -10 -17  -5 448.179 1057.53   4
  10 -27  -5 1356.88 1508.39   2
  27 -10  -2 215.690 1524.72   3
 -10 -17  -2 3407.81 1139.57   2
  17  10  -2 1061.33 1140.20   1
  10 -27  -2 2721.71 1174.63   4
  27 -10  -2-493.199 853.048   1
 -10 -17  -2 1903.80 1165.55   4
  10 -27  -2 1240.35 1438.08   2
  17  10   1-2062.93 1417.96   3
  27 -10   1 1193.19 1586.25   3
 -10 -17   1-209.194 780.801   2
  27 -10   1-114.352 581.556   1
  10 -27   1-1312.32 1061.49   3
  10 -27   1-369.501 1065.58   4
 -10 -17   1-66.0909 925.920   4
  10 -27   1 2654.88 1222.72   2
  17  10   1-353.575 1063.16   1
  17  10   4 4448.56 1512.78   3
  27 -10   4 5354.56 1649.15   3
  10 -27   4 6906.89 1602.51   3
  10 -27   4 3484.76 1166.54   4
 -10 -17   4 6056.38 1209.62   4
  10 -27   4 5728.58 1307.69   2
  17  10   4 4700.56 1294.33   1
  27  -9  -3-1729.30 1595.77   3
  -9 -18  -3 809.079 1122.66   2
  18   9  -3 616.643 1167.58   1
  27  -9  -3 27.2865 965.117   1
   9 -27  -3-199.246 1223.48   4
  -9 -18  -3 1242.37 1043.66   4
   9 -27  -3-1393.36 1664.57   2
  18   9   0 8619.20 1408.34   1
  27  -9   0 7067.46 1904.31   3
   9 -27   0 7195.34 1183.26   3
   9 -27   0 8656.81 1597.61   2
  -9 -18   0 8088.09 1285.57   4
   9 -27   0 8308.89 1403.54   4
  27  -9   0 8353.75 1068.86   1
  -9 -18   0 7502.50 1192.41   2
  18   9   3 1117.09 1527.46   3
  -9 -18   3 2129.27 698.881   2
  27  -9   3-937.250 1367.95   3
   9 -27   3 2414.92 1196.06   3
   9 -27   3-409.505 1036.63   4
  -9 -18   3-715.565 962.540   4
   9 -27   3 625.317 1149.40   2
  18   9   3 1259.83 1089.28   1
  27  -8  -4 304.201 1536.79   3
  -8 -19  -4 5768.18 1449.44   2
  19   8  -4 3343.03 1531.60   1
  27  -8  -4 4803.68 1155.86   1
  27  -8  -4 1689.10 864.955   2
   8 -27  -4 4997.46 1408.56   4
  -8 -19  -4 3643.59 1305.52   4
   8 -27  -4 5452.57 1643.61   2
  27  -8  -1 5534.04 1796.58   3
  27  -8  -1 1764.94 960.886   1
   8 -27  -1 1756.74 1125.43   4
  -8 -19  -1 1407.24 1108.13   4
  19   8  -1 1742.60 1180.10   1
   8 -27  -1 2278.61 1379.36   2
  -8 -19  -1 6886.18 1255.38   2
  19   8   2 2324.22 1472.44   3
  -8 -19   2 2445.19 874.332   2
  27  -8   2 3984.82 1733.84   3
  19   8   2 2405.94 1090.92   1
   8 -27   2 1924.56 1185.56   3
   8 -27   2 657.130 1147.40   4
  -8 -19   2 3517.70 1195.14   4
   8 -27   2 3516.29 1305.08   2
  19   8   5 229.854 1351.65   3
  27  -8   5-451.502 1574.43   3
   8 -27   5 2184.18 1262.20   3
   8 -27   5 5586.99 1307.53   4
  -8 -19   5 1543.62 1127.94   4
   8 -27   5 2396.92 1207.01   2
  27  -7  -5 270.562 1531.88   3
  20   7  -5 2161.53 1465.93   1
  -7 -20  -5 2258.16 1344.96   2
  27  -7  -5 611.058 1132.32   1
   7 -27  -5 1174.34 1194.62   4
  -7 -20  -5 3228.11 1255.72   4
   7 -27  -5 2072.53 1637.98   2
  27  -7  -2-769.741 1655.36   3
  -7 -20  -2 3747.63 1237.60   2
  20   7  -2 3339.15 1289.44   1
   7 -27  -2 545.378 1228.90   4
  -7 -20  -2 2210.24 1260.36   4
   7 -27  -2 3895.65 1580.39   2
  27  -7  -2-44.5096 920.352   1
  20   7   1 1194.97 1434.66   3
  -7 -20   1 2837.83 969.301   2
  27  -7   1 3442.88 1745.75   3
  27  -7   1 316.067 749.433   1
   7 -27   1 2072.97 1076.33   3
   7 -27   1-602.266 1061.53   4
  20   7   1 3139.95 1171.37   1
  -7 -20   1 2928.59 1176.76   4
   7 -27   1 1167.79 1216.70   2
  20   7   4-144.001 1307.71   3
  27  -7   4 671.122 1659.29   3
   7 -27   4-238.283 1154.72   3
   7 -27   4 780.156 1180.17   4
  -7 -20   4 640.361 1045.01   4
   7 -27   4 1479.12 1149.90   2
  20   7   4 1575.46 1080.34   1
  27  -6  -3 637.065 1563.96   3
  -6 -21  -3-679.166 1257.65   2
  21   6  -3 1242.20 1192.13   1
   6 -27  -3 195.415 1219.79   4
  -6 -21  -3 789.504 1208.67   4
  27  -6  -3-1601.06 1103.19   1
   6 -27  -3 753.234 1438.55   2
  21   6   0 15928.0 2305.12   3
  27  -6   0 14335.7 2397.69   3
  21   6   0 20465.1 1825.48   1
   6 -27   0 15800.5 1803.98   4
  -6 -21   0 20220.1 1869.66   4
   6 -27   0 24810.7 2170.47   2
  27  -6   0 21524.1 1534.34   1
  -6 -21   0 20271.2 1710.32   2
  -6 -21   3-202.712 790.576   2
  21   6   3 2225.06 1688.62   3
  27  -6   3 2892.85 1806.82   3
   6 -27   3 2632.49 1230.71   3
   6 -27   3 1226.48 1252.00   4
  -6 -21   3-404.457 1026.58   4
  21   6   3-248.580 1012.50   1
   6 -27   3 627.790 1123.91   2
  27  -5  -4 1650.84 1741.58   3
  -5 -22  -4-732.126 1250.31   2
  22   5  -4 2178.57 1363.46   1
   5 -27  -4 2845.00 1384.73   4
  -5 -22  -4 1292.37 1223.31   4
  27  -5  -4-113.489 1082.22   1
   5 -27  -4 1874.99 1642.08   2
  27  -5  -1 1268.33 1714.16   3
  -5 -22  -1 3859.87 1241.33   2
  27  -5  -1 5154.35 1140.42   1
   5 -27  -1 1226.67 1153.47   4
  -5 -22  -1 2631.22 1172.59   4
  22   5  -1 4376.50 1284.74   1
   5 -27  -1 4656.81 1565.20   2
  -5 -22   2 756.556 878.001   2
  22   5   2 2789.14 1609.98   3
  27  -5   2 6716.97 1943.68   3
  22   5   2 3634.84 1171.72   1
  27  -5   2 1749.83 823.503   1
   5 -27   2 4407.81 1339.96   4
  -5 -22   2-1285.54 1085.86   4
   5 -27   2 3265.09 1255.75   2
  27  -4  -2 1945.83 1648.89   3
  -4 -23  -2 652.603 1224.44   2
  27  -4  -2 760.777 1017.10   1
  23   4  -2 467.085 1177.88   1
   4 -27  -2-2235.62 1258.01   4
  -4 -23  -2-456.509 1193.28   4
   4 -27  -2-2103.19 1477.08   2
  -4 -23   1-974.379 1155.81   2
  23   4   1 3989.90 1600.93   3
  27  -4   1 1046.53 1680.07   3
  27  -4   1 3005.46 967.138   1
  23   4   1 2401.80 1109.24   1
   4 -27   1 1767.02 1305.33   4
  -4 -23   1 1861.77 1159.70   4
   4 -27   1 2702.33 1360.33   2
  -4 -23   4-500.691 796.273   2
  23   4   4 1570.81 1569.89   3
  27  -4   4 547.417 1737.96   3
  23   4   4-951.569 1023.83   1
   4 -27   4 677.377 1198.10   4
  -4 -23   4-1999.73 1225.20   4
   4 -27   4 509.114 1093.73   2
   3 -27  -3 488.198 1460.76   2
  27  -3  -3 2366.61 1759.29   3
  27  -3  -3 692.471 1156.96   1
  -3 -24  -3 284.829 1376.87   2
  24   3  -3 2341.28 1211.02   1
   3 -27  -3 2270.93 1329.11   4
  -3 -24  -3 3670.58 1330.12   4
  24   3   0 10718.6 2351.88   3
  24   3   0 8692.92 1461.43   1
  27  -3   0 10790.4 2308.75   3
   3 -27   0 5795.25 1449.47   4
  -3 -24   0 6430.19 1412.26   4
  -3 -24   0 9431.59 1501.02   2
  27  -3   0 5829.60 1226.55   1
   3 -27   0 7335.80 1678.74   2
  24   3   3-542.108 1477.46   3
  27  -3   3 3480.75 1899.81   3
   3 -27   3 188.492 1214.97   4
  -3 -24   3 73.5056 1209.96   4
   3 -27   3 39.7927 1133.75   2
  24   3   3 656.423 1047.45   1
  -3 -24   3-575.667 939.860   2
  -2 -25  -1-1500.10 1263.60   2
  25   2  -1 2297.03 1699.37   3
  27  -2  -1 2242.25 1780.40   3
  27  -2  -1 1598.85 1158.60   1
  25   2  -1 597.717 1080.04   1
   2 -27  -1 3243.28 1291.27   4
  -2 -25  -1 162.125 1263.82   4
   2 -27  -1 1433.14 1369.30   2
  25   2   2 4148.94 1742.11   3
  27  -2   2 453.821 1584.31   3
  25   2   2 381.396 1000.29   1
  27  -2   2 372.586 886.592   1
   2 -27   2 1121.47 1217.76   4
  -2 -25   2-474.057 1280.54   4
   2 -27   2 652.812 1214.06   2
  -2 -25   2 1358.09 1088.87   2
   1 -27  -2-68.7664 1255.74   2
  -1 -26  -2 2528.77 1377.46   2
  26   1  -2 1360.92 1660.60   3
  27  -1  -2 1659.55 1787.34   3
  27  -1  -2 2873.05 1254.37   1
  26   1  -2 1315.41 1261.52   1
   1 -27  -2 1184.97 1206.08   4
  -1 -26  -2 614.251 1181.32   4
  26   1   1 5365.95 1927.67   3
  27  -1   1 4360.93 1939.15   3
  27  -1   1 3851.35 1175.85   1
  26   1   1 3125.49 1096.10   1
   1 -27   1 5786.74 1524.39   4
  -1 -26   1 7076.57 1579.59   4
   1 -27   1 4241.04 1488.50   2
  -1 -26   1 3285.46 1225.51   2
  27   0   0 4968.11 2055.04   3
  27   0   0 3761.71 1238.27   1
   0 -27   0 4423.35 1375.83   4
   0 -27   0 4691.36 1447.54   2
  -2  28   0 1385.95 1198.28   1
  28 -26   0 4654.37 1659.04   3
  26 -28   0 4967.84 1676.86   3
   2  26   0 3333.07 1348.00   1
  28 -26   0 3409.08 1203.30   4
  26 -28   0 2351.23 1210.64   4
  28 -26   0 426.196 1362.52   2
  26 -28   0 1854.81 1502.79   2
   3  25  -1-87.0018 1161.44   1
  28 -25  -1-2013.71 1584.61   3
  25 -28  -1 2590.18 1432.44   3
  -3  28  -1-777.765 1095.41   1
  28 -25  -1 237.903 1021.81   4
  28 -25  -1 1596.81 1259.57   2
  25 -28  -1 645.315 1116.63   4
  25 -28  -1 713.353 1260.87   2
 -25  -3  -1-636.137 770.839   4
 -28   3  -1-72.7317 609.467   4
  28 -25   2 2997.36 1565.05   3
  25 -28   2 1722.58 1527.28   3
  -3  28   2 3878.27 1336.82   1
  25 -28   2 1945.34 1226.20   4
   3  25   2 4592.14 1414.12   1
  28 -24  -2 438.894 1404.95   3
  24 -28  -2 2741.80 1369.71   3
  -4  28  -2 1424.28 1074.44   1
 -24  -4  -2 1523.62 956.881   2
  28 -24  -2-1198.50 986.393   4
  28 -24  -2 1155.59 1414.56   2
  24 -28  -2-50.7694 1121.93   4
  24 -28  -2 3348.27 1538.79   2
   4  24  -2 3474.99 1283.42   1
 -24  -4  -2 2163.47 887.262   4
 -28   4  -2 1222.95 674.407   4
  28 -24   1 2072.40 1688.14   3
  -4  28   1-376.430 1086.90   1
  24 -28   1 724.448 1363.62   3
  24 -28   1 112.717 1098.06   4
  24 -28   1 514.892 1190.19   2
   4  24   1 3285.97 1281.58   1
   5  23  -3 9792.98 1616.55   1
  28 -23  -3 7336.53 1792.34   3
  23 -28  -3 8658.88 1455.72   3
 -23  -5  -3 8790.20 1453.33   2
  -5  28  -3 9185.78 1488.09   1
  23 -28  -3 9668.88 1476.60   4
  28 -23  -3 5321.43 1561.59   2
  28 -23  -3 7427.75 1014.47   1
  23 -28  -3 7874.95 1633.29   2
 -23  -5  -3 9859.85 1340.88   4
 -28   5  -3 8215.80 1133.76   4
  28 -23   0 4940.43 1581.28   3
   5  23   0 4481.44 1392.47   1
  23 -28   0 4169.83 1457.00   3
  -5  28   0 2034.22 1161.15   1
  28 -23   0 4701.29 1099.20   4
  23 -28   0 5678.77 1383.52   4
  23 -28   0 2963.82 1240.30   2
 -23  -5   0 3462.23 766.942   4
  23 -28   3 10555.0 1957.60   3
  28 -23   3 10479.0 2049.72   3
   5  23   3 8332.47 1707.24   1
  28 -22  -4 2821.92 919.559   1
  28 -22  -4-856.746 1344.32   3
 -22  -6  -4 3262.47 1341.11   2
  22 -28  -4 1953.66 1167.38   4
  28 -22  -4 835.118 1266.95   2
  22 -28  -4 2998.32 1636.48   2
 -22  -6  -4 5563.44 1309.76   4
  -6  28  -4-485.669 1028.94   1
   6  22  -4 299.525 1229.74   1
 -28   6  -4 822.055 783.024   4
  28 -22  -1-586.373 1381.25   3
  22 -28  -1 305.674 1123.49   3
 -22  -6  -1 384.177 805.765   2
  28 -22  -1-120.221 864.689   4
  22 -28  -1-642.489 1107.26   4
  22 -28  -1 229.528 1123.11   2
 -22  -6  -1 2221.16 854.042   4
   6  22  -1 1548.10 1157.69   1
  -6  28  -1 348.276 1009.39   1
   6  22   2-486.172 1178.28   1
  28 -22   2 3244.27 1559.18   3
  22 -28   2 4898.17 1603.95   3
  22 -28   2 2956.17 1157.88   4
  22 -28   2 750.498 1183.19   2
 -22  -6   2 19.3968 545.655   4
  28 -21  -2 11276.3 2011.88   3
  21 -28  -2 8808.38 1531.83   3
 -21  -7  -2 10278.7 1357.88   2
   7  21  -2 8392.60 1498.62   1
  28 -21  -2 13080.8 1756.53   2
  21 -28  -2 12656.7 1634.36   4
  21 -28  -2 9137.56 1706.39   2
  -7  28  -2 8404.09 1404.88   1
 -21  -7  -2 6725.43 1139.21   4
  28 -21  -2 8750.83 924.331   1
  28 -21   1 330.016 1414.09   3
  -7  28   1 3202.57 1210.55   1
  21 -28   1 2754.96 1376.89   3
   7  21   1 2723.91 1262.44   1
  21 -28   1 1847.26 1229.11   4
  21 -28   1-221.601 1112.89   2
 -21  -7   1 1711.14 708.771   4
  28 -21   4 6220.46 1823.95   3
  21 -28   4 7007.37 1729.92   3
   7  21   4 4747.73 1414.42   1
   8  20  -3 6044.61 1436.57   1
  28 -20  -3 8721.49 1929.46   3
 -20  -8  -3 6769.42 1247.18   2
  28 -20  -3 8263.20 1553.66   2
  -8  28  -3 9430.13 1371.24   1
  20 -28  -3 6855.31 1401.91   4
  20 -28  -3 6801.39 1607.00   2
 -20  -8  -3 6866.01 1244.62   4
  28 -20  -3 8142.09 1013.94   1
   8  20   0 3879.39 1285.06   1
  -8  28   0 5923.18 1247.51   1
  28 -20   0 2593.87 1519.17   3
  20 -28   0 3588.26 1338.37   3
 -20  -8   0 3317.54 847.413   2
  20 -28   0 5215.46 1374.64   4
  20 -28   0 2734.00 1260.67   2
 -20  -8   0 3167.47 855.748   4
   8  20   3 2413.21 1078.31   3
  28 -20   3 5959.28 1899.51   3
  20 -28   3 6489.25 1590.63   3
  20 -28   3 4953.60 1323.34   4
   8  20   3 5294.49 1509.97   1
 -20  -8   3 2548.54 669.661   4
  -9  28  -4 849.073 967.156   1
  28 -19  -4 279.938 820.474   1
  28 -19  -4-17.7673 1409.57   3
 -19  -9  -4 418.140 1036.74   2
  28 -19  -4-437.304 1107.68   2
  19 -28  -4-997.904 1174.69   4
   9  19  -4 1056.40 1305.28   1
  19 -28  -4-1272.85 1448.47   2
 -19  -9  -4 839.075 1015.36   4
  28 -19  -1 2374.90 1572.90   3
  19 -28  -1 2920.71 1246.37   3
 -19  -9  -1 2307.13 893.490   2
  -9  28  -1 2200.22 1058.49   1
   9  19  -1 4719.27 1276.70   1
  28 -19  -1 1692.62 797.850   4
  19 -28  -1 544.313 1099.95   4
  19 -28  -1 1321.97 1366.19   2
 -19  -9  -1 1041.47 870.214   4
  28 -19   2 2441.17 1510.69   3
  19 -28   2 1555.05 1282.37   3
  19 -28   2 48.6360 1125.80   4
  19 -28   2 1467.80 1177.79   2
   9  19   2 288.595 1096.29   1
 -19  -9   2 1624.14 715.453   4
  28 -18  -5 2147.67 1648.91   3
  28 -18  -5 3991.76 1000.83   1
 -18 -10  -5 1141.71 1109.43   2
  10  18  -5 3728.49 1579.78   1
  18 -28  -5 1616.07 1158.42   4
  28 -18  -5 1510.67 1254.43   2
  18 -28  -5 6975.49 1786.21   2
 -18 -10  -5 1107.79 1043.91   4
 -10  28  -5 2671.55 1033.39   1
  28 -18  -2 12529.5 1036.04   1
  10  18  -2 12835.1 1736.66   1
  28 -18  -2 14707.8 2201.85   3
 -10  28  -2 12914.5 1542.40   1
 -18 -10  -2 13655.0 1433.77   2
  18 -28  -2 17246.0 1558.78   3
  18 -28  -2 16396.7 1774.10   4
  18 -28  -2 16606.9 1917.06   2
 -18 -10  -2 11499.2 1393.57   4
  28 -18   1 3112.40 1640.52   3
  10  18   1 4940.18 1306.78   1
  18 -28   1 5072.73 1384.77   3
 -18 -10   1 2469.66 711.933   2
  18 -28   1 2954.47 1173.87   4
  18 -28   1 4528.60 1360.79   2
 -18 -10   1 4432.21 870.655   4
  10  18   4 7409.48 1463.70   1
  10  18   4 4059.23 1149.75   3
  28 -18   4 7785.11 1979.08   3
 -18 -10   4 6127.56 858.833   4
  28 -17  -3 3299.17 1691.88   3
  28 -17  -3 3497.15 842.306   1
 -17 -11  -3 2189.69 1107.46   2
 -11  28  -3 2458.90 1103.18   1
  28 -17  -3 1813.64 1094.27   2
  17 -28  -3 4284.82 1316.27   4
  11  17  -3 4471.14 1366.77   1
  17 -28  -3 4801.52 1587.22   2
 -17 -11  -3 2590.47 1084.65   4
  28 -17   0 2984.09 1709.15   3
  17 -28   0 3727.30 1216.23   3
 -17 -11   0 1740.87 782.712   2
  17 -28   0 2351.56 1209.90   4
  17 -28   0 1859.94 1178.71   2
 -17 -11   0 1493.63 805.319   4
  11  17   0 1437.11 1165.02   1
  11  17   3 426.524 1078.63   3
  28 -17   3 432.428 1394.11   3
  11  17   3 1388.34 1182.23   1
  17 -28   3 2949.68 1365.84   3
  17 -28   3 473.871 999.286   4
  17 -28   3 152.191 1175.57   2
 -17 -11   3-98.3164 695.651   4
  28 -16  -4 2439.16 1763.62   3
  28 -16  -4 3445.37 942.081   1
 -16 -12  -4 3696.11 1330.22   2
 -12  28  -4 4424.44 1171.12   1
  12  16  -4 5421.16 1506.98   1
  28 -16  -4 4175.62 1293.78   2
  16 -28  -4 5696.06 1403.33   4
  16 -28  -4 4326.97 1724.50   2
 -16 -12  -4 4854.97 1255.87   4
  28 -16  -1 1430.21 1464.48   3
  12  16  -1 3262.31 1234.69   1
 -16 -12  -1 1417.00 919.194   2
  16 -28  -1-340.298 933.457   3
  28 -16  -1 86.6516 622.295   4
  28 -16  -1 2761.98 702.744   1
  16 -28  -1 1545.31 1095.01   4
  16 -28  -1 2950.80 1380.52   2
 -16 -12  -1 1937.80 914.060   4
 -12  28  -1 1157.13 997.015   1
  12  16   2 5348.95 1326.23   3
  28 -16   2 3416.84 1553.27   3
 -16 -12   2 4999.32 711.088   2
  16 -28   2 6320.87 1455.68   3
  12  16   2 4212.76 1285.33   1
  16 -28   2 6807.29 1314.96   4
  16 -28   2 5636.25 1334.65   2
 -16 -12   2 4557.98 928.022   4
  12  16   5 3064.63 1078.20   3
  28 -16   5 3788.29 1811.17   3
  16 -28   5 883.242 1346.04   3
 -16 -12   5 1271.34 726.749   4
  28 -15  -5 3533.58 1702.18   3
 -13  28  -5 2428.41 1044.03   1
  28 -15  -5 3830.04 1076.63   1
 -15 -13  -5 4820.30 1361.33   2
  13  15  -5 4281.33 1487.52   1
  15 -28  -5 690.911 1215.49   4
  28 -15  -5 2750.56 1206.17   2
 -15 -13  -5 3496.69 1305.21   4
  15 -28  -5 2634.98 1615.39   2
  28 -15  -2 5523.82 925.416   1
  28 -15  -2 6581.69 1954.03   3
 -15 -13  -2 3816.78 1146.98   2
  15 -28  -2 7195.58 1033.67   3
  15 -28  -2 3427.17 1297.45   4
 -15 -13  -2 6276.43 1221.59   4
  15 -28  -2 5155.70 1536.91   2
 -13  28  -2 5993.70 1127.01   1
  13  15  -2 5246.84 1461.97   1
  13  15   1 1499.19 1085.88   1
  28 -15   1 2169.84 1493.32   3
 -15 -13   1 813.362 670.413   2
  15 -28   1 1140.60 1131.96   3
  15 -28   1 1861.57 1161.42   4
  15 -28   1 4090.35 1385.07   2
 -15 -13   1 1274.78 869.636   4
  13  15   4 4433.74 1356.79   3
  28 -15   4 10270.8 1999.23   3
  13  15   4 6990.43 1477.08   1
  15 -28   4 7092.71 1636.57   3
  15 -28   4 6548.22 1397.47   4
  15 -28   4 6627.01 1414.79   2
 -15 -13   4 4796.87 995.921   4
  28 -14  -3 2441.26 1587.42   3
 -14 -14  -3 2974.12 1137.21   2
 -14  28  -3 385.172 885.365   1
  28 -14  -3 1150.05 765.347   1
  28 -14  -3 2470.30 1069.53   2
  14  14  -3-101.404 1152.67   1
  14 -28  -3 1356.84 1084.81   4
 -14 -14  -3 1017.43 1048.19   4
  14 -28  -3 4570.97 1548.33   2
  28 -14   0-1261.01 1441.19   3
 -14 -14   0 2950.45 881.361   2
  14 -28   0 1214.15 1022.35   3
  14  14   0 621.982 1020.20   1
  14 -28   0 1055.29 1108.71   4
  14 -28   0 1080.86 1226.16   2
 -14 -14   0-518.569 904.970   4
  14  14   3 2621.29 1287.02   3
  14  14   3-468.097 1065.71   1
  28 -14   3 1276.09 1465.89   3
  14 -28   3 1889.87 1304.15   3
  14 -28   3 1069.97 1083.79   4
  14 -28   3 583.048 1151.86   2
 -14 -14   3 669.627 858.844   4
  28 -13  -4 7237.88 1128.16   1
  28 -13  -4 6927.02 1911.58   3
 -13 -15  -4 9605.46 1620.55   2
 -15  28  -4 9848.25 1241.69   1
  15  13  -4 6932.33 1711.26   1
  28 -13  -4 6565.98 1230.62   2
  13 -28  -4 8486.22 1554.82   4
 -13 -15  -4 7728.02 1388.47   4
  13 -28  -4 7502.37 1808.91   2
  28 -13  -1 3624.65 1822.88   3
  15  13  -1 2804.40 1228.73   1
 -13 -15  -1 2112.14 1028.71   2
  13 -28  -1 417.275 841.973   3
  13 -28  -1 1547.14 1191.49   4
 -13 -15  -1 1663.49 940.463   4
  13 -28  -1 1011.07 1315.73   2
  28 -13  -1 1376.59 757.766   1
  15  13   2 6433.50 1636.20   3
 -13 -15   2 6365.61 805.200   2
  28 -13   2 8974.25 2084.99   3
  15  13   2 5799.45 1414.69   1
  13 -28   2 6659.06 1453.09   3
  13 -28   2 6640.39 1365.65   4
  13 -28   2 6879.67 1428.94   2
 -13 -15   2 4925.45 1051.42   4
  15  13   5 3034.72 1257.42   3
  28 -13   5 2547.69 1557.44   3
  13 -28   5 617.618 1320.18   3
  13 -28   5 2499.59 1138.29   4
  13 -28   5 2882.42 1184.50   2
 -13 -15   5 2970.40 958.221   4
  28 -12  -5 1393.70 1632.36   3
  16  12  -5 1448.34 1466.83   1
 -12 -16  -5 604.811 1241.58   2
  28 -12  -5 2101.35 1035.15   1
  28 -12  -5 2466.95 1045.61   2
  12 -28  -5 3037.95 1267.48   4
 -16  28  -5 2302.15 924.362   1
 -12 -16  -5 3141.37 1253.98   4
  12 -28  -5 3538.96 1853.02   2
  28 -12  -2 9111.43 2062.13   3
 -12 -16  -2 4074.22 1192.15   2
  12 -28  -2 5544.36 1353.43   4
  28 -12  -2 4981.12 968.393   1
  16  12  -2 5533.41 1508.35   1
 -12 -16  -2 5822.21 1222.53   4
  12 -28  -2 7600.01 1686.57   2
  28 -12   1 1283.52 1554.37   3
 -12 -16   1 1451.11 789.547   2
  12 -28   1 1874.76 1078.67   3
  12 -28   1 163.469 1040.38   4
  12 -28   1-2012.28 1261.71   2
 -12 -16   1 2221.33 955.947   4
  16  12   1 1194.87 1147.93   1
  16  12   4 2878.24 1192.85   1
  16  12   4 4821.41 1516.39   3
  28 -12   4 6532.28 1901.32   3
  12 -28   4 720.838 1207.59   3
  12 -28   4 2168.49 1172.35   4
  12 -28   4 4847.36 1295.97   2
 -12 -16   4 4155.38 1076.47   4
  28 -11  -3-370.938 1542.52   3
 -11 -17  -3 1645.29 1132.66   2
  17  11  -3 1018.80 1298.86   1
  28 -11  -3 199.843 883.056   1
  11 -28  -3 691.072 1200.56   4
 -11 -17  -3 2786.21 1119.57   4
  11 -28  -3 2139.25 1518.01   2
  28 -11   0-699.577 1424.30   3
 -11 -17   0 2438.51 972.080   2
  17  11   0 3401.88 1195.67   1
  28 -11   0 1859.35 823.149   1
  11 -28   0 904.882 995.855   3
  11 -28   0 2510.65 1188.58   4
 -11 -17   0 194.937 902.337   4
  11 -28   0 3356.07 1350.45   2
  17  11   3 4891.06 1562.16   3
  28 -11   3 1629.13 1455.64   3
  11 -28   3 4344.12 1392.80   3
  11 -28   3 4870.24 1278.04   4
 -11 -17   3 3387.00 1042.91   4
  11 -28   3 2630.50 1235.28   2
  17  11   3 2321.34 1132.67   1
 -10 -18  -4 9202.75 1642.08   2
  28 -10  -4 8524.25 2079.02   3
  18  10  -4 5822.17 1516.16   1
  28 -10  -4 4801.37 1173.74   1
  28 -10  -4 6817.66 1152.19   2
  10 -28  -4 9573.24 1605.92   4
 -10 -18  -4 6934.10 1495.76   4
  10 -28  -4 5285.75 2012.06   2
  28 -10  -1 2507.77 930.349   1
  28 -10  -1 4318.42 1759.46   3
 -10 -18  -1 3742.82 1137.65   2
  10 -28  -1 4248.03 1285.59   4
 -10 -18  -1 5158.20 1230.34   4
  10 -28  -1 3687.77 1468.29   2
  18  10  -1 2977.25 1243.67   1
  18  10   2 12969.6 2098.75   3
 -10 -18   2 12537.3 1149.69   2
  28 -10   2 12930.2 2262.28   3
  10 -28   2 15274.0 1783.19   3
  10 -28   2 10932.0 1504.46   4
  10 -28   2 14567.9 1809.14   2
  18  10   2 14060.2 1670.63   1
 -10 -18   2 14824.1 1553.26   4
  18  10   5 2563.59 1376.50   3
  28 -10   5 1446.04 1583.70   3
  10 -28   5 4746.97 1555.14   3
  10 -28   5 3223.31 1269.39   4
 -10 -18   5 4623.54 1215.59   4
  10 -28   5 4181.29 1270.91   2
  28  -9  -2 1810.50 1586.50   3
  -9 -19  -2 3064.03 1185.73   2
  19   9  -2 1102.18 1289.27   1
   9 -28  -2 1525.88 1184.42   4
  -9 -19  -2 1249.85 1106.73   4
   9 -28  -2-430.142 1418.13   2
  28  -9  -2 842.551 968.423   1
  19   9   1 398.924 1468.30   3
  28  -9   1 2425.87 1849.66   3
  -9 -19   1 3123.18 919.500   2
  28  -9   1 754.806 690.050   1
   9 -28   1 2324.40 1110.77   3
   9 -28   1 1948.62 1267.03   4
  -9 -19   1 1188.49 1121.06   4
   9 -28   1 4034.15 1362.84   2
  19   9   1 2617.30 1222.86   1
  19   9   4-1505.51 1395.17   3
  28  -9   4-1730.05 1514.88   3
   9 -28   4 840.724 1268.30   3
   9 -28   4-48.9959 1137.61   4
  -9 -19   4 404.434 981.432   4
   9 -28   4-507.625 1112.88   2
  19   9   4 799.356 1131.62   1
  -8 -20  -3 7343.09 1527.67   2
  28  -8  -3 3746.84 1906.69   3
  20   8  -3 3547.96 1436.24   1
   8 -28  -3 4577.42 1346.59   4
  -8 -20  -3 4166.21 1286.35   4
  28  -8  -3 5313.04 1195.37   1
   8 -28  -3 5417.56 1781.46   2
  20   8   0 2122.49 1510.28   3
  28  -8   0 5095.28 1853.84   3
  -8 -20   0 4713.64 1138.17   2
  20   8   0 173.595 1132.90   1
  28  -8   0 3652.84 960.683   1
   8 -28   0 5630.95 1485.39   4
  -8 -20   0 4200.85 1223.14   4
   8 -28   0 899.407 1303.72   2
  20   8   3 6874.19 1429.38   1
  20   8   3 8876.09 1867.14   3
  28  -8   3 9045.86 2026.44   3
   8 -28   3 8671.43 1639.78   3
   8 -28   3 8161.54 1548.10   4
  -8 -20   3 9297.47 1424.31   4
   8 -28   3 7025.69 1459.86   2
  -8 -20   3 7560.20 974.945   2
  28  -7  -4 7450.15 1980.69   3
  -7 -21  -4 4565.28 1422.45   2
  21   7  -4 911.912 1349.92   1
  28  -7  -4 4546.20 1277.10   1
   7 -28  -4 1889.89 1197.79   4
  -7 -21  -4 6335.32 1535.32   4
   7 -28  -4 3856.34 1656.94   2
  28  -7  -1 3602.03 1690.19   3
  -7 -21  -1 191.416 1138.28   2
  28  -7  -1 1574.58 930.763   1
   7 -28  -1 1760.68 1289.28   4
  -7 -21  -1 3041.53 1258.25   4
  21   7  -1 44.2813 1251.63   1
   7 -28  -1 1982.88 1531.79   2
  21   7   2 10179.4 2074.69   3
  28  -7   2 10987.5 2212.45   3
   7 -28   2 9818.82 1548.07   3
  21   7   2 10039.5 1505.65   1
  -7 -21   2 8418.45 1441.31   4
   7 -28   2 7679.10 1483.32   4
   7 -28   2 8326.91 1602.72   2
  -7 -21   2 9416.42 1203.75   2
  28  -6  -2 4033.17 2022.38   3
  28  -6  -2 1705.31 1072.62   1
  -6 -22  -2 1637.51 1185.25   2
  22   6  -2-453.996 1191.96   1
   6 -28  -2 1324.18 1285.37   4
  -6 -22  -2 1728.32 1184.18   4
   6 -28  -2 2597.62 1556.17   2
  22   6   1 1014.91 1597.67   3
  -6 -22   1 171.347 918.453   2
  28  -6   1-621.941 1584.45   3
  28  -6   1 2841.17 902.343   1
   6 -28   1 3353.03 1275.77   4
  22   6   1-160.966 1013.47   1
  -6 -22   1-713.264 1112.21   4
   6 -28   1 1281.80 1319.56   2
  22   6   4 788.555 1134.68   1
  22   6   4-1095.16 1518.04   3
  28  -6   4 5943.76 2090.94   3
   6 -28   4 3212.42 1418.04   3
   6 -28   4 645.181 1092.06   4
  -6 -22   4 2898.50 1233.50   4
   6 -28   4 2189.00 1250.74   2
  28  -5  -3 6830.71 2019.79   3
  -5 -23  -3 8170.40 1537.60   2
  23   5  -3 5450.45 1524.00   1
   5 -28  -3 6755.04 1512.57   4
  -5 -23  -3 9062.79 1596.37   4
   5 -28  -3 10025.6 1951.19   2
  28  -5  -3 7389.43 1389.63   1
  23   5   0 4966.50 1820.20   3
  -5 -23   0 2434.87 1104.51   2
  28  -5   0 4904.87 1862.98   3
  23   5   0 4628.63 1233.77   1
   5 -28   0 2803.43 1326.97   4
  -5 -23   0 4836.61 1290.58   4
  28  -5   0 2314.39 986.744   1
   5 -28   0 3203.13 1417.71   2
  23   5   3 8653.60 1463.25   1
  -5 -23   3 5734.34 1087.47   2
  28  -5   3 8268.92 2062.90   3
   5 -28   3 8024.58 1592.19   4
   5 -28   3 7900.54 1601.75   2
  -5 -23   3 5652.53 1382.45   4
  24   4  -1 1748.94 1497.21   3
  -4 -24  -1-996.994 1206.20   2
  28  -4  -1 3652.40 1806.75   3
  28  -4  -1 2105.05 1173.59   1
   4 -28  -1 501.604 1162.33   4
  -4 -24  -1 2001.38 1186.06   4
  24   4  -1 1204.64 1159.87   1
   4 -28  -1 1927.61 1458.71   2
  -4 -24   2 1664.15 1018.19   2
  24   4   2 4063.83 1902.14   3
  28  -4   2 2897.37 1714.64   3
  24   4   2 690.702 1073.59   1
  28  -4   2 1328.44 882.439   1
   4 -28   2 203.880 1148.64   4
  -4 -24   2 4981.05 1301.80   4
   4 -28   2-800.895 1256.86   2
  25   3  -2 402.986 1671.73   3
  28  -3  -2 5578.30 1989.73   3
  -3 -25  -2 1856.64 1235.22   2
  28  -3  -2 355.563 1087.82   1
  25   3  -2 4002.90 1329.55   1
   3 -28  -2 1353.01 1291.21   4
  -3 -25  -2 3442.93 1342.17   4
   3 -28  -2 3640.34 1752.34   2
  -3 -25   1 3804.67 1235.47   2
  25   3   1-3073.84 1830.72   3
  28  -3   1-2954.27 1790.37   3
  28  -3   1 1025.62 935.097   1
   3 -28   1 745.462 1280.54   4
  25   3   1-328.260 1029.62   1
  -3 -25   1 1062.06 1169.05   4
   3 -28   1 768.605 1318.03   2
  -2 -26   0-300.071 1161.24   2
  28  -2   0-321.819 1073.69   1
  26   2   0 1985.64 1768.76   3
  28  -2   0 4362.86 2255.20   3
  26   2   0 495.893 1099.11   1
   2 -28   0 1790.40 1266.64   4
  -2 -26   0 2190.43 1318.68   4
   2 -28   0 1877.77 1411.13   2
   5  24  -1 257.259 1151.37   1
  29 -24  -1 2911.44 1499.33   3
  24 -29  -1 2016.35 1342.96   3
  29 -24  -1 1626.53 1025.15   4
  29 -24  -1 274.783 1371.36   2
  24 -29  -1 1769.48 1255.28   4
  24 -29  -1 2643.14 1601.80   2
 -24  -5  -1 402.657 754.993   4
  -5  29  -1 2480.76 1176.70   1
  29 -23  -2 1175.08 1490.96   3
  23 -29  -2 1527.46 1276.27   3
 -23  -6  -2 1420.09 927.886   2
  -6  29  -2-425.642 1065.38   1
   6  23  -2-41.6705 1123.15   1
  29 -23  -2 4692.29 1490.35   2
  23 -29  -2 1922.60 1248.74   4
  23 -29  -2 807.960 1318.46   2
 -23  -6  -2 1056.84 863.971   4
  29 -23   1 2635.15 1613.90   3
  23 -29   1 4025.36 1561.06   3
  -6  29   1 3050.98 1321.88   1
  23 -29   1 981.172 1072.03   4
   6  23   1 2616.48 1201.44   1
  23 -29   1 2998.89 1280.43   2
 -23  -6   1 2274.47 723.083   4
  29 -22  -3 4171.79 862.327   1
  29 -22  -3 5806.79 1806.38   3
   7  22  -3 7606.51 1566.16   1
  -7  29  -3 5954.55 1312.66   1
 -22  -7  -3 7544.74 1312.45   2
  29 -22  -3 6303.52 1597.75   2
  22 -29  -3 6188.96 1411.56   4
  22 -29  -3 9027.60 1711.07   2
 -22  -7  -3 3445.73 1114.27   4
   7  22   0 1078.31 1135.24   1
  29 -22   0 2222.43 1535.43   3
  22 -29   0 5324.07 1461.71   3
 -22  -7   0 1019.65 740.063   2
  29 -22   0 1462.03 972.535   4
  22 -29   0 1224.08 1156.75   4
  22 -29   0 2956.78 1421.50   2
 -22  -7   0 1977.13 740.265   4
  -7  29   0 2043.22 1201.84   1
   7  22   3 6686.16 1608.11   1
  29 -22   3 5479.50 1799.75   3
  22 -29   3 4723.40 1602.81   3
  22 -29   3 5643.92 1335.36   4
  29 -21  -1-1772.22 1511.20   3
  21 -29  -1-1995.99 1207.18   3
  -8  29  -1 353.061 1040.91   1
 -21  -8  -1 675.096 826.249   2
  29 -21  -1-1688.80 912.227   4
  21 -29  -1-1737.07 1273.49   4
  21 -29  -1-1506.34 1514.55   2
   8  21  -1-1802.59 1151.44   1
 -21  -8  -1-44.1054 772.030   4
   8  21   2 4712.43 1439.06   1
  29 -21   2 2269.95 1628.67   3
  21 -29   2 6207.04 1662.93   3
  21 -29   2 2298.25 1197.01   4
  21 -29   2 3391.90 1272.79   2
 -21  -8   2 2564.02 758.386   4
   9  20  -2 9020.35 1574.04   1
  29 -20  -2 2371.68 1462.92   3
  20 -29  -2 3435.15 1096.46   3
 -20  -9  -2 3684.15 1130.10   2
  29 -20  -2 5076.14 1484.71   2
  20 -29  -2 5883.09 1429.42   4
  20 -29  -2 4416.24 1475.93   2
 -20  -9  -2 4695.51 1070.94   4
  -9  29  -2 6094.35 1356.44   1
  29 -20   1 2273.26 1443.33   3
  20 -29   1 1430.45 1342.71   3
   9  20   1 3731.27 1294.40   1
 -20  -9   1 2032.70 658.291   2
  20 -29   1 2021.04 1197.00   4
  20 -29   1 3040.09 1305.20   2
 -20  -9   1 1403.51 772.273   4
  10  19  -3 5125.82 1390.49   1
  29 -19  -3 4093.47 1600.66   3
  29 -19  -3 3994.10 894.705   1
 -19 -10  -3 5520.81 1224.99   2
 -10  29  -3 3343.13 1144.73   1
  29 -19  -3 4166.44 1362.38   2
  19 -29  -3 3401.81 1235.13   4
  19 -29  -3 2886.26 1479.63   2
 -19 -10  -3 6230.56 1197.68   4
  10  19   0 1773.63 1146.37   1
  29 -19   0-1704.87 1494.42   3
  19 -29   0 3375.53 1363.28   3
 -19 -10   0 2149.74 811.712   2
 -10  29   0 1771.65 1102.20   1
  19 -29   0 779.578 1183.60   4
  19 -29   0 2658.71 1283.86   2
 -19 -10   0 2886.96 924.855   4
  10  19   3 1726.67 1065.21   3
  29 -19   3 1937.62 1532.93   3
  19 -29   3 4653.75 1471.53   3
  10  19   3 3035.26 1329.91   1
  19 -29   3 2650.76 1159.23   4
  19 -29   3 1983.46 1183.32   2
 -19 -10   3 638.288 672.097   4
  29 -18  -4 1425.40 1563.90   3
  29 -18  -4 4390.71 930.708   1
 -11  29  -4 6246.39 1282.75   1
 -18 -11  -4 5330.38 1357.55   2
  29 -18  -4 4615.77 1418.85   2
  11  18  -4 6614.70 1657.95   1
  18 -29  -4 2243.10 1241.47   4
  18 -29  -4 886.546 1394.64   2
 -18 -11  -4 4020.98 1212.12   4
  29 -18  -1 4077.70 1654.90   3
 -11  29  -1 605.219 978.353   1
  18 -29  -1 2886.36 1126.61   3
 -18 -11  -1 3554.12 1025.06   2
  11  18  -1 2620.86 1266.30   1
  18 -29  -1 2084.35 1194.77   4
  18 -29  -1 396.942 1270.46   2
 -18 -11  -1 1081.10 845.548   4
  29 -18   2 3987.80 1637.85   3
  18 -29   2 4727.81 1441.88   3
  18 -29   2 6172.48 1336.52   4
  18 -29   2 3531.37 1234.73   2
  11  18   2 4096.78 1344.29   1
 -18 -11   2 2803.58 837.783   4
  12  17  -2-387.719 1183.32   1
  29 -17  -2-1041.58 1551.65   3
 -17 -12  -2 48.5358 913.845   2
  29 -17  -2 173.070 675.260   1
  17 -29  -2 957.500 913.448   3
 -12  29  -2 1764.97 1008.86   1
  17 -29  -2-1014.84 1225.15   4
  17 -29  -2 237.099 1333.55   2
 -17 -12  -2 992.087 957.717   4
  29 -17   1 6834.77 1848.67   3
 -17 -12   1 8729.69 1017.57   2
  17 -29   1 14791.7 1793.35   3
  12  17   1 11813.8 1604.31   1
  17 -29   1 10450.0 1588.81   4
  17 -29   1 10343.0 1589.47   2
 -17 -12   1 10331.7 1227.18   4
  12  17   4 1597.82 1075.70   3
  29 -17   4 1365.02 1560.07   3
  17 -29   4 3052.79 1546.57   3
  17 -29   4 711.423 1108.80   4
  17 -29   4 553.145 1133.00   2
  12  17   4-828.335 1231.42   1
 -17 -12   4 372.010 690.678   4
  29 -16  -3 1187.53 1531.03   3
 -13  29  -3 837.985 917.368   1
 -16 -13  -3-113.154 977.518   2
  29 -16  -3-149.841 717.365   1
  29 -16  -3 1791.72 1170.75   2
  16 -29  -3-116.985 1210.38   4
  13  16  -3 1930.69 1298.16   1
  16 -29  -3-566.674 1405.12   2
 -16 -13  -3 2310.82 1081.10   4
  29 -16   0 2613.81 1805.58   3
 -16 -13   0 1665.62 850.456   2
  16 -29   0-628.870 1057.35   3
  16 -29   0-564.516 1116.71   4
  16 -29   0 1038.19 1232.83   2
  13  16   0 2333.89 1189.31   1
 -16 -13   0 1582.74 890.452   4
  13  16   3 1592.01 1303.49   3
  29 -16   3 3553.75 1632.35   3
  13  16   3-34.3899 1200.39   1
  16 -29   3-669.818 1278.41   3
  16 -29   3 2463.71 1194.77   4
  16 -29   3 1454.76 1166.66   2
 -16 -13   3 543.333 792.114   4
  29 -15  -4 2624.71 1545.64   3
 -15 -14  -4 2829.26 1253.41   2
  29 -15  -4 2256.81 960.949   1
  14  15  -4 1270.11 1330.44   1
  29 -15  -4 1212.79 1112.89   2
  15 -29  -4 2624.11 1288.98   4
 -15 -14  -4 2609.62 1175.84   4
 -14  29  -4 3211.83 1064.98   1
  15 -29  -4 3418.27 1621.20   2
  14  15  -1 8810.21 1555.93   1
  29 -15  -1 4544.32 1826.92   3
 -15 -14  -1 8683.37 1284.00   2
  15 -29  -1 7301.71 1242.33   3
  15 -29  -1 8653.37 1468.29   4
 -15 -14  -1 7044.88 1225.97   4
  15 -29  -1 8479.24 1673.46   2
  14  15   2 375.941 1309.09   3
  29 -15   2-19.7320 1650.64   3
  15 -29   2 3188.96 1265.75   3
  14  15   2-502.016 1099.36   1
  15 -29   2 2123.09 1142.87   4
  15 -29   2 625.735 1126.04   2
 -15 -14   2-625.635 801.387   4
  29 -14  -2 4677.65 1731.98   3
 -14 -15  -2 1162.45 1095.46   2
  29 -14  -2 286.568 754.792   1
  14 -29  -2-1042.93 1223.29   4
 -14 -15  -2 1970.65 1028.52   4
  14 -29  -2 1725.52 1485.05   2
  15  14  -2 853.699 1139.20   1
  15  14   1 4498.40 1236.45   1
 -14 -15   1 9322.85 1074.00   2
  29 -14   1 8456.98 1991.40   3
  14 -29   1 10881.2 1604.79   3
  14 -29   1 11724.2 1594.23   4
  14 -29   1 6210.88 1414.73   2
 -14 -15   1 5818.83 1126.51   4
  15  14   4-243.486 1171.12   3
  29 -14   4-823.025 1487.02   3
  15  14   4 815.434 1115.07   1
  14 -29   4 807.289 1262.05   3
  14 -29   4 785.193 1127.72   4
  14 -29   4 4367.69 1386.81   2
 -14 -15   4 2083.04 897.761   4
  29 -13  -3 4086.18 1783.14   3
 -16  29  -3 284.486 891.660   1
 -13 -16  -3 682.875 1086.64   2
  29 -13  -3 279.885 883.674   1
  16  13  -3 2094.49 1330.68   1
  29 -13  -3-310.579 1059.11   2
  13 -29  -3 306.935 1206.39   4
 -13 -16  -3 2257.06 1121.32   4
  13 -29  -3-1326.84 1450.00   2
  29 -13   0 2389.78 1675.71   3
 -13 -16   0 1051.21 838.960   2
  13 -29   0 2697.00 1120.24   3
  16  13   0 1159.24 1098.26   1
  13 -29   0 1846.23 1182.80   4
 -13 -16   0 1369.10 934.758   4
  13 -29   0-780.085 1417.37   2
  16  13   3 4259.73 1320.15   1
  16  13   3 63.9398 1253.99   3
  29 -13   3 753.354 1532.43   3
  13 -29   3 2290.75 1236.17   3
  13 -29   3 1497.06 1120.16   4
  13 -29   3 709.442 1193.42   2
 -13 -16   3 638.963 917.908   4
  29 -12  -4 2816.23 1724.43   3
 -12 -17  -4 151.427 1110.28   2
  17  12  -4-736.183 1533.89   1
  29 -12  -4 588.988 957.076   1
 -17  29  -4-372.653 839.622   1
  29 -12  -4 1640.29 1032.76   2
  12 -29  -4-1945.23 1368.63   4
 -12 -17  -4-28.8508 1151.21   4
  12 -29  -4 3351.56 1802.28   2
  29 -12  -1 10584.0 2247.64   3
 -12 -17  -1 10150.8 1408.88   2
  17  12  -1 7186.45 1456.06   1
  12 -29  -1 11344.1 1241.47   3
  29 -12  -1 7437.81 1058.63   1
  12 -29  -1 11935.5 1878.34   2
  12 -29  -1 8089.45 1526.50   4
 -12 -17  -1 9309.40 1414.57   4
  17  12   2 1515.34 1495.66   3
  29 -12   2 2086.37 1573.05   3
 -12 -17   2 1193.83 710.447   2
  17  12   2 1251.48 1093.28   1
  12 -29   2 2081.57 1193.74   3
  12 -29   2 2103.34 1219.87   4
 -12 -17   2 295.944 920.004   4
  12 -29   2 2006.50 1249.46   2
  29 -11  -2 2803.09 1790.25   3
 -11 -18  -2 4793.91 1258.33   2
  11 -29  -2 1148.84 1180.77   4
  18  11  -2 2307.74 1296.29   1
 -11 -18  -2 6355.36 1296.70   4
  11 -29  -2 5653.02 1685.52   2
  29 -11  -2 5262.78 1060.90   1
  18  11   1-1113.61 1520.80   3
  29 -11   1 1507.20 1544.51   3
 -11 -18   1 1500.41 847.517   2
  11 -29   1 749.948 1059.39   3
  11 -29   1 164.689 1302.09   4
 -11 -18   1 1332.96 987.769   4
  11 -29   1 155.864 1337.73   2
  18  11   1 1113.12 1098.16   1
  18  11   4 4172.20 1549.38   3
  29 -11   4 1739.15 1669.15   3
  11 -29   4 7171.44 1565.53   3
  11 -29   4 3954.28 1353.78   4
 -11 -18   4 2914.81 1059.61   4
  11 -29   4 5082.32 1415.29   2
  18  11   4 5345.35 1429.24   1
  29 -10  -3 5375.91 1825.91   3
 -10 -19  -3 4585.39 1366.70   2
  19  10  -3 1615.29 1229.05   1
  10 -29  -3 1255.76 1235.14   4
  29 -10  -3 1505.63 985.632   1
 -10 -19  -3 1956.19 1245.42   4
  10 -29  -3 4473.56 1682.04   2
  29 -10   0 1899.06 1578.94   3
 -10 -19   0 1667.19 1009.55   2
  19  10   0 1479.40 1145.13   1
  10 -29   0 1732.09 989.542   3
  29 -10   0 3668.66 924.852   1
  10 -29   0 431.786 1176.43   4
 -10 -19   0 1407.17 1138.15   4
  10 -29   0 4150.84 1398.35   2
  19  10   3 4450.35 1631.93   3
  29 -10   3 6955.83 2055.49   3
  10 -29   3 4437.73 1464.39   3
  10 -29   3 2960.75 1197.02   4
 -10 -19   3 3112.52 1086.05   4
  10 -29   3 3965.20 1348.47   2
  19  10   3 4233.90 1308.64   1
  20   9  -1 4651.75 1407.27   1
  29  -9  -1 2333.67 1686.66   3
  -9 -20  -1 3603.80 1149.84   2
  29  -9  -1 5329.83 1066.13   1
   9 -29  -1 1937.86 1220.51   4
  -9 -20  -1 2280.55 1088.66   4
   9 -29  -1 1850.94 1475.57   2
  29  -9   2 3620.35 1840.37   3
  -9 -20   2 3552.84 881.669   2
  20   9   2 6710.01 1385.61   1
   9 -29   2 7386.59 1451.66   3
   9 -29   2 4985.48 1383.35   4
  -9 -20   2 5255.06 1183.29   4
   9 -29   2 4757.77 1523.05   2
  29  -8  -2 3301.78 1082.55   1
  29  -8  -2 1223.29 1759.24   3
  -8 -21  -2 2827.38 1226.75   2
  21   8  -2 1749.32 1245.56   1
   8 -29  -2 3906.88 1332.60   4
  -8 -21  -2 2131.40 1182.93   4
   8 -29  -2 2512.50 1533.22   2
  21   8   1-65.6594 1513.19   3
  -8 -21   1-1616.27 953.778   2
  29  -8   1-555.107 1734.70   3
   8 -29   1-11.0963 1256.33   4
  -8 -21   1-649.593 1107.98   4
   8 -29   1 534.990 1307.00   2
  21   8   1 1893.87 1159.43   1
  29  -7  -3 4144.00 2058.60   3
  -7 -22  -3 4231.70 1449.69   2
  22   7  -3 4885.77 1530.07   1
   7 -29  -3 6134.86 1577.61   4
  -7 -22  -3 5185.69 1383.49   4
  29  -7  -3 802.982 1074.87   1
   7 -29  -3 7238.45 1848.58   2
  22   7   0 5088.13 1907.58   3
  29  -7   0 4707.54 2053.33   3
  -7 -22   0 1781.17 1008.02   2
  22   7   0 3104.75 1255.47   1
   7 -29   0 1412.39 1149.99   4
  -7 -22   0 1875.45 1125.07   4
  29  -7   0 2970.80 985.251   1
   7 -29   0 180.759 1424.66   2
  29  -7   3 3826.55 1826.09   3
   7 -29   3 6323.33 1496.28   3
   7 -29   3 7110.31 1572.04   4
  -7 -22   3 6519.13 1413.14   4
   7 -29   3 5328.90 1453.80   2
  22   7   3 5574.50 1385.58   1
  23   6  -1 2538.43 1645.09   3
  29  -6  -1 1498.37 1800.70   3
  -6 -23  -1 1921.57 1127.68   2
  29  -6  -1 2937.09 1108.02   1
   6 -29  -1 236.161 1218.46   4
  -6 -23  -1 2836.30 1221.08   4
   6 -29  -1 1212.75 1383.48   2
  23   6  -1 3141.12 1273.15   1
  -6 -23   2 1279.55 935.593   2
  23   6   2 1058.06 1659.49   3
  29  -6   2 1419.06 1702.05   3
  23   6   2 780.176 1041.64   1
   6 -29   2 1306.60 1346.00   4
  -6 -23   2 245.420 1072.85   4
   6 -29   2 473.364 1314.88   2
  -5 -24   1 809.143 1012.69   2
  24   5   1 2290.32 1624.42   3
  29  -5   1 5820.83 2120.63   3
  29  -5   1 1860.20 984.690   1
   5 -29   1 803.198 1349.13   4
  -5 -24   1 3134.34 1227.07   4
  24   5   1 1541.56 1185.33   1
   5 -29   1 3332.70 1487.78   2
  30 -22   1 1701.13 1515.91   3
   8  22   1 3362.70 1450.23   1
  22 -30   1 2754.08 1262.37   4
  22 -30   1 3144.37 1337.37   2
 -22  -8   1 2657.29 817.032   4
   9  21   0 4217.56 1377.37   1
  30 -21   0 6164.94 1906.94   3
  -9  30   0 4100.91 1273.71   1
  21 -30   0 5264.23 1466.27   3
 -21  -9   0 3747.54 896.201   2
  30 -21   0 2557.35 983.149   4
  21 -30   0 1561.16 1277.10   4
  21 -30   0 4676.37 1490.02   2
 -21  -9   0 1769.71 845.899   4
 -10  30  -1 611.306 1044.85   1
  30 -20  -1 1555.16 1546.81   3
  20 -30  -1 1103.22 1129.70   3
 -20 -10  -1 987.720 878.158   2
  20 -30  -1-717.201 1293.74   4
  10  20  -1 2723.06 1307.11   1
  20 -30  -1 2407.43 1349.74   2
 -20 -10  -1 1269.36 865.821   4
  30 -20   2 256.746 1685.93   3
  20 -30   2 1282.71 1320.05   3
  20 -30   2 1262.45 1089.15   4
  20 -30   2 566.346 1277.75   2
 -20 -10   2 642.732 719.237   4
  10  20   2 1202.48 1251.99   1
  30 -19  -2 4523.62 1710.77   3
  11  19  -2 3952.95 1465.87   1
 -19 -11  -2 789.913 925.662   2
 -11  30  -2 2262.93 1211.97   1
  19 -30  -2 2251.53 1289.73   4
  19 -30  -2 848.721 1394.74   2
 -19 -11  -2 1779.92 933.924   4
  30 -19   1 6059.33 1831.97   3
  11  19   1 5411.53 1422.09   1
  19 -30   1 6708.13 1531.31   3
 -19 -11   1 4207.21 798.751   2
  19 -30   1 4701.73 1356.65   4
  19 -30   1 4291.76 1362.39   2
 -19 -11   1 4184.02 927.138   4
 -12  30  -3 271.761 986.660   1
  30 -18  -3-879.211 1491.60   3
  30 -18  -3 564.916 721.911   1
 -18 -12  -3 386.191 1059.83   2
  30 -18  -3 741.492 1142.71   2
  18 -30  -3 119.387 1144.15   4
  18 -30  -3 1778.34 1450.44   2
 -18 -12  -3 1106.41 1007.34   4
  12  18  -3 2311.49 1465.09   1
  30 -18   0 5326.57 1840.48   3
  18 -30   0 4234.85 1251.25   3
 -18 -12   0 3391.83 942.604   2
  18 -30   0 619.472 1223.54   4
  18 -30   0 3602.54 1383.22   2
 -18 -12   0 2667.61 915.346   4
  12  18   0 4017.45 1400.89   1
  12  18   3 4454.62 1400.89   3
  30 -18   3 2040.87 1536.24   3
  12  18   3 4287.36 1579.63   1
  18 -30   3 624.699 1321.33   3
  18 -30   3-368.664 1104.96   4
  18 -30   3-551.167 1202.65   2
 -18 -12   3 1670.39 802.578   4
  30 -17  -1 4982.39 1831.26   3
 -17 -13  -1 9485.33 1303.19   2
  13  17  -1 5912.02 1479.78   1
  17 -30  -1 6776.46 1290.69   3
  17 -30  -1 6825.00 1521.19   4
  17 -30  -1 7381.10 1624.54   2
 -17 -13  -1 5354.87 1100.31   4
  13  17   2 3231.67 1372.30   3
  30 -17   2 1210.88 1519.34   3
  17 -30   2 3368.85 1405.59   3
  17 -30   2 2501.18 1225.63   4
  13  17   2 3645.98 1485.09   1
  17 -30   2 902.751 1216.47   2
 -17 -13   2 3608.80 891.507   4
  14  16  -2 1831.71 1399.38   1
  30 -16  -2 1132.02 1664.35   3
 -14  30  -2 5541.90 1249.02   1
 -16 -14  -2 4919.06 1196.84   2
  16 -30  -2 3441.83 1333.87   4
  16 -30  -2 6796.48 1689.53   2
 -16 -14  -2 4250.50 1159.89   4
  30 -16   1 4228.65 1811.69   3
  14  16   1 3888.36 1352.76   1
 -16 -14   1 1841.71 763.735   2
  16 -30   1 5877.25 1401.54   3
  16 -30   1 5713.38 1349.24   4
  16 -30   1 2363.79 1381.45   2
 -16 -14   1 1696.25 905.020   4
  30 -15  -3 1759.90 1553.93   3
 -15 -15  -3 3300.40 1219.94   2
 -15  30  -3 3763.29 1184.97   1
  30 -15  -3 2543.63 927.257   1
  30 -15  -3 2088.59 1263.05   2
  15  15  -3 829.690 1328.78   1
 -15 -15  -3 2339.55 1134.36   4
  15 -30  -3 718.770 1498.30   2
  30 -15   0-65.3067 1623.52   3
 -15 -15   0-739.548 823.253   2
  15 -30   0 558.647 1016.00   3
  15 -30   0 780.251 1199.84   4
  15  15   0 781.284 1145.04   1
  15 -30   0 2707.68 1396.68   2
 -15 -15   0 1766.76 944.937   4
  15  15   3 3547.30 1470.52   3
  15  15   3 2409.46 1247.07   1
  30 -15   3-417.849 1579.60   3
  15 -30   3 3943.07 1468.28   3
  15 -30   3 2202.72 1179.03   4
  15 -30   3 2663.69 1277.47   2
 -15 -15   3 4010.33 971.894   4
  30 -14  -1 937.963 1679.07   3
  16  14  -1 2240.64 1276.26   1
 -14 -16  -1 2599.58 1032.20   2
  14 -30  -1 4150.28 1020.72   3
  14 -30  -1 2029.58 1205.77   4
 -14 -16  -1 3964.46 1141.95   4
  14 -30  -1 1593.25 1413.58   2
  16  14   2 3719.28 1501.70   3
  30 -14   2 5226.52 1897.97   3
  16  14   2 2420.23 1276.68   1
  14 -30   2 4439.84 1329.41   3
  14 -30   2 4857.22 1468.98   4
  14 -30   2 2212.13 1426.40   2
 -14 -16   2 5208.74 1106.02   4
  30 -13  -2 2210.10 1706.14   3
 -13 -17  -2 3681.14 1242.54   2
  13 -30  -2 1397.37 1189.36   4
 -13 -17  -2 2493.87 1039.01   4
  30 -13  -2 1438.55 890.698   1
  13 -30  -2 3952.23 1508.21   2
  17  13  -2 2162.01 1284.56   1
  17  13   1 6621.39 1811.38   3
  17  13   1 4800.01 1356.56   1
  30 -13   1 4724.61 1849.40   3
 -13 -17   1 6114.32 991.500   2
  13 -30   1 5947.84 1315.99   3
  13 -30   1 5304.50 1397.88   4
 -13 -17   1 4837.00 1168.50   4
  13 -30   1 5324.90 1546.73   2
  30 -12  -3 5050.27 1985.64   3
 -12 -18  -3 2079.54 1231.78   2
  18  12  -3 1380.95 1395.14   1
  30 -12  -3 1843.46 930.571   1
  12 -30  -3 701.900 1167.23   4
 -12 -18  -3 3926.82 1212.15   4
  12 -30  -3 3669.23 1793.56   2
  30 -12   0 4336.05 1879.01   3
 -12 -18   0 3804.42 1090.54   2
  18  12   0 2384.26 1259.27   1
  12 -30   0 3054.37 1077.49   3
  12 -30   0 6038.98 1450.02   4
 -12 -18   0 1802.09 1076.58   4
  12 -30   0 5943.10 1723.12   2
  18  12   3-566.742 1161.75   1
  18  12   3 2164.00 1573.98   3
  30 -12   3 150.621 1532.05   3
  12 -30   3-835.257 1193.65   3
  12 -30   3-1297.59 1095.33   4
 -12 -18   3 802.658 990.085   4
  12 -30   3-788.810 1370.03   2
  30 -11  -1 7485.43 2117.33   3
  19  11  -1 2900.27 1358.24   1
  30 -11  -1 5782.48 1049.59   1
 -11 -19  -1 4706.10 1176.73   2
  11 -30  -1 4448.44 1403.23   4
 -11 -19  -1 4038.11 1231.60   4
  11 -30  -1 7712.21 1700.44   2
  19  11   2-324.682 1541.97   3
  30 -11   2 637.807 1674.62   3
 -11 -19   2 375.710 731.888   2
  19  11   2 2829.70 1256.01   1
  11 -30   2 2787.32 1268.05   3
  11 -30   2 1691.66 1148.77   4
 -11 -19   2 3057.48 1132.51   4
  11 -30   2 2023.54 1270.88   2
  30 -10  -2 690.545 996.059   1
  30 -10  -2 3123.46 1848.56   3
 -10 -20  -2 731.749 1120.97   2
  10 -30  -2-240.555 1336.64   4
 -10 -20  -2 2216.67 1275.87   4
  20  10  -2 318.701 1162.36   1
  10 -30  -2 1133.98 1549.48   2
  20  10   1 1896.23 1628.60   3
  30 -10   1-796.725 1691.86   3
 -10 -20   1-520.447 813.786   2
  10 -30   1 382.437 1061.53   3
  10 -30   1 1815.08 1233.43   4
 -10 -20   1 186.088 967.213   4
  10 -30   1-2670.94 1500.74   2
  20  10   1-344.351 1134.51   1
  21   9   0 5265.44 1762.61   3
  30  -9   0 3316.50 1896.51   3
  -9 -21   0 4455.43 1180.75   2
  21   9   0 5914.34 1412.95   1
   9 -30   0 3349.20 1468.40   4
  -9 -21   0 3019.16 1219.98   4
   9 -30   0 3748.60 1586.79   2
  22   8  -1 5612.07 1421.90   1
  30  -8  -1 1980.72 1977.82   3
  -8 -22  -1 4078.81 1265.45   2
  30  -8  -1 4776.03 1167.84   1
   8 -30  -1 4690.86 1441.39   4
  -8 -22  -1 6848.51 1396.38   4
   8 -30  -1 2462.86 1588.99   2
  31 -19  -1 387.951 1639.70   3
  19 -31  -1 1770.16 1111.92   3
 -19 -12  -1 2660.47 1058.41   2
 -12  31  -1 1669.76 1128.47   1
  12  19  -1-1126.38 1264.78   1
  19 -31  -1 2461.25 1428.17   2
 -19 -12  -1 2289.97 975.649   4
  31 -18   1 3976.73 1802.44   3
  13  18   1 1943.39 1269.08   1
  18 -31   1 4094.96 1424.51   3
  18 -31   1 2565.52 1328.30   4
  18 -31   1 3886.04 1527.90   2
 -18 -13   1 3041.20 952.083   4
  31 -17   0 4212.68 1742.65   3
 -17 -14   0-421.906 783.279   2
  17 -31   0-509.111 1092.26   3
  17 -31   0 2288.64 1344.86   4
  17 -31   0 384.531 1218.94   2
 -17 -14   0-171.170 927.858   4
  14  17   0 773.792 1141.84   1
  31 -16  -1 1134.69 1595.72   3
 -16 -15  -1 167.355 905.308   2
  15  16  -1-350.898 1266.62   1
  16 -31  -1 1250.41 1307.70   4
  16 -31  -1 829.620 1302.68   2
 -16 -15  -1 1075.32 981.376   4
  16  15   1-1136.74 1463.61   3
  16  15   1-1242.11 1277.47   1
  31 -15   1 1359.61 1599.71   3
 -15 -16   1 1236.13 780.369   2
  15 -31   1-296.365 1146.29   3
  15 -31   1 905.137 1139.31   4
  15 -31   1 3718.41 1387.46   2
 -15 -16   1-129.237 882.031   4
  31 -14   0 340.445 1609.86   3
 -14 -17   0 1524.39 879.785   2
  14 -31   0 1192.64 978.586   3
  14 -31   0 1355.49 1347.23   4
  17  14   0-411.958 1105.63   1
 -14 -17   0 591.797 927.628   4
  14 -31   0-132.250 1386.70   2
  31 -13  -1 2807.36 1925.76   3
  18  13  -1 2316.74 1239.68   1
 -13 -18  -1 2966.56 1066.96   2
  13 -31  -1 3255.91 1328.92   4
 -13 -18  -1 4393.90 1191.04   4
  13 -31  -1 3589.49 1493.87   2
  19  12   1 3136.98 1608.50   3
  19  12   1 309.438 1114.11   1
  31 -12   1 823.498 1674.69   3
 -12 -19   1 1697.24 890.996   2
  12 -31   1 5714.05 1383.72   3
  12 -31   1 2133.50 1325.56   4
 -12 -19   1 855.244 999.620   4
  12 -31   1-468.429 1317.84   2
   0   0   0    0.00    0.00   0

TITL YY_Zn_Gly_Pyr_MeCN_100K_5 in R3c
REM R3c (#161 in standard setting)
CELL 0.71073  26.382866  26.382866  10.121504  90.0000  90.0000 120.0000
ZERR   18.00   0.000987   0.000987   0.000377   0.0000   0.0000   0.0000
LATT -3
SYMM -y, x-y, z
SYMM -x+y,-x, z
SYMM -y,-x, z+1/2
SYMM -x+y, y, z+1/2
SYMM  x, x-y, z+1/2
SFAC C H N O Zn
UNIT 108.00 144.00 54.00 54.00 18.00
TREF
HKLF 4
END
;
_shelx_hkl_checksum              87179
_olex2_submission_special_instructions 'No special instructions were received'
_oxdiff_exptl_absorpt_empirical_details
;
Empirical correction (ABSPACK) includes:
- Absorption correction using spherical harmonics
- Frame scaling
;
_oxdiff_exptl_absorpt_empirical_full_max 1.661
_oxdiff_exptl_absorpt_empirical_full_min 0.754
loop_
_space_group_symop_operation_xyz
'x, y, z'
'-y, x-y, z'
'-x+y, -x, z'
'-x+y, y, z+1/2'
'x, x-y, z+1/2'
'-y, -x, z+1/2'
'x+2/3, y+1/3, z+1/3'
'-y+2/3, x-y+1/3, z+1/3'
'-x+y+2/3, -x+1/3, z+1/3'
'-x+y+2/3, y+1/3, z+5/6'
'x+2/3, x-y+1/3, z+5/6'
'-y+2/3, -x+1/3, z+5/6'
'x+1/3, y+2/3, z+2/3'
'-y+1/3, x-y+2/3, z+2/3'
'-x+y+1/3, -x+2/3, z+2/3'
'-x+y+1/3, y+2/3, z+7/6'
'x+1/3, x-y+2/3, z+7/6'
'-y+1/3, -x+2/3, z+7/6'
loop_
_atom_site_label
_atom_site_type_symbol
_atom_site_fract_x
_atom_site_fract_y
_atom_site_fract_z
_atom_site_U_iso_or_equiv
_atom_site_adp_type
_atom_site_occupancy
_atom_site_site_symmetry_order
_atom_site_calc_flag
_atom_site_refinement_flags_posn
_atom_site_refinement_flags_adp
_atom_site_refinement_flags_occupancy
_atom_site_disorder_assembly
_atom_site_disorder_group
Zn1 Zn 0.32157(4) 0.35138(4) 0.46165(9) 0.0174(3) Uani 1 1 d . . . . .
O1 O 0.3172(3) 0.4010(2) 0.3210(5) 0.0207(8) Uani 1 1 d . . . . .
O3 O 0.4452(3) 0.2217(3) 0.5684(5) 0.0286(15) Uani 1 1 d . . . . .
N1 N 0.3477(3) 0.4035(3) 0.6173(6) 0.0192(8) Uani 1 1 d . . . . .
N2 N 0.3726(3) 0.3193(3) 0.4107(6) 0.0192(8) Uani 1 1 d . . . . .
O2 O 0.2404(3) 0.2889(3) 0.4882(5) 0.0207(8) Uani 1 1 d . . . . .
C4 C 0.4441(3) 0.2327(3) 0.4495(8) 0.0162(17) Uani 1 1 d . . . . .
N3 N 0.4621(3) 0.2096(3) 0.3557(6) 0.0197(15) Uani 1 1 d . . . . .
H3 H 0.4663 0.2221 0.2737 0.024 Uiso 1 1 calc R . . . .
C1 C 0.3917(4) 0.2905(4) 0.4840(8) 0.0192(8) Uani 1 1 d . . . . .
H1 H 0.3856 0.2842 0.5765 0.023 Uiso 1 1 calc R . . . .
C3 C 0.3760(4) 0.4617(4) 0.6136(8) 0.0192(8) Uani 1 1 d . . . . .
H3A H 0.3819 0.4846 0.5365 0.023 Uiso 1 1 calc R . . . .
C6 C 0.3520(4) 0.4373(4) 0.2357(8) 0.0207(8) Uani 1 1 d . . . . .
C2 C 0.4217(4) 0.2709(4) 0.4060(8) 0.0192(8) Uani 1 1 d . . . . .
C5 C 0.4748(4) 0.1634(4) 0.3911(8) 0.0224(19) Uani 1 1 d . . . . .
H5A H 0.4959 0.1731 0.4765 0.027 Uiso 1 1 calc R . . . .
H5B H 0.5006 0.1611 0.3231 0.027 Uiso 1 1 calc R . . . .
C7 C 0.4967(5) 0.4372(5) 0.5782(11) 0.043(3) Uani 1 1 d . . . . .
N4 N 0.4882(6) 0.4131(5) 0.6758(11) 0.063(3) Uani 1 1 d . . . . .
C8 C 0.5057(5) 0.4673(6) 0.4526(12) 0.055(3) Uani 1 1 d . . . . .
H8A H 0.4809 0.4392 0.3850 0.083 Uiso 1 1 calc GR . . . .
H8B H 0.5468 0.4849 0.4265 0.083 Uiso 1 1 calc GR . . . .
H8C H 0.4954 0.4980 0.4616 0.083 Uiso 1 1 calc GR . . . .
C10 C 0.5791(17) 0.3459(16) 0.557(3) 0.089(11) Uiso 0.48(2) 1 d . U P A 1
H10A H 0.6013 0.3530 0.4742 0.134 Uiso 0.48(2) 1 calc GR . P A 1
H10B H 0.5418 0.3442 0.5379 0.134 Uiso 0.48(2) 1 calc GR . P A 1
H10C H 0.5715 0.3086 0.5949 0.134 Uiso 0.48(2) 1 calc GR . P A 1
N5 N 0.6426(16) 0.4313(16) 0.725(4) 0.109(12) Uiso 0.48(2) 1 d . U P A 1
C9 C 0.611(3) 0.390(3) 0.644(6) 0.138(17) Uiso 0.48(2) 1 d . U P A 1
loop_
_atom_site_aniso_label
_atom_site_aniso_U_11
_atom_site_aniso_U_22
_atom_site_aniso_U_33
_atom_site_aniso_U_23
_atom_site_aniso_U_13
_atom_site_aniso_U_12
Zn1 0.0233(5) 0.0219(5) 0.0058(4) -0.0001(4) 0.0006(4) 0.0104(5)
O1 0.027(2) 0.023(2) 0.0098(18) 0.0019(15) -0.0018(15) 0.0103(17)
O3 0.053(4) 0.034(4) 0.008(3) 0.001(3) 0.002(3) 0.028(3)
N1 0.027(2) 0.0237(18) 0.0065(15) -0.0012(15) 0.0001(15) 0.0129(16)
N2 0.027(2) 0.0237(18) 0.0065(15) -0.0012(15) 0.0001(15) 0.0129(16)
O2 0.027(2) 0.023(2) 0.0098(18) 0.0019(15) -0.0018(15) 0.0103(17)
C4 0.021(4) 0.015(4) 0.009(4) 0.003(3) 0.002(3) 0.007(4)
N3 0.030(4) 0.025(4) 0.006(3) 0.003(3) 0.002(3) 0.016(3)
C1 0.027(2) 0.0237(18) 0.0065(15) -0.0012(15) 0.0001(15) 0.0129(16)
C3 0.027(2) 0.0237(18) 0.0065(15) -0.0012(15) 0.0001(15) 0.0129(16)
C6 0.027(2) 0.023(2) 0.0098(18) 0.0019(15) -0.0018(15) 0.0103(17)
C2 0.027(2) 0.0237(18) 0.0065(15) -0.0012(15) 0.0001(15) 0.0129(16)
C5 0.031(5) 0.025(5) 0.013(4) 0.000(3) 0.000(4) 0.015(4)
C7 0.052(7) 0.038(6) 0.033(6) -0.003(5) -0.009(5) 0.018(5)
N4 0.092(9) 0.058(7) 0.044(6) 0.002(5) -0.008(6) 0.042(7)
C8 0.041(7) 0.058(8) 0.047(7) 0.022(6) 0.007(6) 0.010(6)
loop_
_atom_type_symbol
_atom_type_description
_atom_type_scat_dispersion_real
_atom_type_scat_dispersion_imag
_atom_type_scat_source
C C 0.0033 0.0016 'International Tables Vol C Tables 4.2.6.8 and 6.1.1.4'
H H 0.0000 0.0000 'International Tables Vol C Tables 4.2.6.8 and 6.1.1.4'
N N 0.0061 0.0033 'International Tables Vol C Tables 4.2.6.8 and 6.1.1.4'
O O 0.0106 0.0060 'International Tables Vol C Tables 4.2.6.8 and 6.1.1.4'
Zn Zn 0.2839 1.4301 'International Tables Vol C Tables 4.2.6.8 and 6.1.1.4'
loop_
_geom_angle_atom_site_label_1
_geom_angle_atom_site_label_2
_geom_angle_atom_site_label_3
_geom_angle
_geom_angle_site_symmetry_1
_geom_angle_site_symmetry_3
_geom_angle_publ_flag
O1 Zn1 N1 103.2(2) . . ?
O1 Zn1 N2 111.8(3) . . ?
N1 Zn1 N2 115.4(3) . . ?
O2 Zn1 O1 104.8(2) . . ?
O2 Zn1 N1 109.3(3) . . ?
O2 Zn1 N2 111.4(3) . . ?
C6 O1 Zn1 136.7(6) . . ?
N2 N1 Zn1 125.6(5) 8 . ?
C3 N1 Zn1 125.5(5) . . ?
C3 N1 N2 108.2(7) . 8 ?
N1 N2 Zn1 122.5(5) 15_554 . ?
C1 N2 Zn1 129.2(6) . . ?
C1 N2 N1 108.0(7) . 15_554 ?
C6 O2 Zn1 119.6(5) 8 . ?
O3 C4 N3 121.7(7) . . ?
O3 C4 C2 121.1(7) . . ?
N3 C4 C2 117.2(7) . . ?
C4 N3 C5 119.3(7) . . ?
N2 C1 C2 110.3(7) . . ?
N1 C3 C2 109.9(7) . 8 ?
O1 C6 C5 118.1(8) . 10_554 ?
O2 C6 O1 124.1(8) 15_554 . ?
O2 C6 C5 117.7(7) 15_554 10_554 ?
C1 C2 C4 125.9(7) . . ?
C1 C2 C3 103.5(8) . 15_554 ?
C3 C2 C4 130.2(8) 15_554 . ?
N3 C5 C6 111.4(7) . 16_544 ?
N4 C7 C8 178.2(14) . . ?
N5 C9 C10 177(6) . . ?
loop_
_geom_bond_atom_site_label_1
_geom_bond_atom_site_label_2
_geom_bond_distance
_geom_bond_site_symmetry_2
_geom_bond_publ_flag
Zn1 O1 1.975(5) . ?
Zn1 N1 1.975(7) . ?
Zn1 N2 1.984(7) . ?
Zn1 O2 1.962(6) . ?
O1 C6 1.276(10) . ?
O3 C4 1.241(9) . ?
N1 N2 1.357(9) 8 ?
N1 C3 1.330(11) . ?
N2 N1 1.357(9) 15_554 ?
N2 C1 1.328(11) . ?
O2 C6 1.266(10) 8 ?
C4 N3 1.337(11) . ?
C4 C2 1.465(12) . ?
N3 C5 1.461(11) . ?
C1 C2 1.390(12) . ?
C3 C2 1.391(11) 8 ?
C6 O2 1.266(10) 15_554 ?
C6 C5 1.530(12) 10_554 ?
C2 C3 1.391(11) 15_554 ?
C5 C6 1.530(12) 16_544 ?
C7 N4 1.135(14) . ?
C7 C8 1.454(15) . ?
C10 C9 1.37(6) . ?
N5 C9 1.27(6) . ?
