#------------------------------------------------------------------------------
#$Date: 2020-08-22 01:54:47 +0300 (Sat, 22 Aug 2020) $
#$Revision: 255532 $
#$URL: file:///home/coder/svn-repositories/cod/cif/4/13/51/4135179.cif $
#------------------------------------------------------------------------------
#
# This file is available in the Crystallography Open Database (COD),
# http://www.crystallography.net/
#
# All data on this site have been placed in the public domain by the
# contributors.
#
data_4135179
loop_
_publ_author_name
'Yan, Yong'
'Carrington, Elliot J.'
'P\'etuya, R\'emi'
'Whitehead, George F. S.'
'Verma, Ajay'
'Hylton, Rebecca K.'
'Tang, Chiu C.'
'Berry, Neil G.'
'Darling, George R.'
'Dyer, Matthew S.'
'Antypov, Dmytro'
'Katsoulidis, Alexandros P.'
'Rosseinsky, Matthew J.'
_publ_section_title
;
 Amino Acid Residues Determine the Response of Flexible Metal-Organic
 Frameworks to Guests.
;
_journal_name_full               'Journal of the American Chemical Society'
_journal_paper_doi               10.1021/jacs.0c03853
_journal_year                    2020
_chemical_formula_moiety         'C6 H5 N3 O3 Zn, 1.21(C6 H6)'
_chemical_formula_sum            'C13.24 H12.24 N3 O3 Zn'
_chemical_formula_weight         326.71
_space_group_crystal_system      trigonal
_space_group_IT_number           161
_space_group_name_Hall           'R 3 -2"c'
_space_group_name_H-M_alt        'R 3 c :H'
_atom_sites_solution_hydrogens   geom
_atom_sites_solution_primary     direct
_audit_creation_date             2018-01-08
_audit_creation_method
;
Olex2 1.2
(compiled 2017.08.10 svn.r3458 for OlexSys, GUI svn.r5381)
;
_cell_angle_alpha                90
_cell_angle_beta                 90
_cell_angle_gamma                120
_cell_formula_units_Z            18
_cell_length_a                   29.5677(11)
_cell_length_b                   29.5677(11)
_cell_length_c                   10.1237(3)
_cell_measurement_reflns_used    8486
_cell_measurement_temperature    100
_cell_measurement_theta_max      24.9840
_cell_measurement_theta_min      2.3840
_cell_volume                     7664.9(5)
_computing_cell_refinement       'CrysAlisPro 1.171.38.46 (Rigaku OD, 2015)'
_computing_data_collection       'CrysAlisPro 1.171.38.46 (Rigaku OD, 2015)'
_computing_data_reduction        'CrysAlisPro 1.171.38.46 (Rigaku OD, 2015)'
_computing_molecular_graphics    'Olex2 (Dolomanov et al., 2009)'
_computing_publication_material  'Olex2 (Dolomanov et al., 2009)'
_computing_structure_refinement  'ShelXL (Sheldrick, 2015)'
_computing_structure_solution    'ShelXS (Sheldrick, 2008)'
_diffrn_ambient_temperature      100
_diffrn_detector                 'CCD plate'
_diffrn_measured_fraction_theta_full 0.999
_diffrn_measured_fraction_theta_max 0.999
_diffrn_measurement_details
;
List of Runs (angles in degrees, time in seconds):

  # Type    Start    End  Width  t~exp~   \w     \q     \k     \f   Frames
--------------------------------------------------------------------------
  1  \w   -110.00  15.00   1.00   30.00    --  -20.00 -68.00   0.00  125
  2  \w   -110.00  15.00   1.00   30.00    --  -20.00 -68.00 120.00  125
  3  \w   -110.00  15.00   1.00   30.00    --  -20.00 -68.00 240.00  125
  4  \w   -110.00  15.00   1.00   30.00    --  -20.00 -30.00  90.00  125
;
_diffrn_measurement_device       'abstract diffractometer'
_diffrn_measurement_device_type
'Rigaku Mo Rotating Anode Source With Saturn Detector'
_diffrn_measurement_method       '\w scans'
_diffrn_orient_matrix_type
'CrysAlisPro convention (1999,Acta A55,543-557)'
_diffrn_orient_matrix_UB_11      -0.0010138000
_diffrn_orient_matrix_UB_12      -0.0242185000
_diffrn_orient_matrix_UB_13      -0.0106015000
_diffrn_orient_matrix_UB_21      -0.0258499000
_diffrn_orient_matrix_UB_22      -0.0134046000
_diffrn_orient_matrix_UB_23      0.0250770000
_diffrn_orient_matrix_UB_31      -0.0098743000
_diffrn_orient_matrix_UB_32      -0.0012619000
_diffrn_orient_matrix_UB_33      -0.0645534000
_diffrn_radiation_monochromator  graphite
_diffrn_radiation_probe          x-ray
_diffrn_radiation_type           MoK\a
_diffrn_radiation_wavelength     0.71073
_diffrn_reflns_av_R_equivalents  0.1016
_diffrn_reflns_av_unetI/netI     0.0616
_diffrn_reflns_Laue_measured_fraction_full 0.999
_diffrn_reflns_Laue_measured_fraction_max 0.999
_diffrn_reflns_limit_h_max       35
_diffrn_reflns_limit_h_min       -32
_diffrn_reflns_limit_k_max       35
_diffrn_reflns_limit_k_min       -35
_diffrn_reflns_limit_l_max       12
_diffrn_reflns_limit_l_min       -10
_diffrn_reflns_number            26341
_diffrn_reflns_point_group_measured_fraction_full 0.972
_diffrn_reflns_point_group_measured_fraction_max 0.972
_diffrn_reflns_theta_full        25.023
_diffrn_reflns_theta_max         25.023
_diffrn_reflns_theta_min         2.386
_diffrn_source                   'fine-focus sealed X-ray tube'
_diffrn_source_type              'Enhance (Mo) X-ray Source'
_exptl_absorpt_coefficient_mu    1.450
_exptl_absorpt_correction_T_max  1.00000
_exptl_absorpt_correction_T_min  0.81901
_exptl_absorpt_correction_type   multi-scan
_exptl_absorpt_process_details
;
CrysAlisPro 1.171.38.46 (Rigaku Oxford Diffraction, 2015)
Empirical absorption correction using spherical harmonics,
 implemented in SCALE3 ABSPACK scaling algorithm.
;
_exptl_crystal_colour            white
_exptl_crystal_colour_primary    white
_exptl_crystal_density_diffrn    1.274
_exptl_crystal_description       needle
_exptl_crystal_F_000             3000
_exptl_crystal_preparation       'Solvent Exchnage in Benzene'
_exptl_crystal_size_max          0.153
_exptl_crystal_size_mid          0.026
_exptl_crystal_size_min          0.022
_refine_diff_density_max         0.728
_refine_diff_density_min         -0.387
_refine_diff_density_rms         0.115
_refine_ls_abs_structure_details
;
 Flack x determined using 950 quotients [(I+)-(I-)]/[(I+)+(I-)]
 (Parsons, Flack and Wagner, Acta Cryst. B69 (2013) 249-259).
;
_refine_ls_abs_structure_Flack   0.014(12)
_refine_ls_extinction_method     none
_refine_ls_goodness_of_fit_ref   1.071
_refine_ls_hydrogen_treatment    constr
_refine_ls_matrix_type           full
_refine_ls_number_parameters     151
_refine_ls_number_reflns         2920
_refine_ls_number_restraints     13
_refine_ls_restrained_S_all      1.070
_refine_ls_R_factor_all          0.0767
_refine_ls_R_factor_gt           0.0604
_refine_ls_shift/su_max          0.000
_refine_ls_shift/su_mean         0.000
_refine_ls_structure_factor_coef Fsqd
_refine_ls_weighting_details
'w=1/[\s^2^(Fo^2^)+(0.0926P)^2^+19.1218P] where P=(Fo^2^+2Fc^2^)/3'
_refine_ls_weighting_scheme      calc
_refine_ls_wR_factor_gt          0.1459
_refine_ls_wR_factor_ref         0.1549
_reflns_Friedel_coverage         0.935
_reflns_Friedel_fraction_full    0.945
_reflns_Friedel_fraction_max     0.945
_reflns_number_gt                2433
_reflns_number_total             2920
_reflns_threshold_expression     'I > 2\s(I)'
_cod_data_source_file            ZnGlyPyr_Benzene_100K.cif
_cod_data_source_block           ZnGlyPyr_Benzene_100K
_cod_original_cell_volume        7664.8(6)
_cod_original_sg_symbol_H-M      'R 3 c'
_cod_database_code               4135179
_shelx_shelxl_version_number     2014/7
_chemical_oxdiff_formula         'Zn C8 H8 N3 O3'
_shelx_space_group_comment
;
The symmetry employed for this shelxl refinement is uniquely defined
by the following loop, which should always be used as a source of
symmetry information in preference to the above space-group names.
They are only intended as comments.
;
_reflns_odcompleteness_completeness 99.88
_reflns_odcompleteness_iscentric 1
_reflns_odcompleteness_theta     24.97
_olex2_refinement_description
;
1. Fixed Uiso
 At 1.2 times of:
  All C(H) groups, All C(H,H) groups, All N(H) groups
2. Uiso/Uaniso restraints and constraints
C8C \\sim C7C \\sim C12C \\sim C11C \\sim C10C \\sim C9C: within 2A with sigma
of 0.02 and sigma for terminal atoms of 0.04
C8A \\sim C7A \\sim C12A \\sim C11A \\sim C10A \\sim C9A: within 2A with sigma
of 0.02 and sigma for terminal atoms of 0.04
Uanis(N1) = Uanis(N2)
3. Others
 Sof(C7A)=Sof(H7A)=Sof(C8A)=Sof(H8A)=Sof(C9A)=Sof(H9A)=Sof(C10A)=Sof(H10A)=
 Sof(C11A)=Sof(H11A)=Sof(C12A)=Sof(H12A)=FVAR(1)
 Sof(C12B)=Sof(H12B)=Sof(C7B)=Sof(H7B)=Sof(C8B)=Sof(H8B)=Sof(C9B)=Sof(H9B)=
 Sof(C10B)=Sof(H10B)=Sof(C11B)=Sof(H11B)=FVAR(2)
 Sof(C10C)=Sof(H10C)=Sof(C11C)=Sof(H11C)=Sof(C12C)=Sof(H12C)=Sof(C7C)=Sof(H7C)=
 Sof(C8C)=Sof(H8C)=Sof(C9C)=Sof(H9C)=FVAR(3)
4.a Secondary CH2 refined with riding coordinates:
 C5(H5A,H5B)
4.b Aromatic/amide H refined with riding coordinates:
 C1(H1), C2(H2), N3(H3), C12B(H12B), C7B(H7B), C8B(H8B), C9B(H9B), C10B(H10B),
 C11B(H11B), C10C(H10C), C11C(H11C), C12C(H12C), C7C(H7C), C8C(H8C), C9C(H9C),
 C7A(H7A), C8A(H8A), C9A(H9A), C10A(H10A), C11A(H11A), C12A(H12A)
4.c Fitted hexagon refined as free rotating group:
 C12B(C7B,C8B,C9B,C10B,C11B), C10C(C11C,C12C,C7C,C8C,C9C), C7A(C8A,C9A,C10A,
 C11A,C12A)
;
_shelx_res_file
;
    yy_zn_gly_pyr_benzene.res created by SHELXL-2014/7

TITL YY_Zn_Gly_Pyr_benzene in R3c #161
REM reset to R3c #161
CELL 0.71073 29.567668 29.567668 10.123695 90 90 120
ZERR 18 0.001052 0.001052 0.000324 0 0 0
LATT -3
SYMM -Y,+X-Y,+Z
SYMM +Y-X,-X,+Z
SYMM +Y-X,+Y,0.5+Z
SYMM +X,+X-Y,0.5+Z
SYMM -Y,-X,0.5+Z
SFAC C H N O Zn
UNIT 238.27 220.27 54 54 18
SIMU 0.02 0.04 2 C8C C7C C12C C11C C10C C9C
SIMU 0.02 0.04 2 C8A C7A C12A C11A C10A C9A
EADP N1 N2

L.S. 16
PLAN  20
TEMP -173.15
BOND
fmap 2
acta
REM <olex2.extras>
REM <HklSrc "%.\\YY_Zn_Gly_Pyr_benzene.hkl">
REM </olex2.extras>

WGHT    0.092600   19.121799
FVAR       0.30518   0.47913   0.38087   0.34621
ZN1   5    0.311102    0.313738    0.603620    11.00000    0.02510    0.02139 =
         0.00963   -0.00030   -0.00106    0.01170
O2    4    0.274941    0.354406    0.584357    11.00000    0.02977    0.03093 =
         0.01707    0.00293    0.00171    0.01841
C6    1    0.294665    0.391130    0.501369    11.00000    0.01783    0.03490 =
         0.00981    0.00018   -0.00526    0.00991
N2    3    0.299540    0.266336    0.454137    11.00000    0.02783    0.02397 =
         0.00772   -0.00506   -0.00027    0.01114
C1    1    0.426650    0.392847    0.586305    11.00000    0.01680    0.02844 =
         0.01525   -0.00049    0.00033    0.00499
AFIX  43
H1    2    0.426819    0.397248    0.493318    11.00000   -1.20000
AFIX   0
N1    3    0.383907    0.362007    0.657680    11.00000    0.02783    0.02397 =
         0.00772   -0.00506   -0.00027    0.01114
O1    4    0.270796    0.264747    0.745541    11.00000    0.02466    0.02947 =
         0.01138    0.00405    0.00137    0.01299
C2    1    0.280694    0.214958    0.458712    11.00000    0.03191    0.02350 =
         0.01181    0.00219   -0.00080    0.01443
AFIX  43
H2    2    0.269250    0.194227    0.536470    11.00000   -1.20000
AFIX   0
C5    1    0.281048    0.433801    0.512081    11.00000    0.02219    0.03104 =
         0.01184   -0.00281    0.00418    0.01369
AFIX  23
H5A   2    0.304008    0.459402    0.579084    11.00000   -1.20000
H5B   2    0.288350    0.452219    0.426281    11.00000   -1.20000
AFIX   0
C3    1    0.470408    0.417377    0.665765    11.00000    0.03072    0.02141 =
         0.01457   -0.00311   -0.00312    0.01198
N3    3    0.227257    0.415472    0.547655    11.00000    0.03177    0.03479 =
         0.00853   -0.00097    0.00270    0.01546
AFIX  43
H3    2    0.218516    0.412133    0.631667    11.00000   -1.20000
AFIX   0
C4    1    0.523281    0.453315    0.620943    11.00000    0.02273    0.01152 =
         0.02047   -0.00381   -0.00234    0.00302
O3    4    0.534395    0.461202    0.500777    11.00000    0.03197    0.04309 =
         0.00915    0.00441    0.00521    0.00691

PART 2
AFIX  66
C12B  1    0.484203    0.546505    0.396313    31.00000    0.04007
AFIX  43
H12B  2    0.500667    0.528393    0.430254    31.00000   -1.20000
AFIX  65
C7B   1    0.431978    0.518961    0.359099    31.00000    0.05380
AFIX  43
H7B   2    0.412748    0.482024    0.367605    31.00000   -1.20000
AFIX  65
C8B   1    0.407889    0.545461    0.309439    31.00000    0.06805
AFIX  43
H8B   2    0.372196    0.526636    0.284005    31.00000   -1.20000
AFIX  65
C9B   1    0.436026    0.599505    0.296993    31.00000    0.07370
AFIX  43
H9B   2    0.419562    0.617617    0.263052    31.00000   -1.20000
AFIX  65
C10B  1    0.488251    0.627050    0.334207    31.00000    0.03757
AFIX  43
H10B  2    0.507480    0.663987    0.325700    31.00000   -1.20000
AFIX  65
C11B  1    0.512340    0.600550    0.383867    31.00000    0.05127
AFIX  43
H11B  2    0.548034    0.619376    0.409301    31.00000   -1.20000
AFIX  66

PART 0
PART 3
C10C  1    0.338682    0.574052    0.426738    41.00000    0.09111
AFIX  43
H10C  2    0.348203    0.589986    0.511360    41.00000   -1.20000
AFIX  65
C11C  1    0.373125    0.564037    0.356492    41.00000    0.07545
AFIX  43
H11C  2    0.406186    0.573126    0.393105    41.00000   -1.20000
AFIX  65
C12C  1    0.359194    0.540723    0.232677    41.00000    0.07449
AFIX  43
H12C  2    0.382734    0.533879    0.184668    41.00000   -1.20000
AFIX  65
C7C   1    0.310820    0.527424    0.179106    41.00000    0.06308
AFIX  43
H7C   2    0.301299    0.511490    0.094484    41.00000   -1.20000
AFIX  65
C8C   1    0.276376    0.537439    0.249350    41.00000    0.04228
AFIX  43
H8C   2    0.243315    0.528349    0.212737    41.00000   -1.20000
AFIX  65
C9C   1    0.290307    0.560752    0.373166    41.00000    0.06693
AFIX  43
H9C   2    0.266766    0.567597    0.421175    41.00000   -1.20000
AFIX  66

PART 0
PART -1
C7A   1    0.464890    0.514241    0.389180    21.00000    0.07263
AFIX  43
H7A   2    0.447327    0.477951    0.408612    21.00000   -1.20000
AFIX  65
C8A   1    0.487772    0.550554    0.490298    21.00000    0.05607
AFIX  43
H8A   2    0.485850    0.539082    0.578841    21.00000   -1.20000
AFIX  65
C9A   1    0.513468    0.603651    0.461865    21.00000    0.04924
AFIX  43
H9A   2    0.529107    0.628469    0.530975    21.00000   -1.20000
AFIX  65
C10A  1    0.516282    0.620436    0.332313    21.00000    0.06214
AFIX  43
H10A  2    0.533845    0.656725    0.312881    21.00000   -1.20000
AFIX  65
C11A  1    0.493399    0.584123    0.231193    21.00000    0.08749
AFIX  43
H11A  2    0.495322    0.595595    0.142650    21.00000   -1.20000
AFIX  65
C12A  1    0.467703    0.531026    0.259625    21.00000    0.09314
AFIX  43
H12A  2    0.452064    0.506208    0.190514    21.00000   -1.20000
AFIX   0
HKLF 4

REM  YY_Zn_Gly_Pyr_benzene in R3c #161
REM R1 =  0.0604 for    2433 Fo > 4sig(Fo)  and  0.0767 for all    2920 data
REM    151 parameters refined using     13 restraints

END

WGHT      0.0926     19.0967

REM Highest difference peak  0.728,  deepest hole -0.387,  1-sigma level  0.115
Q1    1   0.2830  0.3216  0.5974  11.00000  0.05    0.73
Q2    1   0.3333  0.6667  0.2713  10.33333  0.05    0.67
Q3    1   0.2812  0.2813  0.6021  11.00000  0.05    0.66
Q4    1   0.3131  0.2842  0.6036  11.00000  0.05    0.66
Q5    1   0.3393  0.3496  0.6181  11.00000  0.05    0.64
Q6    1   0.3160  0.3485  0.5916  11.00000  0.05    0.64
Q7    1   0.2833  0.5615  0.1160  11.00000  0.05    0.56
Q8    1   0.2999  0.5387  0.0360  11.00000  0.05    0.53
Q9    1   0.2440  0.5631  0.1220  11.00000  0.05    0.48
Q10   1   0.4391  0.5208  0.4272  11.00000  0.05    0.48
Q11   1   0.3282  0.5645  0.2649  11.00000  0.05    0.47
Q12   1   0.4339  0.5268  0.2996  11.00000  0.05    0.43
Q13   1   0.3118  0.6296  0.5998  11.00000  0.05    0.43
Q14   1   0.3135  0.5863  0.6231  11.00000  0.05    0.40
Q15   1   0.4611  0.4115  0.6136  11.00000  0.05    0.39
Q16   1   0.3190  0.6286  0.6403  11.00000  0.05    0.39
Q17   1   0.2869  0.5336  0.2146  11.00000  0.05    0.39
Q18   1   0.3899  0.3705  0.5886  11.00000  0.05    0.38
Q19   1   0.2989  0.5900  0.2371  11.00000  0.05    0.37
Q20   1   0.3008  0.5713  0.5100  11.00000  0.05    0.37
;
_shelx_res_checksum              31967
_shelx_hkl_file
;
   0   0  -3 298.096 82.0787   1
   0   0   3 297.346 72.6353   1
   0   0   3 335.809 66.5588   4
   0   0   3 231.970 105.519   3
   0   0   6 15620.6 401.004   1
   0   0   6 16144.1 317.005   4
   0   0   6 16655.3 518.620   3
   0   0   9 188.436 172.503   3
   0   0   9 22.1376 55.1025   4
   0   0   9-19.3327 108.599   1
   0   0  12 3134.60 385.704   3
   1  -1  -7 28.2361 94.3621   1
  -1   0  -4 608.454 103.207   1
   1  -1  -4 692.382 106.884   1
   1  -1  -1 1.40956 31.8433   1
   0   1  -1 55.3288 42.9380   3
   1  -1   2 875.896 74.4980   1
  -1   0   2 804.179 62.8939   1
  -1   0   2 799.322 79.9518   4
   0   1   2 659.509 80.5000   1
   1  -1   2 855.037 95.3210   3
  -1   0   2 667.074 99.3037   3
   0   1   5 86.2709 48.0534   4
  -1   0   5-80.9861 99.7670   2
  -1   0   5 59.7698 72.6016   1
   0   1   5 101.852 107.027   3
   1  -1   5 10.5161 66.6797   1
   1  -1   5 169.523 116.306   3
  -1   0   5 90.9184 118.971   3
  -1   0   5 65.7133 69.5151   4
   0   1   5 107.211 80.9441   1
   1  -1   5 75.6087 67.8198   4
   0   1   8 3.93449 137.063   3
   1  -1   8 217.849 93.4224   1
  -1   0   8 337.143 114.209   1
  -1   0   8 224.404 151.214   3
   0   1   8 253.342 115.487   1
   1  -1   8 295.298 80.9437   4
   0   1   8 349.323 57.3298   4
  -1   0   8 284.228 83.3107   4
   1  -1  11 405.315 222.725   3
  -1   0  11 279.741 206.657   3
   0   1  11 113.930 140.930   1
  -1   0  11 174.730 139.083   1
   0   1  11-130.238 203.161   3
   1  -1  11 158.150 132.796   1
   1   0  -5 103.337 78.0315   1
   0  -1  -5 39.4180 86.2516   1
   0  -1  -2 779.318 89.9898   1
   1   0  -2 749.759 65.3218   1
   1   0  -2 719.009 82.3367   4
  -1   1   1 29.1044 35.0848   1
   1   0   1 26.2167 41.1517   1
   0  -1   1 8.78070 38.6106   3
   0  -1   4 565.568 119.551   3
  -1   1   4 680.604 92.3994   1
   0  -1   4 641.152 83.7658   1
  -1   1   4 616.630 74.4004   4
   1   0   4 494.146 116.962   3
   1   0   4 700.824 98.6100   1
  -1   1   4 689.228 119.341   2
  -1   1   4 761.556 135.324   3
   1   0   4 628.425 68.4824   4
   0  -1   4 812.685 98.9905   4
  -1   1   7-30.3288 141.776   3
   1   0   7-70.0519 94.2233   1
  -1   1   7-92.3072 115.306   2
   0  -1   7 15.5429 78.6671   1
   0  -1   7 13.9219 75.9527   4
  -1   1   7-59.6511 87.7724   1
  -1   1   7 14.9345 57.9197   4
   1   0   7 12.6646 125.477   3
   1   0   7 59.5982 50.0144   4
   0  -1   7-101.099 143.228   3
   1   0  10-20.1203 174.940   3
   0  -1  10 110.112 110.426   1
   0  -1  10 91.8641 162.957   3
   0  -1  10 12.8612 68.6866   4
  -1   1  10-20.3249 177.638   3
  -1   1  10 128.590 140.388   1
   1   0  10 51.6107 121.158   1
   2  -2  -8 712.533 147.879   1
   2  -2  -5 45.4603 79.6616   1
   2  -2  -2 4260.22 146.596   1
   2  -2  -2 3914.60 123.224   4
   0   2  -2 4073.54 163.943   3
   2  -2  -2 3780.62 150.697   2
  -2   0   1-16.6059 48.0840   3
  -2   0   1-20.4612 61.7736   2
  -2   0   1-26.7330 58.0799   4
   0   2   1 7.04364 49.6741   1
   2  -2   1-16.4545 45.4485   4
   2  -2   1-0.22812 38.2575   3
   0   2   4 1665.39 141.387   1
   2  -2   4 1619.28 120.543   1
  -2   0   4 1802.28 130.048   4
  -2   0   4 1625.02 105.286   1
   2  -2   4 1722.03 167.925   3
  -2   0   4 1526.71 161.398   2
  -2   0   4 1510.70 157.544   3
  -2   0   7-26.6715 84.4879   4
   2  -2   7 155.106 78.6699   4
   0   2   7 77.9303 106.244   1
   2  -2   7-49.2570 138.700   3
   0   2   7 7.70066 23.8825   4
  -2   0   7-39.3257 88.0100   1
   0   2   7 177.917 140.748   3
  -2   0   7 155.070 148.226   3
   2  -2   7-61.5596 83.5934   1
   0   2   7 35.5750 101.388   2
   2  -2  10 340.480 69.7941   4
  -2   0  10 578.798 153.956   1
   2  -2  10 406.716 128.899   1
   0   2  10 552.613 163.008   1
  -2   0  10 646.751 219.752   3
   2  -2  10 635.993 218.644   3
   2  -1  -6 5025.55 240.477   1
   1  -2  -6 4778.46 252.431   1
   2  -1  -3 16845.4 296.245   4
   1  -2  -3 16175.9 218.956   4
  -1  -1  -3 17568.7 350.570   1
  -1   2  -3 17810.8 374.637   3
   1  -2  -3 17354.9 337.502   1
   2  -1  -3 16333.9 287.305   1
   1   1  -3 16638.0 382.626   3
   1   1  -3 16449.4 247.974   1
  -2   1   3 16105.7 278.167   4
   1  -2   3 15510.2 356.268   3
  -2   1   3 15574.5 368.846   3
  -1   2   3 16451.5 318.673   1
  -2   1   3 16174.3 362.360   2
  -1   2   3 15180.2 315.764   2
   1   1   3 15589.5 325.299   1
   1  -2   3 15236.1 265.151   1
  -1  -1   3 15566.4 364.548   3
  -1  -1   3 16220.8 315.373   4
   2  -1   3 15426.3 305.136   1
  -1  -1   3 15672.8 234.635   1
   2  -1   3 16002.1 344.733   3
  -2   1   3 16112.8 285.785   1
  -1   2   3 15346.0 201.630   4
   1  -2   6 5055.33 295.936   3
   1  -2   6 4397.31 211.619   1
  -1  -1   6 4686.74 207.243   1
  -1  -1   6 4722.95 286.276   3
  -2   1   6 4661.40 289.482   2
   2  -1   6 4521.49 281.848   3
  -1   2   6 4486.58 149.309   4
  -2   1   6 4733.51 294.882   3
  -1  -1   6 4746.17 302.792   2
   1   1   6 4071.47 117.632   4
   1   1   6 5472.87 303.663   3
   2  -1   6 4855.58 175.048   4
   1   1   6 4564.03 246.564   1
   2  -1   6 4720.87 239.769   1
  -1   2   6 4593.11 265.204   2
  -1  -1   6 4411.20 210.655   4
   1  -2   6 4482.78 209.674   4
  -1   2   6 4786.77 244.787   1
  -1   2   6 4351.71 289.310   3
  -2   1   6 4961.52 196.664   4
  -2   1   6 4952.56 231.325   1
   1  -2   9 3826.42 201.246   4
   1  -2   9 4083.24 347.890   3
  -1   2   9 3808.38 354.020   3
  -2   1   9 4289.31 279.075   1
   2  -1   9 3423.51 135.710   4
  -1  -1   9 3587.35 207.946   4
  -2   1   9 3578.91 337.535   3
   1  -2   9 4494.47 264.462   1
   2  -1   9 4565.22 282.778   1
  -1  -1   9 3833.78 245.443   1
   2  -1   9 3029.73 128.350   4
  -1   2   9 4120.97 289.686   1
   2  -1   9 3933.25 329.189   3
   1   1   9 4118.82 359.220   3
  -1  -1   9 4099.14 351.597   3
   1   1   9 4355.65 297.493   1
  -2   1   9 3724.28 181.781   4
   2  -1  12 668.959 263.617   3
  -2   1  12 893.467 254.847   3
   2  -1  12 724.088 176.702   1
   1   1  12 1083.61 271.148   3
  -1  -1  12 1067.52 269.280   3
  -1   2  12 916.914 281.001   3
   1   1  12 945.109 206.261   1
  -1   2  12 781.417 179.298   1
   1  -2  12 777.120 263.825   3
   0  -2  -7-78.7965 110.197   1
   2   0  -4 1693.03 120.610   1
   0  -2  -4 1859.35 152.718   1
   0  -2  -1-21.7532 51.2750   1
   2   0  -1 34.4969 61.3251   2
  -2   2  -1-16.4337 35.2884   3
   2   0  -1 35.1388 55.8859   4
   2   0  -1 65.3372 48.5641   3
  -2   2   2 3912.28 147.463   2
  -2   2   2 3829.67 117.435   4
   0  -2   2 3813.28 158.050   3
  -2   2   2 3683.82 142.690   1
   2   0   2 3745.97 154.735   1
  -2   2   5 49.8166 80.2292   1
  -2   2   5-45.6493 62.2632   4
   2   0   5 16.9523 37.0401   4
   0  -2   5-22.4070 77.8502   4
   2   0   5 6.89549 36.6249   4
   2   0   5-87.1531 81.2730   1
   0  -2   5-56.6913 117.428   3
  -2   2   5 41.7249 120.589   3
  -2   2   5 28.9657 86.4765   2
   0  -2   5 47.1290 64.3013   1
   2   0   5 5.33121 113.306   3
  -2   2   8 672.525 141.099   1
  -2   2   8 579.701 172.390   3
   0  -2   8 479.488 105.366   1
   0  -2   8 556.368 171.058   3
   2   0   8 370.354 43.9090   4
   2   0   8 473.455 131.562   1
   2   0   8 330.361 42.0527   4
   2   0   8 671.216 168.563   3
  -2   2   8 398.062 72.7264   4
   0  -2   8 502.288 114.715   4
   0  -2  11-48.6227 115.042   1
   0  -2  11-113.753 204.291   3
  -2   2  11-34.2885 133.199   1
   2   0  11-51.3841 176.180   3
   2   0  11-64.4357 146.101   1
  -2   2  11 356.617 203.470   3
   3  -3  -6 25378.4 549.967   1
   3  -3  -3 145.153 68.3692   4
   3  -3  -3 446.785 101.539   1
   3  -3  -3 206.432 94.5671   2
   0   3  -3 343.176 103.387   3
   3  -3   0 31081.9 320.062   1
  -3   0   0 31193.1 231.396   3
  -3   0   0 31237.6 340.961   4
   3  -3   0 31062.9 294.147   2
   0   3   0 30930.9 279.729   1
  -3   0   0 31142.5 313.661   2
   0   3   3 232.695 98.9336   1
  -3   0   3 235.046 90.0159   4
  -3   0   3 317.740 111.486   2
   3  -3   3 135.628 87.9721   3
  -3   0   3 59.4439 105.238   3
  -3   0   3 221.538 65.3721   1
   0   3   6 15544.9 455.482   1
  -3   0   6 15272.1 528.619   2
   3  -3   6 15728.0 495.770   3
  -3   0   6 16256.1 370.190   1
  -3   0   6 16123.4 519.916   3
  -3   0   6 15153.2 394.853   4
   3  -3   6 15367.2 402.632   1
   3  -3   6 16222.4 372.939   4
   0   3   6 15361.6 447.642   2
  -3   0   9 142.340 109.567   4
  -3   0   9 86.8848 181.462   3
  -3   0   9 29.9941 101.132   1
   3  -3   9 124.213 105.553   1
   3  -3   9 194.521 80.9677   4
   3  -3   9-21.0720 77.2167   4
   3  -3   9-286.250 159.913   3
   0   3   9-31.7532 160.315   3
   0   3   9 177.955 125.814   1
   2  -3  -7 2679.13 220.592   1
   3  -2  -7 2671.26 206.016   1
   3  -2  -4 451.694 87.9438   1
   2  -3  -4 372.520 94.9029   1
  -1   3  -4 624.813 126.621   3
   2  -3  -4 329.381 68.8353   4
   3  -2  -4 358.449 86.7937   4
   1   2  -4 466.735 123.506   3
  -2  -1  -4 415.566 105.648   1
  -3   1  -1 968.211 67.4922   4
   3  -2  -1 967.877 79.5043   2
  -3   1  -1 1113.88 73.4183   2
   2  -3  -1 1037.55 81.1520   1
  -2  -1  -1 1073.59 55.7298   2
   2  -3  -1 881.498 67.2934   4
   1   2  -1 840.011 74.9182   3
   3  -2  -1 1025.54 81.1633   4
  -1   3  -1 938.918 72.9539   3
   3  -2  -1 1001.75 76.6916   1
   2  -3   2 10885.3 230.914   3
  -2  -1   2 10841.1 261.387   4
  -2  -1   2 10285.9 264.131   3
   3  -2   2 10737.1 220.116   3
  -1   3   2 10838.4 250.531   1
   1   2   2 10449.0 256.765   1
  -1   3   2 11291.8 186.652   2
  -2  -1   2 11455.0 296.425   2
   3  -2   2 10801.6 198.136   4
  -3   1   2 10887.8 278.424   2
  -3   1   2 10733.3 195.615   1
  -3   1   2 10491.1 235.453   4
  -3   1   2 11152.3 264.173   3
   3  -2   5 7.20197 76.6248   1
   2  -3   5 119.435 75.6674   1
  -2  -1   5 181.275 117.054   3
  -2  -1   5 111.489 62.3568   1
  -1   3   5 81.8109 81.5007   2
  -3   1   5 72.8223 122.403   3
  -2  -1   5-24.1873 118.709   2
   3  -2   5 149.026 116.375   3
  -3   1   5 197.153 86.5171   4
  -2  -1   5 116.751 86.6007   4
  -3   1   5-19.8063 75.4650   1
   1   2   5 64.2648 106.464   1
  -3   1   5-0.68150 115.742   2
   2  -3   5 70.4209 80.0666   4
   2  -3   5 66.0338 111.923   3
  -1   3   5 74.8354 34.8708   4
  -1   3   5 115.901 97.0006   1
   1   2   8-0.32437 112.867   1
  -2  -1   8 177.285 99.0078   1
  -1   3   8 130.844 143.084   3
   1   2   8 112.901 139.623   3
   3  -2   8 58.4915 96.2678   1
   3  -2   8-108.476 138.200   3
  -2  -1   8 256.774 165.103   3
  -1   3   8 34.9575 122.432   2
  -3   1   8 145.310 159.321   3
   2  -3   8 120.764 92.3952   1
   2  -3   8 87.7118 89.0166   4
   3  -2   8 148.529 64.6139   4
  -1   3   8 0.62909 112.005   1
   3  -2   8 17.8216 64.6133   4
  -3   1   8 107.660 94.5696   1
  -2  -1   8 80.7225 90.3250   4
   2  -3   8-13.1449 141.103   3
  -3   1   8 8.00541 85.9799   4
  -2  -1  11 21.7031 119.297   1
   2  -3  11 34.2290 187.485   3
  -1   3  11 46.6299 148.553   1
  -3   1  11 59.8952 140.394   1
  -3   1  11 227.160 220.319   3
   3  -2  11-97.4456 189.024   3
   2  -3  11-9.70617 110.200   1
   1   2  11-145.407 204.021   3
   1   2  11 17.8265 149.236   1
   3  -2  11-136.095 137.633   1
  -1   3  11-220.117 207.178   3
  -2  -1  11 216.013 185.837   3
   3  -1  -5 72.7539 83.1292   4
   1  -3  -5 223.335 99.3391   1
  -1  -2  -5 313.234 114.135   1
   3  -1  -5 136.072 80.4576   1
   2   1  -5 43.5477 63.3563   1
   3  -1  -2 10867.5 244.548   4
  -2   3  -2 11310.0 238.616   3
   3  -1  -2 11190.9 197.195   1
  -1  -2  -2 10893.9 265.819   1
   3  -1  -2 10778.9 271.622   2
   1  -3  -2 10280.1 247.482   1
   2   1  -2 10661.5 265.755   3
   2   1  -2 10686.9 261.025   4
   2   1   1 871.621 84.5537   1
  -2   3   1 754.638 65.3725   4
   1  -3   1 934.465 70.2153   3
   3  -1   1 1023.09 71.5124   4
  -3   2   1 954.071 75.9096   1
  -3   2   1 917.233 78.6036   2
  -1  -2   1 949.117 78.4086   3
   2   1   1 936.134 54.5974   2
  -1  -2   1 947.963 93.9841   4
   3  -1   1 841.004 70.9122   2
  -2   3   1 854.030 83.9332   1
  -1  -2   1 648.326 86.3784   2
  -3   2   1 870.245 77.5889   4
   3  -1   4 404.215 111.668   3
   1  -3   4 183.557 105.915   3
   2   1   4 451.823 110.075   1
  -1  -2   4 398.334 64.7655   1
  -3   2   4 541.415 88.6409   4
   1  -3   4 374.227 73.7138   1
  -2   3   4 456.206 91.1074   2
   3  -1   4 460.971 63.8316   4
  -1  -2   4 430.017 99.5333   4
  -3   2   4 331.754 105.911   2
  -2   3   4 359.924 94.8780   1
   3  -1   4 279.661 82.7559   1
  -2   3   4 376.345 62.0696   4
  -3   2   4 442.995 95.9990   1
  -1  -2   4 391.341 124.399   3
  -3   2   4 373.906 123.364   3
  -1  -2   7 2384.13 159.064   1
  -3   2   7 2682.51 203.092   1
  -2   3   7 2495.59 263.449   3
   2   1   7 2377.27 243.694   3
  -3   2   7 2432.09 245.438   2
   3  -1   7 2534.24 115.775   4
   1  -3   7 2695.57 246.361   3
   2   1   7 2649.48 212.813   1
   3  -1   7 2255.82 114.745   4
  -2   3   7 2140.24 114.725   4
  -2   3   7 2279.01 201.465   1
  -3   2   7 2466.18 158.279   4
  -2   3   7 2641.41 229.325   2
   3  -1   7 2346.61 199.004   1
  -1  -2   7 2655.05 266.425   3
  -3   2   7 2692.78 258.423   3
   3  -1   7 2589.41 246.767   3
  -1  -2   7 2495.25 190.035   4
   1  -3   7 2385.46 173.051   1
   1  -3   7 2710.72 191.639   4
   1  -3  10 46.7736 89.7687   1
  -3   2  10 57.4394 178.782   3
   3  -1  10 94.6032 177.588   3
  -3   2  10 104.943 123.589   1
  -1  -2  10-78.0351 118.209   1
   3  -1  10 169.759 120.658   1
  -1  -2  10 162.436 192.457   3
   1  -3  10 200.787 96.6162   4
  -2   3  10 325.041 150.052   1
   1  -3  10 6.40108 161.482   3
  -2   3  10 59.3369 177.720   3
   2   1  10 12.7028 132.133   1
   2   1  10 276.503 188.607   3
   0  -3  -6 17647.3 494.867   1
   3   0  -6 16665.5 386.800   1
   3   0  -3 134.399 97.1184   3
   0  -3  -3 76.7810 84.1638   1
   3   0  -3 186.439 60.6723   1
   3   0  -3 161.949 99.5491   4
  -3   3   0 29719.6 328.518   4
  -3   3   0 29446.4 291.188   2
   3   0   0 29467.5 334.252   4
   0  -3   0 29759.0 294.161   3
   0  -3   0 28614.9 274.789   1
  -3   3   0 29141.9 311.264   1
   3   0   0 29092.5 306.913   2
   3   0   0 29241.5 225.459   3
  -3   3   3 267.531 72.0636   4
   0  -3   3 182.167 49.0667   1
  -3   3   3 190.228 89.9209   2
   0  -3   3 238.290 107.871   3
  -3   3   3 229.419 93.0826   1
   0  -3   3 294.687 94.2451   4
   3   0   3 259.317 102.417   1
   0  -3   6 24384.5 522.858   4
  -3   3   6 25179.3 655.204   3
   0  -3   6 26428.5 646.845   3
  -3   3   6 25030.9 607.563   2
   3   0   6 24769.5 555.812   1
   3   0   6 25185.8 620.172   3
  -3   3   6 25782.3 540.390   1
  -3   3   6 25098.9 398.423   4
   0  -3   6 25273.0 430.694   1
   0  -3   9 69.5437 93.4656   1
  -3   3   9 31.0079 58.8269   4
   3   0   9 49.5878 126.147   1
  -3   3   9 101.765 169.925   3
  -3   3   9-2.85530 126.226   1
   0  -3   9-150.090 162.436   3
   0  -3   9-87.2839 104.497   4
   3   0   9-20.2545 146.507   3
   4  -4  -7 151.223 106.617   1
   0   4  -4 75.3739 112.001   3
   4  -4  -4 129.684 77.1859   4
   4  -4  -4 149.406 82.6367   1
   0   4  -1-18.2652 61.6281   3
   4  -4  -1-20.3874 68.8204   1
   4  -4  -1 44.6314 70.7922   4
  -4   0  -1 79.1071 59.7633   2
   4  -4  -1 64.9406 63.3218   2
   0   4  -1 13.1431 38.6774   1
  -4   0  -1 95.6418 63.7645   4
   4  -4   2 853.231 102.786   4
   4  -4   2 770.246 81.3120   3
  -4   0   2 704.818 109.861   4
  -4   0   2 684.149 106.571   3
  -4   0   2 893.834 75.8631   1
  -4   0   2 886.820 133.431   2
   0   4   2 779.595 111.489   1
  -4   0   5 54.7361 96.4412   4
   0   4   5 206.110 91.7604   2
   4  -4   5 163.311 84.3009   1
   4  -4   5 105.626 112.569   3
  -4   0   5 131.389 137.066   3
  -4   0   5 90.7209 128.324   2
   0   4   5-0.70193 108.622   1
  -4   0   5 58.5296 70.5314   1
   4  -4   8 3047.10 220.605   1
  -4   0   8 2655.44 282.299   3
   0   4   8 2678.07 235.847   2
  -4   0   8 3201.81 208.435   1
   4  -4   8 3080.22 185.512   4
   4  -4   8 3281.03 288.975   3
   0   4   8 2920.37 287.526   3
  -4   0   8 2938.28 215.390   4
   0   4   8 3580.94 272.331   1
   4  -4   8 3095.41 196.795   4
   4  -4  11 91.8809 180.015   3
   0   4  11-73.6361 202.815   3
  -4   0  11 256.235 131.387   1
   0   4  11-28.1298 157.932   1
   4  -4  11 21.4013 111.350   1
  -4   0  11-390.077 224.749   3
   4  -3  -8 1058.79 163.747   1
  -1   4  -5 871.245 143.302   3
   3  -4  -5 1148.00 133.436   1
   1   3  -5 829.984 145.736   3
   4  -3  -5 1087.18 129.716   1
   4  -3  -5 926.843 115.543   4
   3  -4  -5 1018.94 95.7450   4
  -1   4  -2 1854.06 122.640   3
  -3  -1  -2 1859.61 96.9506   2
   3  -4  -2 1846.33 124.103   1
  -3  -1  -2 1639.92 70.6605   4
   3  -4  -2 1845.45 106.522   2
   4  -3  -2 1633.35 114.846   4
  -4   1  -2 1960.55 93.8205   4
   4  -3  -2 1755.13 117.999   1
  -4   1  -2 1811.49 116.011   2
   4  -3  -2 1945.74 130.585   2
   1   3  -2 1848.50 127.323   3
   3  -4  -2 1854.26 105.199   4
   3  -4   1 672.056 84.3621   1
  -4   1   1 484.129 78.1288   1
  -1   4   1 462.987 86.9018   3
  -3  -1   1 386.666 99.1525   2
  -4   1   1 559.534 94.9263   2
  -4   1   1 376.619 87.0145   4
  -4   1   1 487.534 70.4997   3
   3  -4   1 426.840 52.8368   3
   4  -3   1 432.069 82.4888   4
  -3  -1   1 433.287 74.5805   3
   1   3   1 307.190 80.8594   1
   4  -3   1 463.488 83.0058   2
   1   3   1 529.325 90.8256   3
  -1   4   1 403.112 84.1855   1
   3  -4   1 540.222 91.1189   4
  -3  -1   1 440.873 100.822   4
  -4   1   4 281.459 95.1824   4
  -3  -1   4 463.586 133.716   3
   4  -3   4 264.013 87.8373   1
   1   3   4 194.904 98.6985   1
   4  -3   4 213.234 91.4906   3
   3  -4   4 123.079 76.6608   1
  -3  -1   4 379.809 70.3222   1
   3  -4   4 194.094 102.398   3
  -4   1   4 312.653 79.7637   1
  -4   1   4 40.8732 118.914   3
   4  -3   4 249.104 66.6360   4
  -3  -1   4 308.087 107.418   4
  -1   4   4 287.062 106.324   1
  -1   4   4 236.951 82.4095   2
  -3  -1   4 226.405 128.994   2
  -4   1   4-4.05373 103.680   2
  -3  -1   7 546.011 121.841   4
  -4   1   7 635.676 178.043   3
  -4   1   7 640.279 118.643   4
   3  -4   7 499.795 109.336   1
   4  -3   7 561.075 100.872   4
   4  -3   7 565.070 117.969   1
   4  -3   7 424.104 142.814   3
   3  -4   7 548.024 122.241   4
   1   3   7 369.724 129.452   2
   4  -3   7 543.826 83.4977   4
  -1   4   7 659.002 141.457   1
  -3  -1   7 674.885 108.369   1
   3  -4   7 755.777 167.477   3
  -4   1   7 566.013 116.263   1
  -3  -1   7 610.655 167.327   3
   1   3   7 646.593 149.229   1
  -1   4   7 676.112 174.239   3
  -1   4   7 614.831 135.635   2
  -4   1  10 415.000 137.926   1
  -1   4  10 246.122 143.676   1
   3  -4  10 547.296 139.506   1
  -3  -1  10 552.114 204.169   3
   3  -4  10 304.169 95.0553   4
  -4   1  10 593.666 221.917   3
   4  -3  10 227.088 166.614   3
   1   3  10 314.554 169.390   1
   3  -4  10 355.451 165.363   3
  -1   4  10 701.921 195.106   3
  -3  -1  10 456.060 136.026   1
   4  -3  10 417.948 138.750   1
   1   3  10 509.037 188.036   3
   4  -2  -6 3773.88 210.478   1
   2  -4  -6 3808.73 240.813   1
  -2   4  -3 16292.2 363.276   3
  -2  -2  -3 15522.5 360.482   1
   4  -2  -3 14343.1 369.329   2
   2  -4  -3 15142.1 225.176   4
   2  -4  -3 15575.1 353.493   1
   4  -2  -3 15517.9 295.223   1
   4  -2  -3 15120.1 331.615   4
   2   2  -3 15404.4 382.575   3
  -4   2   0 1953.10 102.016   4
  -2   4   0 1935.34 95.9701   1
   2   2   0 2005.24 89.3004   3
  -2   4   0 2128.86 91.8433   3
   2  -4   0 2119.76 98.7960   1
  -2  -2   0 1958.46 98.1452   2
   2   2   0 1986.42 93.6351   1
   4  -2   0 2010.54 112.763   4
   2   2   0 2080.13 105.124   2
   4  -2   0 2045.49 110.617   1
  -2  -2   0 2101.43 90.1748   3
  -4   2   0 2043.28 103.250   2
   2   2   0 2058.80 117.088   4
  -2  -2   0 1967.37 115.164   4
   4  -2   0 1983.02 99.7245   2
   2  -4   0 2085.25 85.8905   2
   2  -4   0 2226.07 93.3170   3
  -4   2   3 16594.6 306.198   1
  -2  -2   3 15541.5 366.629   4
  -2   4   3 15694.4 353.879   1
   2  -4   3 16464.7 353.472   3
  -2   4   3 16158.7 295.601   2
   4  -2   3 15652.7 256.570   4
  -4   2   3 16066.3 328.688   4
   2   2   3 15979.9 264.922   2
  -4   2   3 15012.3 383.352   3
   4  -2   3 15017.9 323.468   3
  -2  -2   3 15340.3 181.233   1
   2   2   3 16144.0 370.036   1
  -4   2   3 16247.9 391.086   2
  -2   4   3 16175.8 225.472   4
  -2  -2   3 15787.1 374.326   3
  -2  -2   3 16375.5 425.221   2
  -4   2   6 3714.25 200.723   4
  -4   2   6 3724.31 275.808   3
  -2  -2   6 3958.21 169.434   1
  -2  -2   6 3359.29 275.638   2
  -2   4   6 3702.74 232.565   1
   4  -2   6 3752.79 149.880   4
  -2  -2   6 3861.03 272.094   3
   2  -4   6 4361.07 274.335   3
   4  -2   6 4266.44 263.687   3
  -2   4   6 3372.10 118.174   4
   4  -2   6 3809.47 227.818   1
  -4   2   6 3522.02 207.222   1
   4  -2   6 3768.52 157.196   4
  -4   2   6 3474.70 261.295   2
  -2  -2   6 3407.52 212.603   4
  -2   4   6 3651.47 229.399   2
   2  -4   6 3814.47 191.990   1
   2   2   6 3685.46 237.423   1
   2  -4   6 3638.80 211.561   4
  -4   2   9 3703.16 344.282   3
  -2   4   9 3392.39 320.404   3
  -2   4   9 3528.76 277.921   1
   4  -2   9 3488.59 258.640   1
  -4   2   9 3790.54 272.176   1
  -2  -2   9 3792.74 227.977   1
   2   2   9 3528.46 285.349   1
  -2  -2   9 3124.99 318.911   3
  -4   2   9 3188.37 190.743   4
   2  -4   9 2970.76 212.885   4
   4  -2   9 2354.33 278.327   3
   2  -4   9 3109.82 302.581   3
   2  -4   9 3299.33 227.826   1
   4  -2   9 2703.65 115.821   4
  -2  -2   9 3211.08 233.989   4
   2   2   9 3646.38 332.775   3
   1  -4  -7 468.310 121.953   1
   4  -1  -7 886.854 128.897   1
   1  -4  -4 280.021 106.410   1
   3   1  -4 322.116 120.202   3
  -1  -3  -4 215.540 107.933   1
   4  -1  -4 297.306 97.7488   4
   3   1  -4 80.4567 91.6890   4
   3   1  -4 215.786 59.0958   1
   4  -1  -4 211.653 72.7777   1
  -3   4  -4 267.269 105.377   3
   1  -4  -1 447.508 86.1575   1
  -3   4  -1 507.118 55.9032   3
  -4   3  -1 472.083 74.1452   4
   4  -1  -1 547.118 89.6018   2
   3   1  -1 430.787 69.5149   3
  -1  -3  -1 551.870 89.2509   3
   4  -1  -1 567.337 95.4173   4
   4  -1  -1 447.237 71.7544   3
   3   1  -1 634.105 102.486   4
  -3   4  -1 628.141 75.0519   1
  -1  -3  -1 527.001 90.4906   1
   4  -1  -1 461.560 65.8255   1
   3   1  -1 539.389 103.225   2
  -4   3  -1 623.608 82.5826   2
   4  -1   2 1803.03 92.3860   4
   4  -1   2 1926.16 114.653   2
   1  -4   2 1884.48 76.5597   1
  -3   4   2 1896.56 130.865   1
  -4   3   2 1849.99 118.520   4
  -4   3   2 1793.35 130.959   2
   1  -4   2 1883.29 123.937   3
   3   1   2 1978.21 81.0140   4
  -1  -3   2 1974.95 151.909   4
  -1  -3   2 1839.98 133.439   3
  -4   3   2 2121.98 125.159   1
   3   1   2 1955.14 98.8151   2
  -3   4   2 1917.17 102.127   4
   3   1   2 1764.18 139.053   1
  -3   4   2 1891.64 103.451   2
   4  -1   5 988.608 131.266   1
  -4   3   5 901.089 104.836   4
   1  -4   5 739.445 87.4287   1
  -4   3   5 641.236 136.619   2
  -3   4   5 1026.48 138.971   1
   1  -4   5 781.601 139.899   3
   1  -4   5 882.719 129.031   4
   3   1   5 569.823 123.487   1
  -3   4   5 766.411 82.0640   4
  -3   4   5 575.031 108.181   2
   4  -1   5 758.784 127.749   3
  -1  -3   5 864.588 133.845   4
   4  -1   5 921.687 70.7170   4
  -1  -3   5 815.894 147.354   3
  -4   3   5 751.444 111.801   1
  -4   3   5 756.574 160.759   3
  -1  -3   5 831.033 79.9434   1
   4  -1   8 645.647 49.7112   4
   1  -4   8 961.900 127.180   1
   4  -1   8 861.230 152.694   1
  -1  -3   8 1260.10 165.715   4
  -3   4   8 981.443 85.2942   4
   3   1   8 1314.11 209.477   3
  -1  -3   8 963.662 192.969   3
   4  -1   8 647.206 49.5459   4
  -4   3   8 1290.53 230.113   3
   1  -4   8 1180.87 204.423   3
   4  -1   8 777.864 174.522   3
  -3   4   8 1032.31 158.323   1
   3   1   8 1347.46 186.034   1
  -4   3   8 943.586 113.430   4
  -4   3   8 1269.34 166.845   1
  -1  -3   8 1017.83 119.738   1
  -3   4   8 1064.82 219.939   3
   1  -4   8 1047.07 155.790   4
  -4   3  11 46.3183 148.201   1
   3   1  11 152.163 161.913   1
   1  -4  11-35.1891 98.6134   1
   4  -1  11 212.692 155.238   1
   3   1  11 127.601 158.871   2
  -1  -3  11 214.485 217.219   3
  -3   4  11 191.204 143.228   1
   3   1  11 257.566 200.771   3
   1  -4  11 48.1268 178.021   3
   4  -1  11-48.1271 192.002   3
   4  -1  11-144.014 159.769   2
  -4   3  11 623.645 261.158   3
  -3   4  11-263.202 198.722   3
   4   0  -5-95.1797 101.525   4
   0  -4  -5-73.9565 103.929   1
   4   0  -5 74.5059 65.2351   1
  -4   4  -2 877.369 87.3790   3
   0  -4  -2 1118.15 122.768   1
   4   0  -2 1120.13 118.532   3
   4   0  -2 1020.94 73.4672   1
   4   0  -2 926.183 131.293   2
   4   0  -2 1121.70 138.630   4
  -4   4   1-16.3946 59.5309   2
   4   0   1 26.0921 61.1738   2
  -4   4   1 137.727 79.6486   1
   4   0   1 81.8131 65.8796   4
   0  -4   1 81.4615 71.1689   3
   0  -4   1 6.39499 38.9971   1
   4   0   1-11.5847 52.3983   3
  -4   4   1 9.44830 74.6922   4
   0  -4   4 34.2822 40.8141   1
  -4   4   4 84.6584 66.8172   4
   0  -4   4-29.5223 94.4777   4
  -4   4   4 115.621 92.3883   2
   4   0   4-7.22261 29.6539   4
  -4   4   4-9.65942 90.1850   1
   0  -4   4 80.7033 98.2591   3
   4   0   4 36.6745 96.8773   1
   4   0   4 112.782 78.8611   2
  -4   4   7 94.1087 143.896   3
   0  -4   7 180.987 105.987   4
   0  -4   7 98.8402 70.6103   1
  -4   4   7 115.310 109.453   1
   4   0   7 64.9898 121.350   1
   0  -4   7-193.766 128.762   3
  -4   4   7-38.1597 68.0875   4
  -4   4   7 184.483 132.336   2
   4   0   7-68.7334 133.412   3
   4   0  10 625.991 168.364   2
   4   0  10 535.180 166.102   1
  -4   4  10 1097.50 194.777   1
   4   0  10 637.851 216.259   3
  -4   4  10 686.105 230.702   3
   0  -4  10 691.721 125.853   1
   0  -4  10 597.585 200.941   3
   5  -5  -5 12.1170 94.1574   1
   0   5  -5 92.0584 108.482   3
   5  -5  -5-9.67264 80.5122   4
  -5   0  -2 2510.68 119.934   4
   0   5  -2 2589.33 150.810   3
   5  -5  -2 2747.22 160.687   1
   5  -5  -2 2541.54 140.754   2
   5  -5  -2 2109.87 134.885   4
  -5   0  -2 2722.78 135.402   2
   5  -5   1-41.7567 87.3755   2
  -5   0   1 165.602 101.486   2
   5  -5   1-14.7000 38.1614   3
   5  -5   1-28.0489 87.5164   4
   5  -5   1 19.0559 83.1665   1
  -5   0   1 62.4872 71.6798   3
   0   5   1-17.1611 78.6498   1
   0   5   1-44.5715 81.8161   3
  -5   0   1 8.91918 94.9687   4
  -5   0   4 2703.47 187.950   4
   0   5   4 3114.27 203.737   1
  -5   0   4 2994.27 229.551   2
   0   5   4 2665.27 134.115   2
  -5   0   4 3069.64 214.830   3
  -5   0   4 3150.19 139.146   1
   5  -5   4 2845.13 167.789   4
   5  -5   4 2621.32 168.455   3
   5  -5   7 28.4576 79.0958   4
  -5   0   7-64.2443 107.002   4
   5  -5   7 55.1929 120.899   3
   0   5   7-75.0599 107.202   2
   0   5   7-5.88766 124.975   1
   5  -5   7 19.6072 94.5355   1
  -5   0   7-79.6733 86.6925   1
  -5   0   7 25.5126 138.155   3
   5  -5  10 2353.27 281.306   3
   0   5  10 2397.63 266.921   1
  -5   0  10 2239.85 208.641   1
   5  -5  10 2416.40 226.730   1
   0   5  10 2427.39 327.217   3
   5  -5  10 1899.94 159.002   4
  -5   0  10 2306.88 293.033   3
   4  -5  -6 5101.18 275.293   1
   5  -4  -6 5340.56 257.665   1
   5  -4  -6 5364.70 236.765   4
   4  -5  -6 5456.95 202.299   4
  -1   5  -3 4310.11 204.423   3
   5  -4  -3 4262.64 191.031   1
  -5   1  -3 4304.16 141.594   4
   4  -5  -3 4350.08 203.325   1
   1   4  -3 4189.51 212.941   3
   4  -5  -3 4146.22 162.151   4
   4  -5  -3 4060.85 174.861   2
  -4  -1  -3 4093.08 106.993   4
   5  -4  -3 4227.36 207.935   2
   5  -4  -3 3992.75 180.820   4
   4  -5   0 7057.57 177.602   2
  -1   5   0 7427.21 188.361   3
  -5   1   0 7204.50 127.145   3
   5  -4   0 7256.35 214.735   1
   4  -5   0 7529.83 166.642   3
  -4  -1   0 7463.70 160.535   3
  -5   1   0 7595.60 205.137   2
   1   4   0 7464.31 191.921   3
   4  -5   0 7399.73 202.679   1
  -5   1   0 7318.88 219.717   4
   5  -4   0 7255.06 191.261   2
  -4  -1   0 7167.82 219.591   4
  -1   5   0 7523.85 186.341   1
  -4  -1   0 7704.14 201.262   2
   4  -5   0 6787.79 211.295   4
   5  -4   0 7377.55 217.312   4
   1   4   0 7292.66 178.684   1
  -4  -1   3 15076.1 432.331   2
  -5   1   3 14573.1 359.227   4
   1   4   3 14764.2 209.768   2
  -1   5   3 14509.4 231.152   2
  -4  -1   3 15792.0 385.871   3
  -5   1   3 15362.4 279.995   1
   4  -5   3 14797.1 320.390   3
  -5   1   3 15686.8 424.043   2
  -4  -1   3 14850.8 381.765   4
   1   4   3 14277.3 369.530   1
  -4  -1   3 15872.0 224.673   1
  -5   1   3 14964.7 386.291   3
  -1   5   3 15028.3 371.051   1
   5  -4   3 14501.7 366.382   2
   5  -4   3 14950.9 313.854   3
   5  -4   3 14641.8 310.805   4
  -5   1   6 1199.36 124.272   1
  -5   1   6 1125.39 143.439   4
  -4  -1   6 908.977 144.529   4
  -4  -1   6 1413.54 116.976   1
   4  -5   6 1535.22 145.303   1
  -4  -1   6 1149.23 178.537   3
   4  -5   6 1129.39 159.982   3
   1   4   6 1108.68 165.020   1
  -5   1   6 1276.61 201.825   3
   5  -4   6 1247.94 117.186   4
  -1   5   6 1208.49 156.594   1
  -4  -1   6 1140.82 199.778   2
   5  -4   6 1094.80 160.155   3
  -5   1   6 1142.41 180.335   2
   5  -4   6 1123.20 141.397   1
  -1   5   6 1304.86 149.787   2
  -1   5   9 3429.88 347.339   3
   4  -5   9 4025.78 341.540   3
  -4  -1   9 4064.08 233.074   1
   4  -5   9 3731.36 217.492   4
  -4  -1   9 4057.19 353.718   3
  -4  -1   9 3288.98 247.887   4
  -5   1   9 4030.76 360.759   3
   5  -4   9 3726.41 320.677   3
   1   4   9 4156.67 358.209   3
   1   4   9 3715.26 294.227   1
  -5   1   9 3561.60 239.289   4
   5  -4   9 3892.40 191.887   4
  -5   1   9 4208.33 256.470   1
   5  -4   9 3976.90 275.990   1
  -1   5   9 4243.41 308.430   1
   4  -5   9 3895.75 237.826   4
   4  -5   9 4005.09 254.670   1
   5  -4   9 3435.66 194.316   4
   5  -3  -7 2360.46 188.861   1
   3  -5  -7 2087.94 209.484   1
  -2   5  -4 420.827 109.462   3
   2   3  -4 489.086 115.633   3
   3  -5  -4 318.047 110.562   1
   5  -3  -4 422.304 101.997   4
   5  -3  -4 353.784 82.7358   1
   3  -5  -4 365.847 70.9188   4
   5  -3  -4 433.349 129.313   2
   3  -5  -1 550.075 56.6198   2
   2   3  -1 494.492 109.909   2
   2   3  -1 696.821 115.173   4
  -3  -2  -1 627.788 89.1896   3
   5  -3  -1 586.886 92.4585   2
  -2   5  -1 633.608 75.0666   3
  -3  -2  -1 557.995 84.1286   4
   3  -5  -1 623.197 95.3341   1
  -2   5  -1 508.571 68.3885   1
  -5   2  -1 537.095 87.6637   2
   3  -5  -1 532.320 84.2991   4
  -5   2  -1 572.107 84.7090   4
   2   3  -1 654.854 54.7987   1
  -3  -2  -1 684.603 66.6055   2
   5  -3  -1 527.568 100.940   4
   5  -3  -1 576.602 83.1733   1
   2   3  -1 454.506 82.8937   3
  -3  -2   2 10387.6 324.245   2
   3  -5   2 10658.1 219.827   1
  -5   2   2 10662.9 234.087   1
  -3  -2   2 10384.5 299.837   4
  -5   2   2 10597.0 279.396   4
  -3  -2   2 10407.4 267.723   3
   5  -3   2 10378.2 237.728   4
   2   3   2 10695.7 292.483   1
   3  -5   2 10754.4 237.772   3
   5  -3   2 10370.2 201.209   3
   5  -3   2 10413.0 268.719   2
  -5   2   2 10830.5 295.264   2
  -2   5   2 10345.2 271.652   1
   2   3   2 10457.5 158.623   2
  -5   2   2 10617.0 272.411   3
  -5   2   5 1302.11 180.114   2
  -5   2   5 1042.38 122.087   4
  -5   2   5 833.899 163.366   3
   2   3   5 1163.22 153.053   1
  -3  -2   5 1244.58 184.368   2
  -2   5   5 1289.23 143.927   1
  -5   2   5 1076.93 116.368   1
  -3  -2   5 1162.49 88.6499   1
   5  -3   5 1104.98 134.885   3
  -2   5   5 1202.45 123.591   2
   3  -5   5 1056.24 114.077   1
   5  -3   5 1157.27 140.587   1
  -2   5   5 1035.62 66.0791   4
  -3  -2   5 1405.22 176.884   3
   3  -5   5 1383.51 164.891   3
  -3  -2   5 1052.79 150.341   4
   5  -3   5 1174.35 100.732   4
  -2   5   8 1819.19 201.233   2
   2   3   8 1952.69 220.737   2
  -2   5   8 2186.45 267.706   3
   3  -5   8 1777.55 233.745   3
   5  -3   8 2145.93 235.050   3
  -3  -2   8 1849.47 190.581   4
  -5   2   8 2361.58 207.103   1
   3  -5   8 1941.19 190.969   4
  -2   5   8 2201.53 220.539   1
  -3  -2   8 2399.61 167.000   1
  -5   2   8 2213.57 266.778   3
   5  -3   8 1897.34 132.748   4
   5  -3   8 1952.33 126.870   4
   2   3   8 2186.08 222.823   1
   3  -5   8 2140.68 176.665   1
  -3  -2   8 1987.87 250.313   3
   2   3   8 2011.95 260.330   3
   5  -3   8 2268.75 211.333   1
  -5   2   8 1840.02 168.357   4
  -2   5  11 190.424 177.174   1
  -5   2  11 10.2926 186.487   3
   3  -5  11-15.3207 107.635   1
  -5   2  11 331.519 146.413   1
   2   3  11 113.461 157.877   1
  -2   5  11 96.9922 207.058   3
   5  -3  11 307.033 170.827   2
   5  -3  11-5.49712 164.411   3
   2   3  11 178.940 163.995   2
   5  -3  11 181.524 140.353   1
  -3  -2  11-126.274 202.921   3
   3  -5  11-35.7377 179.515   3
   2   3  11 21.1634 194.701   3
   5  -2  -8 1736.31 177.433   1
  -3   5  -5 1176.97 161.622   3
   3   2  -5 1131.51 88.4067   1
   5  -2  -5 1046.53 116.049   1
  -2  -3  -5 1125.04 161.184   1
   5  -2  -5 864.780 131.005   4
   2  -5  -5 887.017 137.160   1
   3   2  -5 1153.81 162.143   3
   2  -5  -5 914.217 71.2168   4
   5  -2  -2 11471.7 238.186   1
   2  -5  -2 11414.7 212.284   4
   3   2  -2 11280.5 313.883   4
  -3   5  -2 11491.6 248.435   3
  -2  -3  -2 11306.7 164.330   2
  -2  -3  -2 10998.6 185.272   4
  -2  -3  -2 11884.1 300.217   1
   5  -2  -2 10672.2 297.938   2
   3   2  -2 11715.4 289.754   3
   2  -5  -2 11833.7 291.533   1
   5  -2  -2 10675.1 283.744   4
  -5   3  -2 11561.3 279.760   2
  -5   3  -2 11223.6 248.626   4
   3   2  -2 11030.5 334.752   2
  -3   5   1 648.008 99.1193   1
   5  -2   1 770.375 95.7090   2
  -3   5   1 645.010 59.6939   2
  -5   3   1 649.768 91.2434   2
   3   2   1 558.264 96.3791   1
  -5   3   1 567.761 101.251   4
  -2  -3   1 605.073 104.909   4
  -3   5   1 811.823 98.8518   4
   3   2   1 729.859 94.0161   3
   2  -5   1 626.967 70.7516   1
   3   2   1 666.638 86.2827   4
   5  -2   1 863.867 96.5445   4
   2  -5   1 785.418 88.3604   3
   3   2   1 625.265 67.1029   2
  -5   3   1 707.968 101.334   1
  -2  -3   1 681.167 107.360   2
  -2  -3   1 696.354 89.7814   3
  -2  -3   4 264.531 38.3101   1
  -5   3   4 168.077 113.548   3
  -2  -3   4 308.777 121.705   4
   5  -2   4 226.593 84.5533   3
   3   2   4 333.978 125.074   1
  -5   3   4 371.226 93.6463   1
   2  -5   4 224.512 62.9182   1
  -5   3   4 214.612 79.1350   4
  -3   5   4 161.497 73.4420   2
  -5   3   4 381.481 126.629   2
  -2  -3   4 404.439 135.885   2
   2  -5   4 408.963 109.779   3
   5  -2   4 256.298 89.3544   2
   3   2   4 317.112 77.2012   2
  -3   5   4 374.967 112.401   1
  -2  -3   4 186.399 116.996   3
   5  -2   4 206.621 87.6246   1
  -3   5   4 377.811 65.4974   4
   5  -2   4 273.138 60.6959   4
  -3   5   7 2891.24 232.157   1
   2  -5   7 2495.49 246.226   3
  -3   5   7 2602.04 216.021   2
  -5   3   7 2601.63 265.667   3
   5  -2   7 2647.72 221.063   1
   5  -2   7 2462.71 227.587   3
  -2  -3   7 2755.40 271.903   3
  -3   5   7 2289.65 109.708   4
  -3   5   7 2044.94 245.850   3
   2  -5   7 2493.04 169.586   1
  -5   3   7 2235.15 246.215   2
  -2  -3   7 2562.28 214.814   4
   5  -2   7 2408.81 120.201   4
   2  -5   7 2258.82 200.484   4
  -5   3   7 2644.72 197.314   1
  -5   3   7 2373.83 170.481   4
   5  -2   7 2281.63 123.872   4
  -2  -3   7 2759.12 151.597   1
   3   2   7 2595.04 231.610   1
   5  -2  10 1277.61 251.777   3
   3   2  10 1692.77 247.361   1
  -2  -3  10 1561.11 264.242   3
  -3   5  10 1296.05 259.928   3
   3   2  10 1685.19 224.780   2
   2  -5  10 1726.23 173.652   1
   5  -2  10 1288.84 218.232   2
  -2  -3  10 1385.40 155.945   1
   5  -2  10 1692.62 215.889   1
   2  -5  10 1986.08 281.670   3
   3   2  10 1818.99 275.567   3
  -5   3  10 1610.48 206.530   1
  -3   5  10 1339.97 214.270   1
  -5   3  10 1426.31 251.059   3
   1  -5  -6 1124.68 165.143   1
  -1  -4  -6 1326.22 173.251   1
   5  -1  -6 1157.97 123.725   1
   5  -1  -6 1389.24 160.299   4
   4   1  -6 1395.02 117.321   1
   1  -5  -3 14272.7 198.544   4
   5  -1  -3 14881.1 415.824   2
   5  -1  -3 14368.5 374.455   4
   4   1  -3 15047.5 384.755   3
   5  -1  -3 15263.0 385.528   3
   5  -1  -3 15424.0 271.881   1
  -4   5  -3 15616.8 345.245   3
   4   1  -3 14650.5 392.352   4
   1  -5  -3 15824.6 382.500   1
   4   1  -3 14516.5 210.337   1
   4   1  -3 14298.2 417.079   2
  -1  -4  -3 14803.1 387.144   1
  -1  -4   0 7113.33 189.305   3
  -5   4   0 6541.43 202.443   1
  -4   5   0 7169.90 181.124   2
   4   1   0 7160.33 156.583   3
  -1  -4   0 6909.94 174.086   1
   1  -5   0 6944.17 180.350   1
   4   1   0 7060.63 197.863   2
   5  -1   0 6988.90 209.716   4
  -4   5   0 7247.57 156.567   3
  -5   4   0 6894.57 190.165   2
  -4   5   0 7028.71 210.916   4
   4   1   0 6842.64 212.953   4
   5  -1   0 6894.56 124.245   3
  -5   4   0 6479.75 203.663   4
  -1  -4   0 6716.76 178.874   2
   1  -5   0 6864.75 190.114   3
  -4   5   0 6571.87 193.738   1
   5  -1   0 6676.11 194.104   2
   1  -5   3 4578.28 208.941   3
  -1  -4   3 4404.52 220.860   4
  -5   4   3 4365.06 205.473   2
   4   1   3 4450.65 167.088   2
   5  -1   3 4784.40 144.230   4
   1  -5   3 4061.68 118.142   1
  -4   5   3 4346.81 178.827   2
  -5   4   3 4546.35 199.136   1
  -4   5   3 4642.46 169.010   4
   4   1   3 4187.09 115.900   4
   4   1   3 4247.74 222.286   1
  -4   5   3 4095.30 196.621   1
   5  -1   3 4432.40 187.823   2
  -5   4   3 4478.23 186.917   4
  -1  -4   3 4693.81 219.982   3
  -1  -4   6 5090.20 308.676   3
  -5   4   6 4962.44 321.513   3
   5  -1   6 5196.27 279.198   1
  -4   5   6 5047.36 275.534   2
   1  -5   6 5280.93 299.319   3
   1  -5   6 5169.52 187.181   1
   5  -1   6 5270.71 296.492   3
  -4   5   6 4906.17 182.585   4
   5  -1   6 5062.77 260.728   2
   1  -5   6 5065.26 276.038   4
  -4   5   6 5413.40 276.063   1
  -5   4   6 5251.96 219.592   4
   4   1   6 5072.12 243.220   2
   5  -1   6 4948.61 139.883   4
  -1  -4   6 5019.05 170.018   1
  -5   4   6 5456.11 264.441   1
   4   1   6 5579.03 300.263   1
  -5   4   6 5127.09 294.722   2
  -1  -4   6 5293.98 281.444   4
  -4   5   9 2214.04 111.865   4
  -1  -4   9 3088.50 183.784   1
   4   1   9 2972.63 270.616   1
  -5   4   9 2898.93 242.161   1
  -1  -4   9 2448.55 224.005   4
  -1  -4   9 2832.25 307.124   3
  -4   5   9 2931.88 263.324   1
  -4   5   9 2921.85 310.772   3
  -5   4   9 2592.88 313.714   3
   5  -1   9 3207.72 312.885   3
   1  -5   9 2543.60 225.362   4
   5  -1   9 3004.75 267.172   2
   1  -5   9 2795.78 188.559   1
  -5   4   9 2802.43 172.292   4
   1  -5   9 2838.42 295.522   3
   4   1   9 3091.74 251.032   2
   4   1   9 2976.76 303.338   3
   5  -1   9 2799.93 254.849   1
   5   0  -7-21.2527 81.3342   1
   5   0  -4 2577.62 124.361   1
   5   0  -4 2401.33 199.516   4
   5   0  -4 2485.04 202.146   3
   0  -5  -4 2669.29 196.033   1
  -5   5  -1-60.4737 78.8741   2
  -5   5  -1-11.1143 37.6897   3
   5   0  -1 0.04515 64.5496   3
   0  -5  -1 75.0891 90.6338   3
   0  -5  -1-82.2566 81.5529   1
  -5   5  -1 76.8271 83.7461   4
  -5   5  -1-92.3521 94.8996   1
   5   0  -1-16.1214 63.9786   1
   5   0  -1 24.5440 101.145   2
   5   0  -1 60.0353 102.733   4
  -5   5   2 2317.81 140.862   4
  -5   5   2 2624.30 158.643   1
  -5   5   2 2328.32 129.327   2
   5   0   2 2346.48 127.399   2
   5   0   2 2474.12 123.835   4
   0  -5   2 2199.91 147.262   3
  -5   5   5 143.494 106.498   2
   5   0   5-15.5176 83.7026   2
   0  -5   5-37.5479 44.3390   1
   0  -5   5-108.459 95.2443   4
  -5   5   5-2.19875 67.4941   4
   0  -5   5 89.0481 115.825   3
  -5   5   5-10.2356 100.038   1
   5   0   5-43.4564 108.418   1
   5   0   5-5.61674 27.6071   4
   5   0   8 1894.66 200.083   2
  -5   5   8 1738.94 245.187   3
  -5   5   8 1516.78 189.820   1
   5   0   8 1576.91 227.175   3
   0  -5   8 1853.77 135.137   1
   5   0   8 2110.16 228.880   1
   0  -5   8 1780.50 230.601   3
   0  -5   8 1609.39 206.726   4
  -5   5   8 1923.62 138.056   4
  -5   5  11-86.3786 206.090   3
   5   0  11-69.3625 149.727   2
   5   0  11-195.133 170.473   1
  -5   5  11-225.011 164.362   1
   0  -5  11 197.141 214.874   3
   5   0  11 26.3653 188.521   3
   6  -6  -6 7379.47 326.297   1
   6  -6  -6 7958.65 285.855   4
   6  -6  -3 8.08228 90.2093   1
  -6   0  -3-9.12959 56.1188   4
   6  -6  -3 75.2040 88.3733   2
  -6   0  -3 81.3700 72.7912   2
   0   6  -3-18.7720 85.9586   3
   6  -6  -3 108.694 85.9453   4
   6  -6   0 22847.1 366.026   2
   6  -6   0 22444.8 402.490   1
   0   6   0 23365.9 379.267   3
  -6   0   0 23437.0 420.935   4
   0   6   0 23516.5 351.814   1
  -6   0   0 22861.6 384.112   2
  -6   0   0 22978.6 286.754   3
   0   6   3 274.183 113.313   1
  -6   0   3 96.2933 113.465   3
   6  -6   3-27.8844 100.860   2
  -6   0   3-57.3243 69.5897   1
  -6   0   3-90.5796 121.792   2
   6  -6   3 16.7345 66.2343   3
   6  -6   3 24.2511 90.6797   4
  -6   0   3 64.1658 104.521   4
  -6   0   6 5472.66 290.869   4
   6  -6   6 5996.52 300.078   3
   6  -6   6 5688.00 255.351   4
   0   6   6 5705.44 304.708   1
   6  -6   6 5705.31 268.778   1
  -6   0   6 5911.91 214.021   1
   0   6   6 5690.50 241.451   2
  -6   0   9-112.448 134.883   4
   6  -6   9 98.5382 116.562   4
   0   6   9 90.2529 117.656   2
   6  -6   9 115.601 126.703   1
  -6   0   9 31.9665 174.415   3
   6  -6   9-145.647 141.460   3
   6  -6   9 9.47725 90.8481   4
  -6   0   9-4.95515 92.6111   1
   0   6   9 124.261 154.871   1
   0   6   9-87.9716 172.957   3
   6  -5  -7 1890.63 193.484   1
   5  -6  -7 1966.70 213.466   1
   5  -6  -7 2085.69 145.726   4
   6  -5  -7 2168.66 178.184   4
   5  -6  -4 638.617 115.039   2
  -1   6  -4 744.628 135.476   3
   6  -5  -4 800.260 118.990   4
   6  -5  -4 761.689 140.565   2
  -5  -1  -4 720.931 56.2087   4
   5  -6  -4 824.634 129.065   1
   5  -6  -4 700.744 97.0886   4
   1   5  -4 722.851 140.541   3
   6  -5  -4 708.363 118.407   1
   6  -5  -1 17940.2 347.669   4
  -5  -1  -1 18220.3 334.271   4
  -1   6  -1 17926.6 262.769   1
   1   5  -1 18488.9 332.447   3
   6  -5  -1 18233.8 350.374   1
   6  -5  -1 18440.2 327.806   2
  -5  -1  -1 18573.1 297.152   3
   5  -6  -1 18368.9 360.152   1
  -1   6  -1 18235.1 318.824   3
  -6   1  -1 18496.0 233.971   3
  -6   1  -1 18642.3 324.268   2
  -5  -1  -1 18918.4 305.300   2
   1   5  -1 17883.4 236.038   1
   5  -6  -1 18063.1 286.532   2
  -6   1  -1 18268.8 335.906   4
   5  -6  -1 17685.2 342.660   4
  -6   1   2 1005.66 133.107   4
   6  -5   2 1034.96 79.6789   3
  -5  -1   2 1116.62 117.171   3
   5  -6   2 799.550 124.799   4
   6  -5   2 862.603 120.549   4
  -6   1   2 1073.85 145.231   2
   5  -6   2 1076.51 89.7691   3
   1   5   2 970.155 131.771   3
  -6   1   2 964.173 101.295   1
   1   5   2 1019.28 127.719   1
  -1   6   2 879.763 134.195   1
  -6   1   2 859.639 111.794   3
  -5  -1   2 978.576 155.784   2
  -5  -1   2 899.380 131.414   4
   6  -5   2 849.043 125.698   2
   5  -6   2 739.909 120.463   2
   5  -6   2 904.367 104.935   1
   1   5   5 2060.56 192.905   1
  -6   1   5 2515.84 219.081   3
  -5  -1   5 2371.57 210.878   3
   6  -5   5 2293.84 172.926   3
  -1   6   5 2403.63 202.195   1
  -6   1   5 2207.90 222.589   2
  -5  -1   5 2353.30 229.903   2
  -6   1   5 2121.86 178.221   4
  -1   6   5 2342.09 143.668   2
   6  -5   5 2251.66 153.180   4
  -5  -1   5 2349.25 119.503   1
  -5  -1   5 2327.92 198.140   4
  -6   1   5 2402.51 142.576   1
   5  -6   5 1989.04 170.278   3
  -5  -1   8 237.977 88.6302   1
   1   5   8 354.412 146.287   1
  -5  -1   8 304.465 155.695   3
  -6   1   8 366.559 104.986   1
   5  -6   8 254.650 119.190   4
   6  -5   8 234.417 91.4428   4
   6  -5   8 154.239 140.044   3
   5  -6   8 183.989 132.982   3
   1   5   8 187.249 120.373   2
  -6   1   8 133.110 148.116   3
   6  -5   8 232.026 106.723   1
  -6   1   8 197.990 116.625   4
  -5  -1   8 288.330 127.855   4
   5  -6   8 277.962 113.102   1
  -1   6   8 131.231 125.429   1
   5  -6   8 341.427 111.664   4
   6  -5   8 150.279 92.6002   4
  -1   6   8-89.3650 111.877   2
  -1   6  11 389.837 241.897   3
   1   5  11 159.132 140.171   2
   1   5  11 822.813 216.338   1
  -1   6  11 601.890 187.781   1
   5  -6  11 207.726 188.912   3
  -6   1  11 489.175 232.631   3
   1   5  11 293.240 217.794   3
   6  -5  11 739.039 220.352   3
   6  -5  11 194.119 140.547   1
   6  -5  11 322.088 169.550   2
  -5  -1  11 394.316 232.241   3
   5  -6  11 252.535 134.569   1
   6  -4  -8 170.686 115.151   1
  -2   6  -5 2115.18 193.545   3
   6  -4  -5 2160.08 175.920   4
   6  -4  -5 2206.53 164.711   1
   2   4  -5 2013.96 200.148   3
   4  -6  -5 2202.09 128.772   4
   4  -6  -5 2210.76 189.371   1
  -6   2  -2 6769.51 223.141   2
   6  -4  -2 6852.97 240.005   4
   2   4  -2 6117.44 219.131   3
   4  -6  -2 6720.44 170.952   2
   6  -4  -2 6993.86 218.668   1
  -6   2  -2 6901.07 202.529   4
  -4  -2  -2 6921.91 176.244   4
   6  -4  -2 6719.29 239.066   2
   4  -6  -2 7094.14 242.228   1
  -2   6  -2 6826.04 163.464   1
  -4  -2  -2 7085.06 171.568   2
   4  -6  -2 6774.76 201.638   4
  -2   6  -2 7228.65 221.131   3
   4  -6   1 2653.62 153.432   2
  -2   6   1 3043.61 155.743   1
  -6   2   1 2620.25 154.572   2
  -4  -2   1 2882.43 174.096   2
   2   4   1 3075.40 153.681   3
  -6   2   1 2833.98 127.940   3
   4  -6   1 2915.23 140.724   1
   6  -4   1 2656.30 153.314   2
   2   4   1 2806.79 106.957   2
   2   4   1 2680.07 151.545   1
  -4  -2   1 2985.87 140.285   3
  -6   2   1 2879.24 174.193   4
  -6   2   1 2885.45 148.052   1
   6  -4   1 2935.89 156.945   4
   4  -6   1 2899.45 119.525   3
   4  -6   1 2647.53 171.976   4
  -4  -2   1 2808.04 186.578   4
  -2   6   1 3136.98 169.121   3
  -4  -2   4 990.087 152.304   4
  -4  -2   4 580.503 129.910   3
  -6   2   4 959.789 104.542   1
  -2   6   4 931.986 90.5007   2
  -4  -2   4 769.550 157.294   2
   2   4   4 894.484 82.0077   2
   2   4   4 681.415 131.033   1
  -6   2   4 993.676 164.602   3
  -4  -2   4 892.493 63.2008   1
   6  -4   4 748.456 105.339   3
  -6   2   4 983.941 158.792   2
  -2   6   4 802.376 130.252   1
   6  -4   4 891.617 122.829   2
  -6   2   4 862.576 121.207   4
   6  -4   4 813.375 96.4570   4
   4  -6   4 895.568 131.179   3
  -6   2   7 3220.15 206.641   1
  -6   2   7 3084.30 292.471   3
  -4  -2   7 3133.93 158.304   1
  -2   6   7 3106.49 245.154   1
  -4  -2   7 3262.21 281.791   3
  -4  -2   7 2705.81 227.872   4
  -2   6   7 2998.58 218.734   2
   6  -4   7 3442.97 177.572   4
   4  -6   7 3515.72 264.189   3
   6  -4   7 3231.63 260.147   3
   6  -4   7 3456.28 243.233   1
  -6   2   7 2768.97 211.528   4
   4  -6   7 3058.46 200.707   1
   2   4   7 3274.53 258.846   1
   4  -6   7 3021.83 223.048   4
   6  -4  10 652.895 148.357   1
   2   4  10 567.282 221.276   3
  -2   6  10 585.522 200.967   1
   4  -6  10 487.067 130.742   4
   6  -4  10 138.831 157.261   3
   4  -6  10 480.148 127.864   1
   2   4  10 391.585 147.012   2
  -6   2  10 581.433 143.319   1
   4  -6  10 624.525 195.398   3
  -6   2  10 449.528 201.008   3
   6  -4  10 635.186 186.208   2
  -4  -2  10 417.717 203.978   3
  -4  -2  10 476.107 109.682   1
  -2   6  10 322.003 200.642   3
   2   4  10 386.514 168.357   1
   6  -3  -9 226.594 123.616   1
   6  -3  -6 5933.59 256.049   1
   3  -6  -6 5999.49 308.151   1
   6  -3  -6 5958.83 280.496   4
   3  -6  -6 5253.85 160.977   4
  -6   3  -3 1143.86 107.882   4
  -3  -3  -3 1056.66 145.239   1
   3  -6  -3 1202.30 93.5696   4
   6  -3  -3 1014.81 113.175   1
   6  -3  -3 1052.36 130.584   4
  -3   6  -3 1235.51 125.006   3
   6  -3  -3 1051.02 152.976   2
  -3  -3  -3 963.989 57.5325   4
   3  -6  -3 988.784 87.6911   2
   3  -6  -3 1295.44 136.781   1
   3   3  -3 896.089 126.361   3
   6  -3   0 38404.2 499.966   1
  -6   3   0 39516.3 499.605   4
  -3  -3   0 39193.3 451.407   2
   3   3   0 37507.4 494.349   4
  -3   6   0 38593.0 420.801   3
   3   3   0 38143.1 415.548   3
   3   3   0 38345.7 457.983   2
  -3   6   0 37774.8 437.335   1
  -3  -3   0 38221.6 506.521   4
   3  -6   0 38675.3 443.505   1
  -6   3   0 38164.7 470.226   2
   3  -6   0 37687.7 396.202   2
   6  -3   0 37447.2 480.689   4
  -3  -3   0 38569.0 426.573   3
   3  -6   0 37613.6 423.512   3
   3   3   0 37533.5 420.236   1
  -3  -3   3 1162.91 161.008   2
  -3   6   3 1090.57 88.3502   2
   6  -3   3 1163.44 125.669   2
   3  -6   3 998.716 124.241   3
  -3  -3   3 835.656 124.167   3
   3  -6   3 1129.20 97.5808   1
   3   3   3 1173.51 86.1252   2
  -6   3   3 1132.49 127.957   4
   6  -3   3 1148.51 107.598   4
  -3   6   3 1222.28 100.287   4
  -6   3   3 1029.53 110.846   1
   6  -3   3 971.279 106.995   3
   3   3   3 1264.01 152.398   1
  -6   3   3 1022.52 143.132   3
  -3   6   3 1196.61 140.176   1
  -3  -3   3 1235.40 153.094   4
  -6   3   3 1017.13 142.604   2
  -6   3   6 6019.37 271.580   4
  -3  -3   6 6322.71 180.760   1
  -3   6   6 6272.34 305.972   1
  -6   3   6 6132.14 340.089   2
   3   3   6 6451.93 250.066   2
   6  -3   6 5800.21 289.055   2
  -6   3   6 6554.46 273.112   1
   6  -3   6 6422.70 302.190   1
   3  -6   6 6296.61 322.655   3
  -3  -3   6 6349.10 315.072   4
  -3   6   6 6259.98 274.744   2
   6  -3   6 6035.21 204.100   4
   3  -6   6 6566.88 234.448   1
   3   3   6 6278.40 324.163   1
  -3  -3   6 5871.01 331.691   3
   6  -3   6 6089.64 306.228   3
  -3   6   6 5721.05 160.015   4
  -6   3   6 5825.17 346.179   3
  -3   6   9 200.761 131.796   1
   6  -3   9 239.790 55.1065   4
  -3   6   9 200.980 183.588   3
   3  -6   9 229.910 129.482   4
   3  -6   9 439.550 201.496   3
  -3  -3   9 362.632 182.170   3
  -6   3   9 531.119 199.991   3
   3   3   9 323.782 158.372   1
   6  -3   9 307.824 156.027   2
   3   3   9 429.542 129.877   2
   6  -3   9 228.376 55.3435   4
  -6   3   9 63.9046 98.5277   4
  -6   3   9 362.382 127.150   1
   3  -6   9 251.715 101.278   1
   3   3   9 276.269 172.564   3
   6  -3   9 443.458 139.767   1
   6  -3   9 457.092 169.732   3
  -3  -3   9 345.979 146.634   4
  -3  -3   9 247.684 90.4010   1
   6  -2  -7 2736.36 190.204   1
   2  -6  -4 857.916 72.3157   4
   6  -2  -4 723.273 92.2586   1
   4   2  -4 798.674 61.1961   1
   4   2  -4 561.902 134.055   4
   6  -2  -4 912.324 158.629   2
  -4   6  -4 1045.29 131.135   3
   6  -2  -4 873.584 131.031   4
   4   2  -4 937.498 143.865   3
  -2  -4  -4 815.484 133.798   1
   2  -6  -4 977.163 137.633   1
   2  -6  -1 2735.29 83.3865   2
   6  -2  -1 2455.53 121.052   3
   4   2  -1 2575.98 183.400   2
  -2  -4  -1 2757.63 142.786   4
  -6   4  -1 2520.40 144.487   2
   4   2  -1 2540.64 170.479   4
   6  -2  -1 2800.79 146.329   1
  -2  -4  -1 2508.25 94.2615   2
  -6   4  -1 2648.78 151.986   4
   6  -2  -1 2652.97 167.379   4
   2  -6  -1 2742.04 149.709   1
  -4   6  -1 2722.36 117.038   3
  -2  -4  -1 2780.32 155.095   1
  -4   6  -1 2943.89 140.756   1
   2  -6  -1 2560.07 162.318   3
   4   2  -1 2711.98 135.385   3
   6  -2  -1 2449.32 157.861   2
  -2  -4  -1 2918.26 156.195   3
  -2  -4   2 7223.75 278.845   2
  -4   6   2 7006.28 209.662   4
   6  -2   2 6986.28 204.436   4
  -4   6   2 6949.63 166.103   2
  -4   6   2 7039.31 248.121   1
  -6   4   2 6902.25 225.042   1
   2  -6   2 6844.22 218.613   3
   4   2   2 7101.58 174.729   2
  -2  -4   2 6674.60 229.412   3
  -2  -4   2 7286.94 274.586   4
   4   2   2 6488.14 247.473   1
  -6   4   2 6735.07 235.436   4
   4   2   2 7027.50 235.336   3
  -6   4   2 6741.78 235.246   2
   4   2   2 6775.01 183.154   4
   2  -6   2 7005.19 160.288   1
   6  -2   2 6327.06 215.397   2
   2  -6   5 1909.40 117.118   1
  -4   6   5 2030.96 120.976   4
   4   2   5 2139.33 191.184   1
  -2  -4   5 2038.83 222.166   2
   6  -2   5 1964.15 168.645   3
  -6   4   5 1711.85 145.861   4
   6  -2   5 1892.41 107.802   4
   2  -6   5 1921.61 189.316   3
   6  -2   5 1877.57 167.218   2
  -2  -4   5 1912.38 183.482   4
  -2  -4   5 2048.16 208.931   3
  -6   4   5 1688.03 189.553   3
   6  -2   5 1916.91 178.574   1
  -4   6   5 1964.61 178.492   1
  -4   6   5 2010.71 160.023   2
  -6   4   5 2066.73 160.073   1
   4   2   5 2010.23 147.434   2
  -6   4   5 2168.73 196.722   2
  -2  -4   5 1677.50 75.9320   1
  -2  -4   8 133.322 124.252   4
   6  -2   8 350.821 137.754   3
  -6   4   8 86.0386 165.972   3
  -4   6   8 414.421 145.314   1
   6  -2   8 134.330 37.0229   4
   4   2   8 363.368 129.141   2
  -4   6   8 338.861 140.589   2
   6  -2   8 134.089 113.827   2
  -4   6   8 327.606 56.5184   4
  -6   4   8 124.852 90.6654   4
   4   2   8 289.989 159.329   1
   2  -6   8 290.598 92.7581   1
  -4   6   8-50.0941 176.679   3
   2  -6   8 498.990 166.274   3
  -2  -4   8 327.505 156.945   3
  -6   4   8 442.767 134.129   1
   4   2   8 159.641 140.223   3
   6  -2   8 149.420 40.2455   4
   2  -6   8 315.842 133.157   4
   6  -2   8 295.087 127.305   1
  -2  -4   8 310.094 78.6607   1
   4   2  11 40.4741 181.595   3
   6  -2  11 310.137 193.397   3
  -6   4  11 386.522 162.548   1
  -4   6  11 120.339 197.717   3
   4   2  11 49.2721 162.023   1
   6  -2  11 423.573 180.844   2
  -6   4  11 405.208 220.123   3
   4   2  11 222.760 156.919   2
  -2  -4  11-15.9362 202.085   3
   2  -6  11 201.789 186.508   3
   6  -2  11 137.802 150.290   1
  -4   6  11 500.130 179.736   1
   6  -1  -8 375.825 109.840   1
   5   1  -5 2496.50 120.650   1
  -1  -5  -5 2611.89 228.726   1
   5   1  -5 2539.57 208.659   4
   1  -6  -5 2296.09 203.690   1
   6  -1  -5 2712.03 208.780   4
   5   1  -5 2530.91 227.204   3
   6  -1  -5 2359.81 145.622   1
   5   1  -2 840.041 76.6128   1
   5   1  -2 734.817 141.387   4
  -5   6  -2 876.679 89.6397   3
   6  -1  -2 988.672 148.334   2
  -1  -5  -2 706.248 116.350   1
   6  -1  -2 880.028 115.596   3
   1  -6  -2 768.651 113.531   1
   5   1  -2 762.020 150.870   2
   6  -1  -2 639.499 81.2151   1
   5   1  -2 847.912 110.690   3
   6  -1  -2 749.781 139.034   4
  -6   5  -2 722.376 110.776   4
  -6   5  -2 840.626 80.0192   3
  -5   6   1 17962.7 350.960   4
  -5   6   1 17389.9 349.804   1
   1  -6   1 17654.7 325.250   3
  -5   6   1 17930.2 284.068   2
   6  -1   1 17038.6 331.451   4
  -6   5   1 18000.0 359.335   4
   5   1   1 17710.4 302.785   2
   1  -6   1 17308.3 256.720   1
  -6   5   1 16984.4 350.722   1
  -6   5   1 18217.6 316.321   2
   5   1   1 18224.8 280.311   3
  -1  -5   1 17709.4 330.338   3
   5   1   1 17826.1 334.018   4
   6  -1   1 18132.3 325.675   2
  -1  -5   1 17233.5 234.211   1
   6  -1   1 18012.6 218.533   3
   6  -1   4 672.873 72.9348   4
  -1  -5   4 578.259 130.292   3
  -5   6   4 657.847 96.5623   4
   5   1   4 584.619 57.0859   4
  -6   5   4 640.386 104.337   4
   1  -6   4 574.396 118.872   3
   1  -6   4 627.113 57.4444   1
  -5   6   4 719.577 109.599   2
  -6   5   4 756.670 123.649   1
   6  -1   4 728.559 128.489   1
  -6   5   4 581.414 123.617   2
   1  -6   4 705.717 66.0031   1
   6  -1   4 536.269 101.278   2
  -1  -5   4 606.495 135.635   4
  -5   6   4 751.563 124.043   1
   5   1   4 625.143 141.541   1
   5   1   4 732.777 105.636   2
  -5   6   7 2190.74 247.895   3
  -6   5   7 1883.38 220.066   2
   1  -6   7 2177.77 229.064   3
   6  -1   7 2206.25 221.458   3
  -6   5   7 2399.76 265.683   3
   5   1   7 2507.10 196.226   2
   6  -1   7 2486.07 210.496   2
   5   1   7 2436.54 231.909   1
  -5   6   7 1990.96 210.412   2
   1  -6   7 2199.40 216.615   4
  -5   6   7 2277.04 143.817   4
   1  -6   7 2206.10 135.379   1
  -6   5   7 2608.71 222.792   1
  -1  -5   7 2073.25 217.232   4
   6  -1   7 2282.56 226.553   1
  -5   6   7 2659.70 228.857   1
  -1  -5   7 2140.44 119.795   1
  -6   5   7 1912.23 154.175   4
  -1  -5   7 2471.85 255.859   3
   6  -1  10 96.2006 144.015   1
   5   1  10 87.6454 130.992   2
  -5   6  10-71.9989 195.048   3
   5   1  10 11.4872 156.304   3
  -1  -5  10 179.965 83.5782   1
  -6   5  10 34.3053 138.615   1
   1  -6  10 94.5862 84.0755   1
   1  -6  10 168.326 184.027   3
   6  -1  10 249.407 184.538   3
  -1  -5  10 217.399 175.720   3
  -5   6  10 212.179 155.517   1
   5   1  10 100.583 148.651   1
  -6   5  10 194.608 189.920   3
   6  -1  10 94.1287 140.718   2
   6   0  -6 5426.19 206.958   1
   6   0  -6 5529.12 302.393   4
   6   0  -3 121.761 56.6551   1
  -6   6  -3 76.9107 72.3669   3
   6   0  -3-88.9176 126.797   4
   6   0  -3 21.8232 92.1611   3
   0  -6  -3-26.9282 96.1642   1
   0  -6  -3 74.9200 57.0267   4
   6   0  -3 240.594 146.241   2
   0  -6   0 18748.1 344.186   3
   6   0   0 19239.4 260.897   3
  -6   6   0 19714.6 264.436   3
  -6   6   0 18929.9 335.882   2
  -6   6   0 19011.7 374.881   1
   6   0   0 18985.6 385.260   4
  -6   6   0 19048.2 381.072   4
   6   0   0 18852.7 356.953   2
   0  -6   0 18836.3 319.272   1
  -6   6   3-18.7518 83.6005   2
  -6   6   3 151.193 107.759   1
   0  -6   3 7.32030 94.3399   3
   6   0   3-56.5468 75.4445   2
  -6   6   3-8.61686 79.7760   4
   6   0   3-26.3779 63.2482   4
   6   0   3 46.0688 99.6769   1
   0  -6   6 7526.36 358.273   4
   0  -6   6 6579.57 170.144   1
   6   0   6 7947.45 306.592   2
   0  -6   6 7478.54 363.907   3
  -6   6   6 7508.65 260.803   4
   6   0   6 8341.16 373.427   1
  -6   6   6 7727.45 334.516   1
  -6   6   6 7618.78 343.303   2
  -6   6   6 7274.54 383.734   3
   6   0   9 103.558 138.516   2
  -6   6   9 36.6723 73.1635   4
  -6   6   9-66.3924 168.703   3
   6   0   9-99.7214 144.531   1
   0  -6   9-127.225 161.662   3
   6   0   9 27.7217 162.105   3
  -6   6   9-130.076 133.698   1
   0  -6   9 65.7012 61.4053   1
   7  -7  -7 90.8359 97.7915   4
  -7   0  -4 2341.80 120.534   4
   7  -7  -4 2338.88 182.878   1
   7  -7  -4 2156.71 163.019   4
   7  -7  -4 2183.23 174.817   2
   0   7  -4 2174.18 190.996   3
   0   7  -1-8.01100 62.0477   1
  -7   0  -1 29.2942 83.7034   2
  -7   0  -1-22.4138 85.1724   4
  -7   0  -1 87.3977 67.3951   3
   7  -7  -1-77.0842 96.5572   4
   7  -7  -1-93.9617 101.970   1
   0   7  -1 85.5590 87.2857   3
   7  -7  -1 55.7901 82.2919   2
   7  -7   2 7150.40 265.148   1
   7  -7   2 6848.23 272.266   2
   7  -7   2 7612.87 178.849   3
  -7   0   2 7306.88 244.602   3
   0   7   2 7648.90 295.201   3
   7  -7   2 7029.64 265.540   4
  -7   0   2 6991.85 297.183   4
   0   7   2 7206.80 276.288   1
  -7   0   2 7555.59 306.040   2
   7  -7   5 154.880 99.8261   4
  -7   0   5 96.7118 122.146   3
  -7   0   5 59.3766 113.525   4
   7  -7   5 15.7773 81.6267   3
   0   7   5-16.0086 57.6710   2
  -7   0   5 173.871 143.992   2
   0   7   5 94.5774 47.9368   2
  -7   0   5 22.2862 64.6054   1
   0   7   5-95.5085 111.257   1
  -7   0   8 2909.18 182.049   1
   7  -7   8 3306.64 270.616   3
  -7   0   8 2606.22 243.706   4
   7  -7   8 2829.00 206.757   4
   0   7   8 2748.23 211.587   2
   7  -7   8 2807.98 234.145   1
  -7   0   8 3300.60 315.561   3
   0   7   8 3054.90 272.260   1
   7  -7  11-127.297 165.146   2
   7  -7  11-8.68793 129.324   1
   7  -7  11-190.753 185.391   3
   0   7  11 97.1561 209.817   3
   0   7  11 85.4026 165.095   1
  -7   0  11 37.9187 193.693   3
   0   7  11-7.31944 121.132   2
   7  -6  -8 446.791 111.961   4
   7  -6  -5 26.1018 109.260   2
   7  -6  -5 162.775 100.590   4
   7  -6  -5 184.515 98.6233   1
  -1   7  -5 73.5727 110.689   3
   1   6  -5 151.426 112.187   3
   6  -7  -5 112.526 76.6945   4
   6  -7  -5 248.366 118.418   1
   7  -6  -2 1379.21 137.321   4
  -7   1  -2 1238.07 115.037   4
   1   6  -2 1461.24 125.202   3
   6  -7  -2 1304.59 110.676   2
  -1   7  -2 1283.76 82.3681   1
   7  -6  -2 1248.71 132.410   2
   1   6  -2 1246.69 62.6083   1
  -6  -1  -2 1294.80 107.721   2
   7  -6  -2 1490.34 134.317   1
  -7   1  -2 1434.85 123.794   2
   6  -7  -2 1385.85 131.685   4
  -1   7  -2 1452.86 131.075   3
  -6  -1  -2 1188.21 110.128   4
   6  -7  -2 1488.18 146.394   1
  -1   7   1 491.133 111.467   3
  -6  -1   1 405.933 127.110   4
   7  -6   1 445.666 107.839   4
   7  -6   1 445.589 101.041   1
   6  -7   1 475.617 101.804   1
   7  -6   1 491.214 46.7985   3
   6  -7   1 449.672 67.7787   3
  -1   7   1 388.542 107.281   1
   1   6   1 546.873 110.049   3
  -7   1   1 638.315 122.848   2
  -6  -1   1 344.040 88.3386   3
  -7   1   1 567.293 120.024   4
  -6  -1   1 502.376 113.210   2
   6  -7   1 481.846 108.815   2
  -7   1   1 566.239 85.7094   3
   6  -7   1 463.094 115.929   4
   1   6   1 536.193 112.626   1
   7  -6   1 430.062 104.762   2
   7  -6   4 737.417 102.887   3
  -6  -1   4 853.176 149.984   4
  -1   7   4 798.695 67.1091   2
  -6  -1   4 1145.79 182.467   2
  -7   1   4 851.327 135.491   4
  -6  -1   4 863.775 86.9258   1
   6  -7   4 828.345 126.712   4
   7  -6   4 685.730 132.740   2
  -6  -1   4 941.973 154.229   3
   6  -7   4 749.344 107.153   3
  -7   1   4 672.647 132.508   3
  -7   1   4 901.227 167.576   2
   1   6   4 703.930 138.185   1
  -7   1   4 852.657 101.343   1
   1   6   4 757.103 61.5952   2
  -1   7   4 852.601 147.430   1
   7  -6   4 899.162 120.962   4
  -6  -1   7 1618.53 197.410   4
   7  -6   7 1393.85 140.410   4
   1   6   7 1401.47 147.681   2
  -1   7   7 1594.87 210.867   1
  -7   1   7 1417.37 180.618   4
   6  -7   7 1490.20 196.392   3
   7  -6   7 1238.68 162.532   1
   6  -7   7 1678.52 165.121   4
  -7   1   7 1581.81 238.237   3
  -6  -1   7 1315.60 200.738   3
   1   6   7 1802.92 210.208   1
  -6  -1   7 1522.94 121.996   1
   1   6   7 1681.86 143.001   2
   7  -6   7 1518.28 191.887   3
  -7   1   7 1379.99 141.325   1
  -1   7   7 1334.51 141.522   2
   6  -7   7 1634.26 170.180   1
  -1   7  10 361.828 224.810   3
   6  -7  10 475.027 123.713   4
   1   6  10 549.151 211.621   3
  -7   1  10 223.842 113.358   1
  -6  -1  10 253.443 99.8500   1
  -6  -1  10 394.949 206.250   3
  -7   1  10 381.656 200.319   3
  -1   7  10 269.137 179.477   1
   7  -6  10 453.124 182.165   3
   6  -7  10 523.963 195.391   3
   1   6  10 443.023 131.779   2
   6  -7  10 524.965 138.588   1
   7  -6  10 615.312 162.464   1
   1   6  10 171.999 158.742   1
   7  -6  10 250.892 94.0739   4
   7  -6  10 354.241 168.913   2
   7  -5  -6 459.842 117.014   4
   5  -7  -6 310.316 126.426   1
   7  -5  -6 276.197 91.6356   1
   5  -7  -6 440.220 91.4577   4
   5  -7  -3 11017.4 266.577   2
  -5  -2  -3 11271.2 255.003   2
   7  -5  -3 11471.2 331.919   4
  -7   2  -3 10941.3 265.852   4
   5  -7  -3 10998.1 340.702   1
   5  -7  -3 10532.5 274.359   4
  -2   7  -3 11604.9 326.565   3
   7  -5  -3 11252.4 311.540   1
  -5  -2  -3 11384.4 215.313   4
   7  -5  -3 10361.8 330.836   2
  -7   2  -3 11212.9 312.825   2
   2   5  -3 11974.5 348.825   3
   2   5   0 11135.3 274.592   2
   5  -7   0 11435.4 253.861   2
   2   5   0 11340.8 258.063   1
  -5  -2   0 11908.8 245.553   3
   7  -5   0 11119.0 303.372   4
   5  -7   0 11170.3 248.023   3
   7  -5   0 10309.0 287.620   1
  -2   7   0 11743.8 269.756   3
   5  -7   0 11378.1 309.085   4
  -7   2   0 12133.4 314.416   4
   7  -5   0 11427.3 282.176   2
  -2   7   0 11183.1 272.245   1
  -7   2   0 11170.8 170.596   3
  -5  -2   0 11458.3 320.923   4
   5  -7   0 11639.7 283.163   1
   2   5   0 11619.2 265.018   3
  -7   2   0 12143.4 294.958   2
  -5  -2   0 11358.5 281.272   2
  -7   2   3 15051.8 325.886   1
   5  -7   3 15082.9 334.242   3
  -7   2   3 15752.5 396.647   3
   5  -7   3 14723.0 329.749   1
  -7   2   3 14925.2 439.624   2
   7  -5   3 15232.2 299.704   3
   7  -5   3 15051.9 386.422   2
  -5  -2   3 15530.3 434.637   4
   7  -5   3 14241.3 337.538   4
   2   5   3 14811.9 400.639   1
  -2   7   3 15097.8 401.353   1
   2   5   3 14744.3 196.829   2
  -5  -2   3 14985.8 390.766   3
  -5  -2   3 15163.3 459.097   2
  -7   2   3 15503.6 408.161   4
  -7   2   6 1737.87 155.383   1
  -2   7   6 1436.62 187.043   1
   2   5   6 1505.49 125.556   2
  -7   2   6 1649.56 177.748   4
   5  -7   6 1577.58 148.562   1
   7  -5   6 1865.83 184.202   1
   7  -5   6 1561.49 177.043   2
   2   5   6 1571.66 186.448   1
   7  -5   6 1444.14 162.029   3
  -5  -2   6 2021.29 223.453   3
  -7   2   6 1777.20 218.539   3
  -5  -2   6 1778.18 195.329   4
   7  -5   6 1801.66 139.788   4
  -7   2   6 1489.85 209.326   2
  -5  -2   6 1684.63 102.306   1
  -2   7   6 1786.70 145.272   2
   5  -7   6 1552.77 184.257   3
   7  -5   9 2693.30 185.334   4
   5  -7   9 3038.21 223.716   4
   5  -7   9 2773.66 218.626   1
  -2   7   9 2979.94 281.952   1
   5  -7   9 3129.23 307.512   3
   7  -5   9 3456.67 300.846   3
  -2   7   9 3090.35 334.806   3
   7  -5   9 3023.43 259.693   1
  -7   2   9 2505.32 301.501   3
   2   5   9 2692.09 313.158   3
  -7   2   9 2785.92 219.981   1
   2   5   9 3311.04 305.968   1
   7  -5   9 2877.65 277.623   2
   2   5   9 2707.74 213.782   2
  -7   2   9 2479.65 227.672   4
   5  -7   9 2754.93 241.560   4
  -5  -2   9 2878.08 316.530   3
  -2   7   9 2689.44 241.517   2
   7  -5   9 3035.08 178.255   4
  -5  -2   9 2791.70 168.704   1
   7  -4  -7 22.5002 100.774   4
   7  -4  -7 16.5275 92.7356   1
   4  -7  -7 44.1971 47.6722   4
   7  -4  -4 2622.42 209.351   2
   7  -4  -4 2853.64 175.460   1
   4  -7  -4 2874.20 140.420   4
   4  -7  -4 2603.39 195.549   1
   7  -4  -4 2507.62 192.108   4
  -3   7  -4 2636.30 191.269   3
   3   4  -4 2907.65 212.818   3
  -7   3  -1 1131.77 118.549   2
   3   4  -1 907.114 152.346   4
  -3   7  -1 1156.56 102.368   3
   7  -4  -1 1031.68 124.607   2
   3   4  -1 1104.87 84.3143   1
  -4  -3  -1 1471.90 125.796   3
   3   4  -1 1111.58 110.034   3
  -4  -3  -1 1223.61 96.5312   2
   4  -7  -1 1217.20 130.559   1
   4  -7  -1 1312.74 87.9425   2
  -4  -3  -1 1192.40 124.143   4
   4  -7  -1 1104.95 126.876   4
   3   4  -1 1151.10 140.489   2
  -3   7  -1 1025.97 98.7584   1
   7  -4  -1 1092.56 121.166   1
   7  -4  -1 1141.09 133.744   4
  -7   3  -1 1141.26 120.671   4
  -3   7   2 2756.85 180.373   1
  -4  -3   2 2799.76 201.649   2
  -3   7   2 2690.56 85.3378   2
   3   4   2 2861.69 101.891   2
   7  -4   2 2804.27 104.107   3
   7  -4   2 2681.46 158.082   4
  -7   3   2 2924.06 160.048   3
  -7   3   2 2765.29 181.984   4
  -7   3   2 2888.11 164.639   1
   4  -7   2 2846.90 143.406   1
  -4  -3   2 2818.24 162.505   3
  -4  -3   2 2704.36 200.173   4
  -7   3   2 2877.88 192.605   2
   3   4   2 3022.94 186.035   1
   4  -7   2 2675.19 140.174   3
   7  -4   2 2911.98 181.997   2
   3   4   2 2875.76 178.986   3
  -4  -3   5 877.473 149.835   4
  -7   3   5 983.115 166.248   2
  -3   7   5 1120.05 110.833   2
  -4  -3   5 1003.21 62.3054   1
   7  -4   5 1320.13 146.005   3
  -3   7   5 1210.72 154.544   1
  -7   3   5 1156.97 129.481   1
   7  -4   5 1250.82 150.238   2
  -7   3   5 1232.94 150.001   4
  -4  -3   5 1237.90 170.285   3
   3   4   5 1350.37 111.460   2
   3   4   5 1316.46 164.094   1
  -4  -3   5 976.326 195.262   2
  -3   7   5 1168.97 87.6947   4
   7  -4   5 1128.30 110.383   4
  -7   3   5 1182.49 182.265   3
   4  -7   5 921.044 135.360   3
   4  -7   8 1511.40 217.956   3
  -3   7   8 1311.56 196.178   1
  -4  -3   8 1316.68 195.162   4
   7  -4   8 1445.81 124.484   4
  -4  -3   8 1360.10 108.919   1
  -7   3   8 1489.88 171.045   1
   7  -4   8 1432.18 193.897   3
   7  -4   8 1498.36 190.204   1
  -4  -3   8 1306.56 221.656   3
  -7   3   8 1300.53 170.191   4
   3   4   8 1273.62 157.231   2
   7  -4   8 1385.84 187.644   2
   7  -4   8 1295.00 126.806   4
  -3   7   8 1231.48 173.816   2
   4  -7   8 969.067 172.090   4
   3   4   8 1189.42 201.357   1
  -7   3   8 1419.24 235.296   3
   4  -7   8 1135.41 138.330   1
   7  -4  11 356.697 155.295   1
  -7   3  11 419.317 243.646   3
  -7   3  11-162.824 149.220   1
  -3   7  11 242.184 181.308   1
   3   4  11 110.349 196.766   3
  -4  -3  11-67.6582 192.680   3
   7  -4  11 44.3697 144.792   2
  -3   7  11-455.490 247.925   3
   3   4  11 97.4090 160.844   1
   3   4  11-60.8344 135.367   2
   7  -4  11-89.1143 164.768   3
   4  -7  11 427.119 215.733   3
   7  -3  -8 1284.60 161.099   1
   7  -3  -5 1514.56 160.332   4
   7  -3  -5 1489.19 196.463   2
   7  -3  -5 1180.35 124.126   1
   3  -7  -5 1264.66 159.256   1
  -4   7  -5 1155.93 151.699   3
   3  -7  -5 1100.17 86.0846   4
  -3  -4  -5 1307.44 169.285   1
  -4   7  -2 2658.60 140.140   1
  -7   4  -2 2753.79 161.148   4
   4   3  -2 2565.39 202.039   2
  -3  -4  -2 2578.93 180.874   1
  -7   4  -2 2377.99 161.439   2
   3  -7  -2 2477.47 137.850   4
  -4   7  -2 2618.02 137.632   3
   4   3  -2 2970.62 169.944   3
  -3  -4  -2 2849.33 139.893   4
   7  -3  -2 2762.11 150.786   1
   3  -7  -2 2582.65 88.6856   2
   4   3  -2 2580.33 195.524   4
   7  -3  -2 2538.50 185.179   4
   3  -7  -2 2785.87 177.897   1
   7  -3  -2 2234.04 175.841   2
  -3  -4  -2 2851.84 98.5611   2
   3  -7   1 1280.82 107.279   1
   4   3   1 1314.27 106.099   2
   4   3   1 1168.97 121.328   1
   3  -7   1 1404.76 112.983   3
  -7   4   1 1494.32 142.510   1
  -4   7   1 1305.75 88.8055   2
  -3  -4   1 1167.83 132.676   2
  -3  -4   1 1109.62 142.576   4
  -7   4   1 1291.69 131.734   2
  -4   7   1 897.329 120.313   1
  -3  -4   1 1363.24 120.270   3
   4   3   1 1122.67 126.077   4
  -7   4   1 1180.43 132.668   4
  -7   4   1 1113.94 96.1137   3
   4   3   1 1241.35 112.591   3
   7  -3   1 1489.05 135.863   4
   7  -3   1 1371.24 130.764   2
  -4   7   1 1281.85 122.708   3
   7  -3   4 2566.30 141.859   4
   3  -7   4 2662.33 135.820   1
  -3  -4   4 2514.96 230.752   2
   3  -7   4 2541.16 183.938   3
  -3  -4   4 2964.94 225.437   4
  -7   4   4 2597.15 172.132   1
  -4   7   4 2807.35 198.001   1
   7  -3   4 2539.88 176.138   2
  -4   7   4 2803.64 150.396   2
  -4   7   4 2502.09 133.302   4
  -7   4   4 2334.87 171.159   4
   4   3   4 2663.54 139.042   2
   4   3   4 2555.73 210.495   1
  -7   4   4 2377.27 211.318   3
   7  -3   4 2470.29 161.062   3
  -3  -4   4 2660.14 209.062   3
  -7   4   4 2430.98 197.739   2
   4   3   7-34.9722 127.150   1
  -4   7   7 0.97858 121.186   1
  -3  -4   7 11.2760 123.807   3
   3  -7   7-40.1281 72.6965   1
  -7   4   7-127.863 97.9541   4
  -7   4   7 102.914 92.5152   1
   7  -3   7 113.162 103.414   1
  -4   7   7 71.9830 45.8595   4
  -7   4   7 221.370 149.910   3
  -3  -4   7-103.315 125.026   4
   4   3   7 23.9853 88.8242   2
   3  -7   7 158.330 116.929   4
   7  -3   7 11.0048 102.894   2
  -4   7   7 94.6088 111.142   2
   7  -3   7-10.9354 56.0980   4
  -3  -4   7 45.8599 45.8930   1
   3  -7   7 30.7347 113.451   3
   7  -3   7-136.903 110.978   3
   4   3  10 268.664 186.472   3
   4   3  10 265.413 152.789   1
  -3  -4  10 115.261 66.4376   1
   3  -7  10 214.864 102.749   1
   7  -3  10 10.2390 135.742   1
   7  -3  10 86.5932 177.229   3
  -7   4  10 111.220 129.533   1
   4   3  10 195.914 120.994   2
   7  -3  10 518.649 168.641   2
   3  -7  10 274.348 172.473   3
  -3  -4  10 130.878 192.411   3
  -4   7  10 219.277 162.055   1
  -7   4  10 267.012 206.302   3
   3  -7  10 1.13833 109.882   4
  -4   7  10 31.0928 196.328   3
   7  -2  -9 2494.68 212.614   1
   5   2  -6 1448.94 100.711   1
   7  -2  -6 1402.56 134.287   1
   7  -2  -6 1539.74 184.812   4
   5   2  -3 15116.0 440.131   4
   7  -2  -3 14931.5 391.518   3
  -2  -5  -3 14697.1 244.789   4
   7  -2  -3 15590.2 447.149   2
  -5   7  -3 15371.4 346.544   3
   2  -7  -3 15097.3 406.973   1
   7  -2  -3 15548.4 318.895   1
   5   2  -3 15824.5 405.608   3
   2  -7  -3 15213.8 273.573   4
   5   2  -3 14778.0 205.747   1
   7  -2  -3 14327.4 404.333   4
   5   2  -3 15504.6 467.646   2
  -2  -5  -3 15478.3 415.827   1
  -2  -5   0 11827.5 280.477   3
  -7   5   0 12046.3 319.450   1
  -2  -5   0 11940.0 265.875   1
  -7   5   0 11573.8 298.537   4
  -5   7   0 11837.9 245.028   3
   5   2   0 11453.6 240.344   3
  -5   7   0 11588.9 256.966   2
   5   2   0 11935.1 324.138   4
  -7   5   0 12155.7 283.643   2
  -5   7   0 11829.1 295.023   1
   7  -2   0 11839.9 299.628   2
   7  -2   0 11130.1 315.154   4
  -2  -5   0 11598.1 306.373   4
   2  -7   0 11755.1 266.029   1
   7  -2   0 11944.8 175.737   3
   5   2   0 11437.8 286.968   2
   2  -7   0 11591.7 280.712   3
  -5   7   0 12044.1 314.034   4
  -2  -5   0 11532.4 273.011   2
  -2  -5   3 11136.4 404.437   2
  -5   7   3 11535.3 353.877   1
  -7   5   3 11056.1 316.543   4
   2  -7   3 11254.0 207.774   1
  -7   5   3 11007.3 334.995   2
   7  -2   3 10921.3 308.424   2
  -5   7   3 11743.5 255.179   2
   5   2   3 10979.4 363.905   1
   5   2   3 11412.6 230.722   4
   7  -2   3 11572.1 271.577   4
  -7   5   3 11091.4 315.151   1
   5   2   3 11302.9 257.443   2
  -5   7   3 11425.3 280.849   4
  -2  -5   3 10797.4 335.853   3
   2  -7   3 11102.2 320.658   3
  -2  -5   3 10755.7 364.396   4
  -7   5   6 160.828 143.426   3
  -7   5   6 481.591 120.224   1
   7  -2   6 222.045 92.9360   3
   7  -2   6 536.465 130.766   1
  -2  -5   6 222.989 130.359   4
   5   2   6 478.430 149.277   1
  -7   5   6 374.206 102.039   4
  -2  -5   6 264.687 134.158   3
  -5   7   6 328.830 112.154   1
  -7   5   6 194.776 117.297   2
  -5   7   6 279.659 103.017   2
   7  -2   6 319.056 112.603   2
   2  -7   6 279.544 116.426   3
   2  -7   6 216.965 123.575   4
  -5   7   6 259.183 69.8861   4
   7  -2   6 244.177 58.9087   4
   2  -7   6 323.596 72.4234   1
  -2  -5   6 237.682 36.6913   1
   5   2   6 476.741 104.061   2
  -5   7   9 645.246 214.409   3
  -2  -5   9 984.368 96.6704   1
   7  -2   9 917.868 170.137   2
  -2  -5   9 1294.94 239.540   3
   5   2   9 1118.43 228.770   3
   2  -7   9 987.132 210.292   3
   5   2   9 1259.04 230.747   1
  -5   7   9 716.295 68.1481   4
   7  -2   9 790.796 179.468   3
  -7   5   9 933.963 137.364   4
  -5   7   9 1031.12 193.750   1
   2  -7   9 1158.69 125.947   1
   7  -2   9 771.525 169.053   1
  -7   5   9 1283.58 192.160   1
   5   2   9 957.257 160.245   2
  -7   5   9 1358.50 253.391   3
   7  -1  -7 1602.50 140.494   1
   6   1  -7 1730.51 128.154   1
   7  -1  -7 1438.50 180.616   4
   1  -7  -4 705.299 139.757   1
   7  -1  -4 773.877 152.163   4
   7  -1  -4 847.804 167.256   2
   6   1  -4 929.752 177.642   2
  -6   7  -4 819.333 119.316   3
   6   1  -4 728.541 166.552   4
   6   1  -4 866.993 145.248   3
   7  -1  -4 754.881 89.7372   1
   7  -1  -4 716.797 136.309   3
   6   1  -4 799.671 73.4810   1
  -1  -6  -4 780.579 144.842   1
   1  -7  -4 730.152 63.5701   4
  -6   7  -1 635.766 117.255   1
  -1  -6  -1 672.244 69.7115   2
   7  -1  -1 637.900 83.8559   3
  -6   7  -1 524.471 123.456   4
   6   1  -1 741.991 138.838   2
  -6   7  -1 677.810 70.8711   3
  -7   6  -1 817.206 123.313   4
   1  -7  -1 440.897 116.371   3
  -7   6  -1 722.495 110.180   2
   6   1  -1 513.893 131.931   4
  -1  -6  -1 652.338 122.314   3
  -6   7  -1 730.358 111.210   2
   1  -7  -1 693.518 107.670   1
   7  -1  -1 726.799 103.858   1
   7  -1  -1 763.217 137.852   2
   7  -1  -1 786.438 141.145   4
  -7   6  -1 620.410 47.3251   3
  -1  -6  -1 598.885 105.690   1
   6   1  -1 539.890 82.1419   3
  -7   6  -1 1038.64 136.257   1
   1  -7   2 1185.16 77.0151   1
   7  -1   2 1179.12 94.7297   3
  -6   7   2 1279.20 146.340   1
  -6   7   2 1242.17 101.887   2
   7  -1   2 1217.64 117.917   2
   6   1   2 1228.33 105.444   2
   6   1   2 1215.43 113.170   3
  -1  -6   2 1142.83 135.149   3
  -1  -6   2 1078.23 59.8135   1
   1  -7   2 1317.59 128.994   3
  -7   6   2 1291.00 134.151   4
   7  -1   2 1109.40 119.045   4
   6   1   2 1319.57 116.848   4
  -6   7   2 1217.80 132.355   4
  -7   6   2 1101.05 133.634   1
  -7   6   2 1103.73 119.316   2
  -7   6   5 51.4463 85.2490   4
   1  -7   5 24.1169 37.0673   1
  -7   6   5 129.335 102.575   2
  -1  -6   5 136.267 128.876   4
   1  -7   5 81.3034 121.379   4
   1  -7   5 298.726 116.622   3
  -6   7   5 278.786 112.518   1
  -6   7   5 49.3016 97.7385   2
  -6   7   5 68.6917 73.9961   4
   6   1   5 205.067 133.126   1
   7  -1   5 84.4626 96.0591   2
   7  -1   5 222.095 112.927   1
  -1  -6   5 122.786 115.568   3
   1  -7   5 43.7581 43.5913   1
  -7   6   5 126.016 103.672   1
   7  -1   5 121.284 47.9683   4
   6   1   5 200.744 91.7781   2
   6   1   5 32.4748 30.3257   4
   1  -7   8 332.689 145.318   3
   1  -7   8 106.626 146.297   4
   6   1   8 452.486 159.052   1
  -6   7   8 272.391 82.0054   4
   7  -1   8 327.763 141.206   1
   6   1   8 300.838 119.397   2
  -7   6   8 170.457 120.231   1
  -7   6   8 283.085 166.373   3
  -1  -6   8 151.863 141.904   3
  -7   6   8 335.922 103.453   4
   1  -7   8 253.581 69.7997   1
   7  -1   8 411.092 151.824   3
  -6   7   8 385.523 141.953   1
  -6   7   8 100.122 175.545   3
   6   1   8 293.223 157.143   3
  -6   7   8 334.387 143.984   2
  -1  -6   8 323.695 56.5161   1
  -1  -6   8 303.485 146.286   4
   7  -1   8 189.184 112.294   2
  -6   7  11 508.617 181.482   1
  -7   6  11 254.632 208.031   3
   6   1  11 543.605 209.240   1
  -1  -6  11 238.399 199.292   3
   7  -1  11 617.505 181.257   2
   7  -1  11 877.209 238.382   3
  -6   7  11 653.497 233.611   3
   6   1  11 607.706 173.043   2
   6   1  11 454.007 217.129   3
   7  -1  11 434.933 194.746   1
  -7   6  11 497.225 183.039   1
   1  -7  11 415.555 216.727   3
   7   0  -8 2187.89 163.907   1
   7   0  -5-28.1194 116.643   4
   7   0  -5 111.891 64.9918   1
   0  -7  -5 77.1701 109.979   1
   7   0  -2 6726.54 245.780   3
   0  -7  -2 6896.87 273.932   1
   7   0  -2 6564.99 297.505   2
  -7   7  -2 6654.84 173.890   3
   7   0  -2 7034.64 208.884   1
   7   0  -2 6443.35 289.124   4
  -7   7   1-19.0490 103.825   1
   7   0   1-49.3887 54.4322   3
   7   0   1 15.2215 94.8447   2
  -7   7   1 136.119 80.2002   2
   0  -7   1-36.4079 83.5241   3
  -7   7   1 128.430 94.3020   4
   0  -7   1 38.9754 61.2723   1
   7   0   1 181.778 109.906   4
   7   0   4 1757.18 144.926   2
   0  -7   4 1470.01 168.767   4
  -7   7   4 1595.60 145.092   2
  -7   7   4 1844.68 168.300   1
  -7   7   4 1642.18 147.311   4
   7   0   4 1792.14 113.563   4
   0  -7   4 1547.82 166.952   3
   7   0   4 1745.09 182.642   1
  -7   7   7-239.243 172.461   3
   7   0   7-124.484 142.390   1
   7   0   7-60.1868 98.5521   2
   0  -7   7 32.4742 145.855   4
   7   0   7-89.3254 115.597   3
  -7   7   7-17.1161 115.384   2
   0  -7   7-42.4238 38.6924   1
   0  -7   7-6.06053 36.0137   1
  -7   7   7 46.7250 115.646   1
   0  -7   7 0.19187 135.052   3
  -7   7   7 44.3330 86.8014   4
   7   0  10 1439.20 232.184   1
   0  -7  10 1611.83 267.114   3
  -7   7  10 1457.59 229.645   1
   7   0  10 1526.32 216.019   2
  -7   7  10 1672.00 286.369   3
   7   0  10 1456.99 257.388   3
   8  -8  -8 2299.75 185.675   4
   8  -8  -5 13.4060 86.0338   4
   8  -8  -5-18.3512 100.859   2
  -8   0  -5 49.4069 57.1867   4
   8  -8  -5 12.4146 99.7628   1
  -8   0  -2 6481.72 236.048   4
   8  -8  -2 6148.31 262.933   4
  -8   0  -2 6630.59 236.800   2
   8  -8  -2 6294.51 234.765   2
   0   8  -2 7022.42 256.832   3
   8  -8  -2 6948.70 274.561   1
   0   8  -2 6806.03 168.581   1
   8  -8   1 147.239 106.949   1
  -8   0   1 216.171 110.647   4
  -8   0   1 7.15493 71.6471   3
   0   8   1 15.1159 90.8206   3
  -8   0   1 49.0353 96.9632   2
   8  -8   1 77.0409 101.099   2
   0   8   1 97.6813 104.434   1
   8  -8   1 45.3574 52.9468   3
   8  -8   1 62.9540 111.761   4
   0   8   4 2801.20 221.581   1
   8  -8   4 2809.53 217.677   2
   8  -8   4 2689.85 163.445   3
  -8   0   4 2504.94 243.714   2
  -8   0   4 2735.21 217.803   3
   8  -8   4 2577.25 198.671   4
  -8   0   4 2544.65 148.836   1
  -8   0   4 2524.36 212.941   4
   0   8   7 141.381 133.065   1
   8  -8   7-32.7182 107.272   3
   8  -8   7 9.13152 95.6781   4
  -8   0   7-87.7263 120.253   4
  -8   0   7-29.5869 146.649   3
  -8   0   7 104.363 81.3642   1
   8  -8   7 96.0446 107.846   1
   8  -8   7-136.988 151.155   2
   0   8   7 13.1013 65.9756   2
   0   8   7 101.163 86.9184   2
   0   8  10 1360.81 246.023   1
   8  -8  10 1136.18 227.777   3
  -8   0  10 1034.51 131.403   1
   8  -8  10 1224.49 228.080   2
   0   8  10 1324.98 288.367   3
  -8   0  10 1313.44 270.604   3
   8  -8  10 1383.51 193.102   1
   0   8  10 1069.00 148.606   2
   8  -8  10 1088.55 153.120   4
   8  -7  -6 1565.05 180.181   1
   7  -8  -6 1548.01 176.362   1
   7  -8  -6 1611.39 149.300   4
   8  -7  -6 1559.56 157.351   4
   8  -7  -3 5352.63 245.571   4
  -8   1  -3 5328.23 202.110   4
   1   7  -3 5565.84 252.116   3
   8  -7  -3 5738.61 255.145   1
   8  -7  -3 5067.13 238.221   2
  -1   8  -3 5285.73 243.312   3
   7  -8  -3 5029.45 223.459   4
  -7  -1  -3 5461.96 205.298   2
   7  -8  -3 5136.61 214.575   2
  -8   1  -3 4998.48 218.252   2
   7  -8  -3 5193.97 252.837   1
  -7  -1  -3 5357.91 186.169   4
   7  -8   0 2722.97 135.683   3
  -7  -1   0 2928.32 178.779   2
   7  -8   0 2801.40 187.412   4
   8  -7   0 2658.88 168.184   2
  -8   1   0 2921.97 173.589   2
  -7  -1   0 2809.34 139.539   3
  -1   8   0 2680.16 158.736   3
  -8   1   0 2740.41 188.658   4
   7  -8   0 2835.76 176.675   1
  -1   8   0 2657.66 161.690   1
   8  -7   0 2467.89 173.913   1
   7  -8   0 2579.81 163.633   2
   8  -7   0 2425.33 176.831   4
  -7  -1   0 2658.93 197.864   4
   1   7   0 2598.64 163.887   3
   1   7   0 2538.50 153.396   1
  -8   1   0 2752.07 117.253   3
   7  -8   3 5346.33 238.009   1
  -8   1   3 6251.48 307.206   2
  -1   8   3 5804.14 274.315   1
  -7  -1   3 5594.20 258.446   3
   7  -8   3 5843.45 275.654   2
   1   7   3 6495.70 302.710   3
  -8   1   3 5916.94 288.572   4
  -7  -1   3 5854.77 313.626   2
   7  -8   3 6165.26 207.405   3
   1   7   3 6208.15 283.112   1
  -8   1   3 5785.93 216.060   1
   8  -7   3 5831.12 265.892   2
  -7  -1   3 5476.88 285.910   4
   8  -7   3 5769.46 253.160   4
  -8   1   3 5744.63 266.070   3
   8  -7   3 6117.90 191.777   3
   7  -8   3 5316.28 256.649   4
  -7  -1   6 963.149 93.2519   1
  -1   8   6 908.548 172.138   1
  -7  -1   6 1158.38 182.592   3
   8  -7   6 840.268 131.130   4
  -7  -1   6 997.638 168.587   4
  -8   1   6 895.320 172.981   3
   1   7   6 976.604 171.640   1
  -8   1   6 987.255 162.378   4
   1   7   6 808.842 102.528   2
   8  -7   6 922.769 137.748   3
   7  -8   6 807.181 143.606   3
  -8   1   6 998.499 117.741   1
  -1   8   6 886.848 99.0004   2
   1   7   6 933.200 90.9567   2
   8  -7   6 952.010 172.056   2
   7  -8   6 733.950 127.223   4
   8  -7   9 3622.07 307.907   3
   8  -7   9 3474.35 217.428   4
   1   7   9 3460.44 215.714   2
  -8   1   9 3677.49 363.487   3
  -1   8   9 3487.68 308.692   1
   7  -8   9 3409.89 250.564   1
  -8   1   9 3219.39 211.398   1
   8  -7   9 3287.65 302.998   2
  -7  -1   9 3010.86 177.676   1
   7  -8   9 3474.18 303.363   3
   7  -8   9 3080.79 228.260   4
   1   7   9 3597.02 315.097   1
   7  -8   9 3002.93 251.958   4
   8  -7   9 3296.79 272.744   1
  -7  -1   9 3284.24 336.061   3
   6  -8  -7 2736.44 167.169   4
   8  -6  -7 2765.94 206.132   4
   8  -6  -7 2483.45 213.357   1
   6  -8  -4 300.345 85.9104   4
  -2   8  -4 417.568 126.214   3
   2   6  -4 246.910 109.067   3
   8  -6  -4 490.953 119.191   4
  -6  -2  -4 426.343 60.2142   4
   6  -8  -4 338.290 92.7339   2
   8  -6  -4 517.231 132.317   2
  -8   2  -4 465.173 85.4404   4
   6  -8  -4 517.311 122.585   1
   8  -6  -4 463.035 115.880   1
  -2   8  -1 12236.5 262.565   1
  -8   2  -1 12020.0 189.339   3
   2   6  -1 11593.7 237.361   1
   6  -8  -1 11528.5 318.483   4
  -2   8  -1 12281.0 291.306   3
   8  -6  -1 11443.9 333.759   4
   6  -8  -1 11594.8 259.020   2
  -8   2  -1 12441.9 325.267   4
   6  -8  -1 11409.5 312.328   1
  -6  -2  -1 12276.1 281.043   2
  -6  -2  -1 12137.0 281.861   3
   2   6  -1 11804.3 301.676   3
   8  -6  -1 11351.2 302.684   2
  -8   2  -1 12222.3 312.245   2
  -6  -2  -1 12187.2 323.095   4
   8  -6  -1 12096.5 324.131   1
  -6  -2   2 6322.47 289.065   4
   6  -8   2 7105.80 245.453   1
  -8   2   2 6477.54 229.344   3
  -2   8   2 7055.16 286.715   3
   2   6   2 6305.48 257.457   1
  -8   2   2 6272.76 235.918   1
  -6  -2   2 4786.90 262.550   2
  -2   8   2 6103.71 258.658   1
   6  -8   2 5797.70 265.142   4
   8  -6   2 6513.44 142.387   3
   2   6   2 6851.74 274.532   3
   8  -6   2 6508.59 256.261   4
  -8   2   2 6349.75 278.283   4
   6  -8   2 5599.17 255.555   2
   2   6   2 5755.78 134.542   2
  -6  -2   2 6231.10 240.675   3
   8  -6   2 6303.39 261.695   2
  -8   2   2 6546.52 281.914   2
   6  -8   2 6649.53 196.665   3
  -2   8   5 1026.80 87.2171   2
  -8   2   5 1123.24 190.204   3
   8  -6   5 1059.64 130.199   3
  -6  -2   5 908.456 164.957   3
   8  -6   5 1335.40 140.212   4
  -8   2   5 1148.50 123.778   1
   6  -8   5 1461.76 162.261   3
  -8   2   5 1041.85 150.249   4
   2   6   5 1004.12 174.826   1
   8  -6   5 1130.53 157.445   2
  -8   2   5 1121.20 191.995   2
   2   6   5 1113.34 85.7537   2
  -6  -2   5 981.008 166.046   4
  -2   8   5 1191.19 171.333   1
  -6  -2   5 1157.05 203.373   2
  -6  -2   5 1066.78 81.4119   1
   6  -8   5 1203.77 156.826   4
   6  -8   8 1523.10 167.376   1
  -2   8   8 1826.71 233.912   1
   8  -6   8 1643.84 219.031   3
   6  -8   8 1647.24 204.151   4
  -6  -2   8 1898.72 256.034   3
   2   6   8 1347.06 144.093   2
   2   6   8 1246.61 166.097   2
  -8   2   8 1331.07 182.314   4
   8  -6   8 1668.91 208.397   2
  -8   2   8 1686.32 165.281   1
   2   6   8 1410.73 212.899   1
  -6  -2   8 1490.78 113.800   1
  -8   2   8 1288.48 217.041   3
  -2   8   8 1351.98 156.619   2
   6  -8   8 1827.33 190.253   4
   8  -6   8 1687.14 153.710   4
   6  -8   8 1670.28 213.787   3
   8  -6   8 1290.81 180.162   1
   8  -6  11 1157.88 219.443   2
  -2   8  11 922.638 178.570   2
   8  -6  11 1236.75 205.374   1
  -6  -2  11 731.275 234.270   3
   8  -6  11 1227.50 244.529   3
  -8   2  11 859.888 263.450   3
   2   6  11 1190.94 187.691   2
   2   6  11 988.658 254.255   1
  -2   8  11 1377.81 256.319   1
  -2   8  11 1592.95 303.672   3
   6  -8  11 1318.49 259.648   3
   2   6  11 984.238 275.624   3
   8  -5  -8 870.902 161.011   1
   8  -5  -8 1522.49 178.592   4
   5  -8  -5 1693.93 177.626   1
  -3   8  -5 1880.62 189.733   3
   8  -5  -5 2155.44 208.799   2
   8  -5  -5 1822.37 159.018   1
   5  -8  -5 1997.67 131.315   4
   8  -5  -5 1953.42 181.201   4
  -8   3  -2 200.132 86.9844   4
   5  -8  -2 420.089 100.814   4
  -5  -3  -2 355.490 71.6022   2
  -3   8  -2 247.186 78.6137   1
  -8   3  -2 314.341 90.5042   2
   8  -5  -2 185.492 102.286   4
   3   5  -2 362.807 98.4226   3
   5  -8  -2 431.980 74.3419   2
   3   5  -2 271.213 44.2483   1
   8  -5  -2 336.895 115.001   2
  -5  -3  -2 322.086 95.4406   4
   5  -8  -2 444.202 109.565   1
  -3   8  -2 278.570 86.7263   3
   8  -5  -2 452.125 105.333   1
   3   5   1 1030.30 115.152   3
   5  -8   1 944.552 126.694   2
  -8   3   1 1087.60 132.913   2
   5  -8   1 1035.17 149.079   4
   5  -8   1 1134.06 119.413   1
   3   5   1 1064.28 129.612   1
   8  -5   1 885.842 128.515   1
   3   5   1 1079.10 105.559   2
  -8   3   1 851.713 129.237   4
   5  -8   1 1087.68 104.969   3
   8  -5   1 1006.79 128.390   2
  -8   3   1 985.434 94.6517   3
  -5  -3   1 706.315 124.613   4
  -5  -3   1 958.793 146.176   2
   8  -5   1 970.866 132.928   4
  -5  -3   1 1059.36 112.155   3
  -8   3   1 1140.08 138.452   1
  -3   8   1 985.962 125.635   3
  -3   8   1 718.383 120.335   1
  -8   3   4 6750.09 298.298   4
  -3   8   4 7002.71 173.211   2
  -5  -3   4 7591.50 369.149   2
   3   5   4 7116.10 179.250   2
   3   5   4 6783.35 315.736   1
   8  -5   4 7304.24 257.757   4
   5  -8   4 7015.52 240.575   1
   8  -5   4 7275.68 249.878   3
   5  -8   4 7301.34 282.620   3
  -8   3   4 6795.67 335.070   2
  -5  -3   4 6021.47 297.808   3
  -5  -3   4 7219.73 336.141   4
  -8   3   4 7035.12 255.376   1
   8  -5   4 7455.94 305.845   2
  -8   3   4 7341.74 321.762   3
  -3   8   4 7127.10 313.960   1
  -5  -3   7 1308.38 197.267   3
  -3   8   7 1771.75 205.783   1
   5  -8   7 1387.21 144.405   1
  -5  -3   7 1306.71 88.7216   1
   8  -5   7 1577.59 190.956   3
  -8   3   7 1634.14 227.332   3
  -8   3   7 1486.93 181.339   4
  -8   3   7 1178.31 148.451   1
   3   5   7 1113.34 190.197   1
   8  -5   7 1270.28 176.474   1
   3   5   7 1583.58 141.913   2
  -3   8   7 1284.84 146.715   2
   8  -5   7 1280.78 175.491   2
   5  -8   7 1461.71 190.396   3
   8  -5   7 1375.02 130.162   4
  -5  -3   7 1407.85 200.638   4
   5  -8  10 75.1750 101.853   4
   8  -5  10 289.780 167.738   3
   5  -8  10 134.323 102.599   1
   3   5  10 228.625 180.494   3
  -3   8  10 54.8283 153.761   1
   3   5  10-132.503 178.859   1
  -3   8  10 420.733 215.218   3
   5  -8  10 166.669 163.201   3
   3   5  10 249.619 125.212   2
  -8   3  10 413.517 213.503   3
   8  -5  10 95.8712 126.662   2
  -5  -3  10 311.760 194.217   3
  -8   3  10 252.873 131.127   1
   8  -5  10 201.301 132.774   1
   8  -4  -6 406.118 102.970   1
   4  -8  -6 430.136 70.7877   4
   8  -4  -6 389.980 126.358   4
   4  -8  -3 7208.34 224.067   4
   8  -4  -3 6975.56 307.877   2
  -4  -4  -3 7177.89 303.208   1
  -8   4  -3 7283.63 253.809   4
   4   4  -3 8036.14 340.433   4
  -4   8  -3 7322.55 256.895   3
  -8   4  -3 7797.47 282.112   2
   8  -4  -3 7550.28 257.121   1
   4  -8  -3 7238.11 182.115   2
  -4  -4  -3 7359.80 190.513   4
  -4  -4  -3 7257.13 179.129   2
   4   4  -3 7319.87 288.160   3
   4  -8  -3 7457.82 293.123   1
   8  -4  -3 6953.75 289.504   4
  -8   4   0 11163.0 295.406   2
   4  -8   0 10515.4 272.850   3
   4  -8   0 10559.2 287.776   1
   8  -4   0 11262.7 316.387   1
  -8   4   0 11088.3 318.222   4
   4  -8   0 11236.9 255.620   2
   8  -4   0 11013.1 323.188   4
   4   4   0 10831.4 266.409   1
  -4  -4   0 10980.5 286.257   2
   4   4   0 10864.0 331.243   4
  -4  -4   0 11026.4 335.809   4
  -4  -4   0 11313.2 274.737   3
  -4   8   0 11133.9 289.204   1
   4   4   0 11035.4 263.688   3
  -8   4   0 10308.9 143.497   3
  -4   8   0 11122.9 265.409   3
   4   4   0 11012.9 297.544   2
  -8   4   3 7702.39 267.907   1
  -8   4   3 6883.20 287.338   3
  -4   8   3 7334.17 166.230   2
  -4   8   3 7623.56 239.007   4
  -4  -4   3 7867.10 295.830   3
   8  -4   3 7506.39 285.210   2
   4   4   3 7756.51 306.187   1
  -4  -4   3 7770.38 340.583   4
  -4  -4   3 7670.29 350.453   2
   8  -4   3 7506.70 254.871   4
  -4   8   3 7788.90 297.891   1
   8  -4   3 7439.18 211.615   3
  -8   4   3 7609.82 312.701   2
   4  -8   3 7655.73 219.520   1
   4  -8   3 7654.07 257.880   3
  -8   4   3 7508.76 293.476   4
   4   4   3 7813.98 190.135   2
   4   4   3 7708.12 304.644   3
  -4   8   6 477.831 67.7020   4
   4   4   6 383.045 88.7212   2
   4  -8   6 798.497 158.180   3
  -4   8   6 710.393 146.576   1
  -4  -4   6 765.532 173.548   3
   4  -8   6 434.141 94.9424   1
  -4   8   6 548.977 110.887   2
   8  -4   6 664.102 124.061   1
   8  -4   6 610.424 125.837   2
  -8   4   6 672.325 133.308   4
  -8   4   6 646.989 171.482   2
  -4  -4   6 497.819 148.075   4
   4   4   6 523.249 147.787   1
  -8   4   6 372.472 146.974   3
   8  -4   6 530.243 106.390   3
  -8   4   6 662.866 124.324   1
   8  -4   6 487.065 81.2088   4
   4   4   9 2031.96 258.374   1
  -4   8   9 1544.48 271.385   3
  -4  -4   9 2301.39 292.208   3
   8  -4   9 1920.37 244.383   3
   4   4   9 1972.53 183.236   2
   8  -4   9 1595.07 111.146   4
  -8   4   9 1833.06 269.396   3
  -4   8   9 2189.17 264.317   1
   4   4   9 1719.50 263.164   3
  -4  -4   9 1500.44 100.221   1
  -8   4   9 1941.60 208.816   1
  -8   4   9 1946.27 200.924   4
   4  -8   9 1868.63 167.623   1
   8  -4   9 1925.07 222.110   1
   4  -8   9 2163.26 268.030   3
   8  -4   9 1993.48 234.048   2
   8  -4   9 1384.43 112.252   4
   8  -3  -7 1442.58 190.605   4
   8  -3  -7 1261.87 139.530   1
   8  -3  -4 6974.96 333.079   2
   5   3  -4 7110.76 336.608   4
  -5   8  -4 6879.73 281.633   3
  -3  -5  -4 7522.98 333.826   1
   3  -8  -4 7097.40 312.644   1
   3  -8  -4 7123.52 200.172   4
   8  -3  -4 7133.81 317.177   4
   5   3  -4 7628.55 333.152   3
   8  -3  -4 7028.78 247.328   1
   5   3  -1 906.428 153.750   4
  -3  -5  -1 1065.44 133.084   3
   8  -3  -1 1022.74 96.3245   3
  -8   5  -1 1094.41 128.248   4
   3  -8  -1 898.764 132.574   3
   8  -3  -1 1131.85 135.451   2
  -3  -5  -1 938.757 87.4728   2
   5   3  -1 1017.07 147.139   2
   3  -8  -1 1008.43 77.4321   2
  -3  -5  -1 1027.06 125.958   4
   3  -8  -1 1087.42 125.654   1
   8  -3  -1 985.572 148.381   4
   8  -3  -1 934.189 123.386   1
  -5   8  -1 1076.73 131.329   1
  -5   8  -1 1001.31 98.3105   3
   5   3  -1 1287.54 117.249   3
  -8   5  -1 1042.56 127.968   2
  -3  -5  -1 989.893 122.535   1
   5   3   2 226.544 90.9819   4
  -3  -5   2 400.566 140.772   2
   5   3   2 343.126 96.4376   3
   8  -3   2 299.564 117.922   2
  -5   8   2 157.013 104.334   1
  -3  -5   2 415.907 111.396   3
   3  -8   2 195.643 85.4040   3
  -8   5   2 236.246 91.9021   1
  -8   5   2 123.522 104.702   4
  -5   8   2 390.505 99.8775   4
   3  -8   2 297.903 67.9909   1
  -3  -5   2 292.591 124.399   4
  -8   5   2 296.295 95.0178   3
  -8   5   2 259.973 98.4246   2
   5   3   2 177.373 64.2382   2
   8  -3   2 237.378 96.0949   4
   5   3   2 211.492 110.781   1
  -5   8   2 238.873 60.1167   2
  -5   8   5 1946.99 147.839   2
   8  -3   5 1724.05 185.469   1
  -5   8   5 2211.49 193.322   1
  -8   5   5 1905.40 164.506   1
  -5   8   5 1958.70 135.564   4
   3  -8   5 2047.22 129.408   1
  -3  -5   5 1868.08 198.773   3
   8  -3   5 1974.31 128.684   4
  -3  -5   5 2213.04 217.772   4
   5   3   5 1959.74 140.277   2
   8  -3   5 1884.96 165.905   3
  -8   5   5 1897.46 168.721   4
   5   3   5 2357.72 217.437   1
  -8   5   5 1733.00 192.565   2
   3  -8   5 1990.65 183.193   3
  -8   5   5 2099.12 216.131   3
   8  -3   5 1889.10 169.033   2
   8  -3   8 958.889 91.2212   4
  -3  -5   8 966.574 199.218   3
  -8   5   8 970.581 166.805   1
   8  -3   8 1339.24 196.366   1
   3  -8   8 852.428 106.406   1
   5   3   8 1003.06 195.656   1
  -8   5   8 1052.90 220.365   3
  -5   8   8 1374.09 207.349   1
   8  -3   8 1424.35 198.381   3
   3  -8   8 1034.03 200.145   4
   3  -8   8 1149.03 199.181   3
  -5   8   8 812.915 80.0807   4
   5   3   8 950.069 146.079   2
  -8   5   8 829.348 141.823   4
  -3  -5   8 790.940 61.7178   1
   8  -3   8 1008.02 86.4226   4
   8  -3   8 924.295 166.087   2
  -5   8   8 1009.91 161.239   2
   3  -8  11 308.870 193.197   3
  -5   8  11 322.479 186.792   1
  -3  -5  11 319.120 208.523   3
   8  -3  11 217.307 150.988   1
   8  -3  11 90.8204 172.567   3
   8  -3  11 59.5597 150.330   2
  -5   8  11 105.037 207.689   3
   5   3  11 431.928 157.708   2
   5   3  11 727.940 239.122   3
   5   3  11 592.993 202.280   1
  -8   5  11 307.801 210.832   3
  -8   5  11 162.637 150.638   1
   8  -2  -8 1132.56 144.450   1
  -6   8  -5 1097.26 147.026   3
  -2  -6  -5 1199.92 176.770   1
   6   2  -5 1126.09 184.323   4
   8  -2  -5 1139.62 188.018   2
   2  -8  -5 979.661 70.2283   4
   2  -8  -5 1260.66 179.496   1
   8  -2  -5 1028.14 115.491   1
   8  -2  -5 762.209 157.477   4
   6   2  -5 888.347 69.3094   1
   6   2  -2 6254.62 178.446   1
   2  -8  -2 6139.85 257.534   1
  -2  -6  -2 6173.33 263.718   1
   8  -2  -2 6288.67 221.056   1
  -6   8  -2 5928.60 233.690   1
  -8   6  -2 6498.93 151.540   3
   6   2  -2 6054.28 242.789   3
  -2  -6  -2 6122.26 210.009   4
   8  -2  -2 6097.53 228.560   3
   6   2  -2 6196.15 299.525   2
  -8   6  -2 6347.54 251.151   4
  -6   8  -2 6461.21 194.012   3
   8  -2  -2 6041.14 286.738   2
  -8   6  -2 6438.08 253.806   2
   6   2  -2 6704.26 315.439   4
   8  -2  -2 5683.06 280.922   4
  -2  -6  -2 5974.84 118.996   2
   2  -8   1 10809.2 246.170   1
   6   2   1 10859.3 274.934   2
  -2  -6   1 11318.9 232.338   1
   6   2   1 10370.2 305.944   4
  -2  -6   1 11021.6 336.608   2
   6   2   1 11131.3 256.429   3
   2  -8   1 11117.9 287.830   3
  -8   6   1 11285.4 301.089   2
  -2  -6   1 11497.5 347.110   4
  -6   8   1 11479.8 259.239   2
  -8   6   1 11416.4 330.908   1
  -6   8   1 11553.4 327.182   4
  -6   8   1 11745.6 296.220   3
  -6   8   1 10822.7 316.438   1
  -2  -6   1 10586.6 298.930   3
   8  -2   1 11206.6 306.647   2
   8  -2   1 11121.2 167.876   3
   8  -2   1 11216.0 318.367   4
  -8   6   1 11895.0 335.267   4
   6   2   4 442.294 94.0458   2
  -6   8   4 581.854 109.935   4
   8  -2   4 473.700 85.6341   4
   2  -8   4 465.420 57.7638   1
  -8   6   4 618.169 118.264   4
  -6   8   4 607.222 137.363   1
   6   2   4 555.871 72.2824   4
  -2  -6   4 460.810 129.637   4
  -8   6   4 522.007 118.550   1
   6   2   4 483.739 135.856   1
   2  -8   4 351.626 106.075   3
  -6   8   4 521.378 91.6544   2
   8  -2   4 535.007 109.214   2
  -8   6   4 483.316 118.664   2
  -2  -6   4 659.672 163.214   2
  -2  -6   4 582.566 140.492   3
   6   2   7 3342.82 282.019   1
  -6   8   7 2448.03 208.820   2
  -6   8   7 2713.84 162.883   4
  -8   6   7 2655.23 190.890   4
  -2  -6   7 2469.44 243.944   4
   8  -2   7 2601.61 246.495   1
  -8   6   7 2864.38 235.089   1
  -8   6   7 2385.93 247.057   2
   2  -8   7 2476.46 250.614   4
   6   2   7 2969.13 208.843   2
  -2  -6   7 2635.18 261.115   3
  -8   6   7 2525.71 267.487   3
   8  -2   7 2862.74 240.058   3
   2  -8   7 2580.95 134.316   1
   2  -8   7 2901.78 264.432   3
  -6   8   7 3061.40 253.823   1
   8  -2   7 2661.25 122.648   4
   8  -2   7 2818.37 223.196   2
   2  -8   7 2598.12 141.726   1
   6   2  10 1873.59 217.756   2
  -8   6  10 1699.17 307.980   3
   8  -2  10 2147.01 253.887   2
   6   2  10 2058.40 270.913   1
  -6   8  10 1849.07 308.433   3
   6   2  10 2261.18 293.579   3
   8  -2  10 2162.34 280.440   3
   2  -8  10 1758.91 268.493   3
   2  -8  10 1606.70 131.502   1
  -2  -6  10 1565.23 264.671   3
  -6   8  10 1999.74 258.463   1
  -8   6  10 1862.46 238.133   1
   8  -2  10 1394.51 219.381   1
   8  -1  -9 2402.94 186.721   1
   8  -1  -6 620.225 95.5358   1
   7   1  -6 810.527 164.639   4
   8  -1  -6 998.287 173.322   4
   7   1  -6 824.933 84.2053   1
  -7   8  -3 5747.41 207.289   3
   7   1  -3 6114.42 178.606   1
   8  -1  -3 5397.39 284.034   4
  -8   7  -3 5716.67 197.711   3
   7   1  -3 5778.58 302.012   4
   1  -8  -3 6458.88 287.803   1
   8  -1  -3 5952.37 206.707   1
   8  -1  -3 5719.63 260.872   3
   8  -1  -3 5662.61 304.669   2
  -1  -7  -3 6145.88 288.940   1
   1  -8  -3 5976.51 196.589   4
   7   1  -3 5626.94 321.848   2
   7   1  -3 5464.19 258.736   3
  -8   7   0 2330.64 177.826   1
   8  -1   0 2243.44 177.346   2
  -7   8   0 2257.14 175.636   4
   7   1   0 2453.47 174.400   2
   7   1   0 2554.64 128.022   3
  -7   8   0 2649.98 155.012   2
  -1  -7   0 1750.28 148.805   3
  -1  -7   0 2509.56 149.173   1
   8  -1   0 2464.75 188.890   4
  -7   8   0 2596.86 177.095   1
  -8   7   0 2614.77 162.446   2
   1  -8   0 2430.61 165.479   3
   1  -8   0 2487.00 147.050   1
  -7   8   0 2400.42 125.513   3
  -8   7   0 2700.64 115.213   3
  -8   7   0 2472.37 173.304   4
   8  -1   0 2394.87 112.663   3
  -1  -7   0 2671.25 158.779   2
   7   1   0 2442.86 185.085   4
  -7   8   3 5721.35 236.595   4
  -1  -7   3 5578.40 287.371   4
  -7   8   3 6047.83 274.786   1
   1  -8   3 5327.54 131.379   1
   7   1   3 5619.35 213.420   2
   7   1   3 5777.11 277.837   1
  -1  -7   3 5680.52 260.173   3
  -7   8   3 5820.41 213.503   2
   8  -1   3 5735.28 215.597   4
   7   1   3 5815.85 240.216   3
  -8   7   3 6130.67 269.114   1
  -8   7   3 5568.61 238.606   2
   1  -8   3 5991.19 263.463   3
   8  -1   3 5973.26 234.254   2
   7   1   3 5833.97 205.142   4
  -8   7   3 5541.96 245.471   4
  -7   8   6 1405.55 137.833   4
   7   1   6 1580.91 217.860   1
   7   1   6 1560.73 154.980   2
  -1  -7   6 1443.53 195.021   3
  -8   7   6 1585.14 153.750   4
   1  -8   6 1239.84 75.3805   1
  -7   8   6 1377.07 168.102   2
   8  -1   6 1414.23 94.7214   4
   1  -8   6 1044.19 66.9537   1
  -8   7   6 1487.30 173.273   1
   8  -1   6 1686.18 193.031   1
   1  -8   6 1263.32 194.859   4
  -1  -7   6 1357.52 201.683   4
   1  -8   6 1329.79 182.145   3
  -7   8   6 1466.87 183.448   1
  -8   7   6 1536.36 187.781   2
  -8   7   6 1057.64 187.190   3
   8  -1   6 1383.13 162.183   2
   7   1   9 860.897 165.719   2
  -8   7   9 891.829 182.601   1
   1  -8   9 1348.48 229.633   3
  -7   8   9 861.452 224.526   3
   8  -1   9 1144.52 183.772   2
   8  -1   9 769.340 183.005   3
   7   1   9 1012.35 214.850   1
  -1  -7   9 531.323 46.8426   1
  -7   8   9 699.419 190.886   1
   7   1   9 1072.67 207.600   3
  -8   7   9 1134.15 237.385   3
   8  -1   9 892.444 197.751   1
  -1  -7   9 903.886 209.182   3
   1  -8   9 743.266 80.1081   1
   8   0  -7 179.426 138.283   4
   8   0  -7 26.6742 71.2997   1
   8   0  -4 2832.47 142.175   1
   0  -8  -4 2590.26 120.131   4
   0  -8  -4 2863.09 229.649   1
   8   0  -4 2858.16 235.008   4
   8   0  -4 2675.48 252.958   2
  -8   8  -4 2818.70 179.412   3
   8   0  -4 2798.34 221.595   3
   0  -8  -1-96.6636 93.8103   1
   8   0  -1 267.843 135.969   4
  -8   8  -1-19.2151 110.361   4
  -8   8  -1 103.419 113.735   1
   8   0  -1-11.3047 74.5809   3
   8   0  -1-84.7890 117.269   2
   0  -8  -1 23.4349 62.8294   2
  -8   8  -1 71.5752 88.1461   2
  -8   8  -1 20.8006 45.2271   3
   0  -8  -1 130.133 109.263   3
   8   0   2 6086.07 199.190   3
  -8   8   2 5468.68 256.778   1
  -8   8   2 5973.12 256.244   4
   8   0   2 5965.50 230.795   2
  -8   8   2 5642.38 214.884   2
   8   0   2 5592.39 234.166   4
   0  -8   2 5665.53 246.257   3
   0  -8   2 5925.21 160.071   1
   8   0   5 111.538 98.0074   2
  -8   8   5 179.493 118.836   1
  -8   8   5 71.7414 91.1919   2
   0  -8   5-7.45875 124.286   4
   8   0   5 43.7594 60.9218   4
  -8   8   5 109.774 93.5558   4
   8   0   5 329.464 127.912   1
   0  -8   5 140.171 125.006   3
  -8   8   8 1862.13 167.752   4
   8   0   8 1981.50 206.132   2
   8   0   8 2398.58 260.468   1
  -8   8   8 1625.68 215.012   1
  -8   8   8 1760.68 270.500   3
   8   0   8 1773.72 217.844   3
   0  -8   8 1943.76 242.756   3
   8   0  11-58.9999 146.001   2
  -8   8  11 217.359 223.779   3
   8   0  11-62.0843 167.969   1
   8   0  11 77.7503 190.978   3
   0  -8  11-264.187 187.518   3
  -8   8  11-53.0019 155.020   1
   9  -9  -9-6.37948 97.2770   4
   9  -9  -6 3526.83 230.014   4
   9  -9  -6 3568.17 251.061   2
   0   9  -3 98.1147 106.636   3
  -9   0  -3-26.9718 79.9306   4
   9  -9  -3-38.8459 95.8268   4
   0   9  -3 17.2868 40.6009   1
   9  -9  -3-133.219 100.407   1
  -9   0  -3 133.400 80.3024   2
   9  -9  -3-11.5383 98.2448   2
  -9   0   0 4964.29 175.270   3
   9  -9   0 4824.84 249.884   4
  -9   0   0 4895.22 262.067   4
   9  -9   0 4905.95 221.385   2
   0   9   0 4897.74 221.420   3
  -9   0   0 4805.88 227.777   2
   9  -9   0 4996.19 245.121   1
   0   9   0 5106.96 217.185   1
   0   9   3-56.5575 113.394   1
  -9   0   3-0.15019 128.276   2
   9  -9   3-7.78437 108.370   2
   0   9   3-35.8104 115.298   3
   9  -9   3 88.0315 107.513   4
  -9   0   3 39.4872 96.1075   3
  -9   0   3-9.99972 118.455   4
   9  -9   3 40.2081 55.4879   3
   9  -9   3 37.9746 89.3704   1
   9  -9   6 1794.35 222.175   2
  -9   0   6 2257.29 229.333   4
  -9   0   6 2170.97 249.066   3
   0   9   6 1934.24 92.2986   2
  -9   0   6 2311.00 149.070   1
   0   9   6 1819.14 214.131   1
   0   9   6 1673.64 101.558   2
   9  -9   6 1921.54 174.005   3
   9  -9   6 2172.21 196.249   4
   9  -9   9 102.723 156.893   2
  -9   0   9 101.187 85.6925   1
  -9   0   9 193.755 195.088   3
   9  -9   9-30.3459 124.539   3
   0   9   9 138.740 156.254   1
   9  -9   9-43.1126 96.4922   4
   9  -9   9 200.522 137.771   1
   0   9   9 55.8600 83.0292   2
   9  -8  -7 5986.53 297.908   4
   8  -9  -7 5290.63 256.772   4
   9  -8  -4 1151.64 147.911   1
   8  -9  -4 1111.04 132.161   4
   9  -8  -4 1026.67 140.810   2
   9  -8  -4 1095.80 149.013   4
  -8  -1  -4 1285.04 111.490   4
   8  -9  -4 1327.47 160.188   1
  -1   9  -4 1113.53 156.573   3
  -9   1  -4 1072.69 108.518   4
  -9   1  -4 1093.03 133.195   2
   1   8  -4 1146.34 155.312   3
  -8  -1  -4 1089.73 123.780   2
   8  -9  -4 1123.34 143.743   2
  -1   9  -1 8706.49 244.270   1
   8  -9  -1 9219.37 312.603   1
  -9   1  -1 9179.84 211.025   3
   8  -9  -1 8319.41 258.618   2
  -8  -1  -1 8972.15 275.061   2
   8  -9  -1 8891.06 314.691   4
   9  -8  -1 9440.60 316.222   1
   9  -8  -1 8966.08 313.813   4
  -8  -1  -1 8711.71 241.470   3
   9  -8  -1 8367.57 285.884   2
  -1   9  -1 9160.85 281.115   3
  -9   1  -1 9274.89 311.825   4
   1   8  -1 9397.20 290.464   3
  -8  -1  -1 8562.00 302.550   4
   1   8  -1 8712.53 230.875   1
  -9   1  -1 9362.36 294.116   2
  -1   9   2 1211.60 154.682   3
  -8  -1   2 1362.37 140.755   3
   9  -8   2 1285.76 152.775   2
   9  -8   2 1520.11 161.761   4
   8  -9   2 1431.22 103.935   3
   8  -9   2 1375.52 157.744   2
   1   8   2 1354.66 164.148   3
   9  -8   2 1429.82 82.6057   3
  -9   1   2 1490.75 177.144   4
  -1   9   2 1502.39 160.434   1
   8  -9   2 1232.05 152.870   4
  -8  -1   2 1059.33 170.501   2
   8  -9   2 1320.02 152.466   1
   9  -8   2 1540.11 159.480   1
  -9   1   2 1346.14 130.420   3
  -8  -1   2 1451.40 179.284   4
   1   8   2 1347.96 156.535   1
  -9   1   2 1187.56 159.969   2
   1   8   5 2453.48 221.137   1
  -8  -1   5 1978.10 212.469   4
  -9   1   5 2393.17 226.409   4
   8  -9   5 2351.83 201.762   4
   9  -8   5 2429.11 188.047   4
  -1   9   5 1859.31 68.9520   2
   9  -8   5 2357.54 169.307   3
  -9   1   5 2412.57 231.801   3
   8  -9   5 2275.40 223.636   2
   1   8   5 1852.98 93.5002   2
   8  -9   5 2786.47 186.576   3
  -9   1   5 2537.65 161.606   1
  -8  -1   5 2198.26 213.894   3
  -1   9   5 2444.90 219.875   1
   9  -8   5 2695.17 219.845   2
   1   8   5 2008.45 81.6435   2
  -8  -1   5 2389.18 133.425   1
  -1   9   8 1222.26 119.721   2
   9  -8   8 1044.56 175.492   1
   8  -9   8 1322.14 180.838   1
   9  -8   8 1448.75 197.191   3
   8  -9   8 1020.67 189.121   3
   1   8   8 1252.56 216.687   1
   8  -9   8 970.895 197.285   2
   9  -8   8 1255.93 153.950   4
  -8  -1   8 1104.99 112.841   1
  -1   9   8 1140.54 203.049   1
  -1   9   8 1086.05 131.959   2
  -9   1   8 884.230 214.840   3
  -8  -1   8 824.928 207.361   3
   1   8   8 1145.00 145.218   2
  -9   1   8 1325.65 143.039   1
   9  -8   8 1206.83 215.414   2
   1   8   8 1109.78 116.897   2
   8  -9   8 1417.03 175.560   4
  -1   9  11 1908.30 290.047   1
   9  -8  11 1707.00 262.638   3
   1   8  11 1996.68 344.687   3
   8  -9  11 2550.94 249.549   1
   1   8  11 2209.05 301.441   1
   9  -8  11 2282.15 293.143   2
   9  -8  11 2557.21 262.913   1
   8  -9  11 2481.64 312.732   2
  -9   1  11 2034.73 320.201   3
  -1   9  11 2255.29 331.708   3
  -8  -1  11 1869.19 327.459   3
   8  -9  11 1643.40 272.317   3
   7  -9  -8 662.178 109.783   4
   9  -7  -8 508.660 139.083   4
   7  -9  -5 2539.67 209.581   1
   7  -9  -5 2511.50 183.495   2
   9  -7  -5 2236.80 188.774   1
   7  -9  -5 2322.83 167.587   4
   9  -7  -5 2353.49 198.419   4
  -7  -2  -5 2279.17 99.9252   4
  -9   2  -5 2728.09 153.434   4
   9  -7  -5 2637.38 220.394   2
   9  -7  -2 1833.33 167.469   2
   7  -9  -2 1738.54 153.857   4
   9  -7  -2 2079.82 163.409   1
   9  -7  -2 1607.52 164.289   4
  -7  -2  -2 1937.00 134.363   2
  -7  -2  -2 1887.09 150.157   4
   7  -9  -2 1865.61 163.287   1
  -9   2  -2 2175.06 154.655   4
   7  -9  -2 1749.43 128.928   2
   2   7  -2 1860.37 92.6963   1
  -2   9  -2 2095.55 152.829   3
   2   7  -2 2099.27 165.147   3
  -2   9  -2 1854.22 112.901   1
  -9   2  -2 1775.58 149.421   2
  -7  -2   1 2528.42 198.339   2
  -9   2   1 2486.89 134.302   3
   2   7   1 2795.61 176.110   3
  -9   2   1 2535.84 193.982   4
   9  -7   1 2514.16 189.066   4
   9  -7   1 2727.03 193.870   1
   7  -9   1 2386.75 195.296   4
   7  -9   1 2294.13 125.768   3
  -7  -2   1 2627.60 203.231   4
  -7  -2   1 2492.58 152.336   3
  -9   2   1 2416.58 182.185   2
   2   7   1 2426.35 182.571   1
  -2   9   1 2586.24 179.232   1
  -2   9   1 2603.80 180.077   3
   9  -7   1 2707.60 186.155   2
   7  -9   1 2341.25 171.600   2
   2   7   1 2592.30 138.910   2
   7  -9   1 2744.76 172.217   1
   7  -9   4 297.584 81.9470   1
   7  -9   4 420.627 97.9509   3
  -7  -2   4 555.108 156.972   2
  -2   9   4 272.955 116.809   1
   2   7   4 327.571 41.4823   2
  -9   2   4 256.876 133.521   2
   9  -7   4 424.980 85.5237   3
  -7  -2   4 259.228 117.217   3
   2   7   4 453.903 129.125   1
   9  -7   4 221.136 109.688   2
  -9   2   4 431.587 130.434   3
   7  -9   4 303.867 117.101   4
   9  -7   4 279.620 106.579   4
  -9   2   4 429.369 135.914   4
  -9   2   4 649.963 110.698   1
  -7  -2   4 347.987 126.588   4
   9  -7   7 1104.06 165.859   3
  -9   2   7 1179.41 180.877   4
   7  -9   7 1192.34 155.138   1
  -2   9   7 1282.75 124.063   2
   9  -7   7 917.980 134.322   4
  -2   9   7 1208.12 191.006   1
   7  -9   7 1085.66 166.807   4
   7  -9   7 1180.57 173.816   3
   2   7   7 956.115 104.456   2
   2   7   7 1067.41 177.979   1
  -7  -2   7 1157.46 93.8866   1
  -9   2   7 1040.50 131.984   1
  -7  -2   7 1269.74 200.276   3
  -9   2   7 1238.82 218.434   3
   9  -7   7 1256.57 197.225   2
   2   7   7 1155.33 138.670   2
   9  -7   7 1188.09 173.738   1
   2   7  10 172.828 177.759   1
  -2   9  10 335.961 175.991   1
   2   7  10 54.7543 102.418   2
   9  -7  10 38.3062 122.863   1
  -2   9  10 41.9665 104.808   2
   9  -7  10 479.894 180.666   3
  -9   2  10 252.166 196.138   3
   7  -9  10 130.323 114.503   4
  -2   9  10 82.4166 193.554   3
  -9   2  10 298.787 117.220   1
   2   7  10-44.8927 174.652   3
   9  -7  10 102.899 145.594   2
   7  -9  10 285.617 128.857   1
   7  -9  10 199.111 160.754   3
   9  -7  10 187.282 94.8096   4
  -7  -2  10 188.424 182.701   3
   9  -6  -6 2506.14 202.498   1
   6  -9  -6 2271.52 153.709   4
   9  -6  -6 2395.95 208.740   4
   9  -6  -6 2617.03 248.798   2
  -9   3  -3 2276.84 166.323   2
   3   6  -3 2234.13 176.440   3
   6  -9  -3 2213.47 154.971   4
  -9   3  -3 2217.99 154.818   4
  -3   9  -3 2091.43 159.773   3
  -6  -3  -3 2127.04 128.877   4
   6  -9  -3 2325.36 187.473   1
   9  -6  -3 2105.17 194.644   2
   6  -9  -3 2011.90 125.279   2
   9  -6  -3 2334.95 173.321   1
   9  -6  -3 2335.22 189.030   4
  -6  -3  -3 2220.25 130.396   2
   9  -6   0 13624.3 377.935   1
   6  -9   0 14090.4 345.924   1
  -9   3   0 13501.7 198.653   3
   6  -9   0 13735.7 311.270   2
  -6  -3   0 14394.0 350.166   2
   3   6   0 14489.4 328.078   1
   6  -9   0 13934.8 314.375   3
   9  -6   0 13428.5 347.640   2
  -3   9   0 13116.7 334.335   1
  -9   3   0 13794.5 379.209   4
   3   6   0 13921.0 327.627   3
   6  -9   0 13829.7 383.959   4
  -3   9   0 13493.0 333.466   3
   3   6   0 13621.7 344.317   2
  -9   3   0 13380.5 352.610   2
  -6  -3   0 13352.3 306.557   3
  -6  -3   0 14205.1 390.421   4
   9  -6   0 13220.4 363.238   4
  -6  -3   3 491.793 133.831   3
  -9   3   3 554.903 123.457   3
  -9   3   3 599.969 110.811   1
   9  -6   3 487.513 74.3984   3
   3   6   3 623.714 146.554   1
   6  -9   3 603.601 101.512   1
   3   6   3 575.293 137.215   3
   6  -9   3 557.147 94.6709   3
  -9   3   3 633.433 129.199   4
   9  -6   3 579.474 123.398   4
  -9   3   3 639.273 141.407   2
   3   6   3 571.188 53.2522   2
  -6  -3   3 493.255 152.385   2
   9  -6   3 535.946 126.639   2
  -3   9   3 512.478 130.509   1
  -6  -3   3 700.814 150.049   4
  -9   3   6 3234.21 199.180   1
  -6  -3   6 3072.96 258.230   3
  -9   3   6 2958.25 269.121   3
   3   6   6 3029.03 264.752   1
  -3   9   6 2575.13 227.586   1
  -6  -3   6 2378.07 234.629   4
  -9   3   6 2699.31 227.860   4
  -6  -3   6 2224.26 93.2952   1
   3   6   6 2998.78 152.304   2
   6  -9   6 2813.39 190.367   1
  -3   9   6 2817.65 155.536   2
   9  -6   6 2820.62 230.586   2
   9  -6   6 3123.02 192.088   4
   9  -6   6 2656.73 200.310   3
   6  -9   6 3120.92 234.492   3
   6  -9   9 316.481 166.872   3
  -6  -3   9 211.658 52.4000   1
   9  -6   9 139.118 121.029   3
   9  -6   9 584.486 166.587   1
  -3   9   9 246.972 160.379   1
   3   6   9 301.667 112.629   2
   6  -9   9 448.837 141.484   4
  -6  -3   9 604.231 208.741   3
   3   6   9 487.204 176.605   1
   6  -9   9 344.661 126.032   1
  -9   3   9 437.429 180.356   3
   9  -6   9 320.738 95.8706   4
   9  -6   9 353.434 143.387   2
  -9   3   9 194.195 115.655   1
   5  -9  -7 3392.57 156.883   4
   9  -5  -7 3731.04 264.012   4
   9  -5  -7 3736.55 238.250   1
   5  -9  -4 287.380 112.926   1
  -5  -4  -4 227.703 48.5455   4
  -9   4  -4 256.260 93.7679   4
   5  -9  -4 336.321 84.8625   2
   9  -5  -4 262.556 97.5263   1
   9  -5  -4 278.460 134.208   2
   5  -9  -4 212.918 78.2849   4
   9  -5  -4 311.883 116.713   4
   4   5  -4 104.817 107.190   3
  -4   9  -4 174.893 96.2779   3
   4   5  -1 4131.40 192.589   3
   4   5  -1 4058.15 241.599   2
   9  -5  -1 3920.38 226.926   4
  -9   4  -1 4134.30 218.900   4
  -5  -4  -1 4019.56 167.031   2
  -4   9  -1 3837.86 176.928   3
   9  -5  -1 4195.17 212.791   2
  -5  -4  -1 4251.50 216.418   4
  -9   4  -1 3866.30 206.943   2
   4   5  -1 4010.34 159.700   1
   5  -9  -1 3959.26 207.059   1
  -4   9  -1 4111.19 185.577   1
   5  -9  -1 4267.86 155.578   2
   4   5  -1 3956.80 246.562   4
   9  -5  -1 3741.67 203.281   1
   5  -9  -1 4027.72 213.113   4
  -5  -4  -1 4146.78 194.493   3
  -5  -4   2 219.743 94.0960   3
  -5  -4   2 351.182 133.684   4
  -5  -4   2 194.643 128.605   2
   9  -5   2 226.400 105.174   2
  -4   9   2 245.513 52.3873   2
  -9   4   2 204.018 108.362   2
  -9   4   2 136.831 104.143   4
  -9   4   2 388.398 118.484   1
   5  -9   2 218.521 84.0036   3
   4   5   2 255.211 108.413   3
  -4   9   2 382.713 122.761   1
   4   5   2 275.104 69.7486   2
   9  -5   2 306.615 109.362   4
  -4   9   2 183.943 115.580   3
  -9   4   2 308.754 106.274   3
   5  -9   2 385.738 91.8843   1
   4   5   2 314.685 116.576   1
   9  -5   2 198.139 41.3632   3
   5  -9   5 4371.26 199.728   1
  -9   4   5 4377.25 229.073   1
  -9   4   5 4334.11 275.067   3
   5  -9   5 4460.53 255.257   3
  -4   9   5 4679.45 174.143   2
  -9   4   5 4281.25 285.811   2
   9  -5   5 4606.50 216.639   4
   9  -5   5 4276.06 223.160   3
  -4   9   5 4621.43 276.002   1
   4   5   5 4274.80 281.642   1
   4   5   5 4530.60 174.179   2
  -9   4   5 4331.06 258.535   4
  -5  -4   5 4021.68 282.698   4
   9  -5   5 5240.10 277.718   2
  -5  -4   5 4352.67 271.095   3
   9  -5   8 222.818 83.3696   4
   5  -9   8 227.284 155.558   3
   5  -9   8 53.2569 132.528   4
   5  -9   8 204.431 100.607   1
  -5  -4   8 106.536 29.6023   1
   4   5   8-6.14889 143.096   1
   4   5   8 34.0232 87.3302   2
   9  -5   8 67.2435 116.870   1
  -9   4   8 228.481 120.102   4
  -9   4   8 179.613 107.903   1
   9  -5   8 135.477 132.589   3
  -4   9   8 63.8654 102.126   2
  -4   9   8 54.9272 135.219   1
  -9   4   8 102.629 156.838   3
   9  -5   8 179.749 125.759   2
  -5  -4   8 8.74228 156.093   3
   9  -5  11 1336.43 239.554   2
  -9   4  11 1054.80 186.839   1
   4   5  11 1055.34 182.169   2
   9  -5  11 907.856 218.723   3
   4   5  11 1226.61 281.909   3
  -4   9  11 1069.03 244.714   1
  -9   4  11 1047.27 269.393   3
  -4   9  11 1285.75 295.798   3
   9  -5  11 981.354 192.543   1
   5  -9  11 1229.67 245.915   3
   4   5  11 1651.58 295.493   1
  -5  -4  11 1387.57 283.815   3
   9  -4  -8 21.9733 127.399   4
   9  -4  -8 140.600 105.782   1
   9  -4  -5 4649.98 224.849   1
   4  -9  -5 4296.11 169.952   4
   9  -4  -5 4565.63 301.781   2
   4  -9  -5 4563.49 278.987   1
   9  -4  -5 4748.86 280.025   4
  -5   9  -5 4888.51 266.468   3
  -4  -5  -2 167.192 57.6512   2
   5   4  -2-21.7300 146.318   2
  -4  -5  -2 99.8044 102.527   1
   4  -9  -2 176.666 54.4833   2
   4  -9  -2 269.478 109.162   1
  -5   9  -2 198.520 90.2713   1
   4  -9  -2 244.430 99.1341   4
   5   4  -2 160.766 88.8658   3
   9  -4  -2 330.626 101.491   1
   5   4  -2 176.658 137.308   4
   9  -4  -2 208.836 128.226   2
  -9   5  -2 103.808 98.2867   4
  -5   9  -2 271.204 81.0717   3
  -4  -5  -2 144.012 80.9635   4
   9  -4  -2 395.300 131.134   4
  -9   5  -2 31.7278 96.1947   2
  -4  -5   1 4865.98 213.482   3
   4  -9   1 4606.50 192.882   1
  -5   9   1 4793.45 224.982   3
  -4  -5   1 5082.58 269.958   4
  -9   5   1 4996.27 242.874   4
  -9   5   1 4760.90 236.575   1
  -9   5   1 4587.28 167.735   3
  -5   9   1 4798.19 166.618   2
  -4  -5   1 4768.66 243.394   2
  -9   5   1 5116.24 227.507   2
   5   4   1 4793.73 196.506   3
  -5   9   1 4756.97 234.131   1
   9  -4   1 4877.19 231.121   4
   9  -4   1 4847.58 222.120   2
   5   4   1 4737.91 192.150   2
   5   4   1 4667.12 226.903   1
   5   4   1 4480.00 220.315   4
   4  -9   1 4456.20 194.942   3
   4  -9   4 268.978 101.088   3
   9  -4   4 327.293 100.668   4
  -4  -5   4 42.7501 142.191   2
  -4  -5   4 164.481 110.828   3
  -5   9   4 122.115 105.316   1
  -4  -5   4 62.2542 120.664   4
   4  -9   4 111.999 63.5360   1
  -5   9   4 18.5309 75.7064   4
  -9   5   4 162.088 107.173   2
   5   4   4 216.579 136.689   1
  -9   5   4 175.618 106.415   4
  -5   9   4 171.379 66.1675   2
   5   4   4 49.3548 63.2885   2
  -9   5   4 241.909 101.420   1
  -9   5   4-95.2365 116.440   3
   9  -4   4 75.0851 94.6705   2
   9  -4   4 204.207 77.5618   3
  -9   5   7 3282.62 233.851   4
  -4  -5   7 3794.06 307.165   3
   4  -9   7 3027.82 170.004   1
   5   4   7 3538.36 201.719   2
  -9   5   7 3965.96 249.248   1
  -5   9   7 3522.27 278.394   1
   9  -4   7 3345.82 251.843   3
   4  -9   7 3464.29 275.113   3
  -5   9   7 3437.92 215.988   2
   9  -4   7 3584.81 180.749   4
  -9   5   7 3686.22 312.717   3
   9  -4   7 3627.51 259.870   2
   4  -9   7 3420.54 186.911   1
   9  -4   7 3318.21 268.215   1
   5   4   7 3453.41 290.306   1
   4  -9  10-80.3236 125.436   4
  -9   5  10 85.7265 189.400   3
  -5   9  10 185.754 161.657   1
  -4  -5  10 50.4324 182.761   3
   9  -4  10 355.459 160.766   1
   9  -4  10 82.2236 146.308   2
   9  -4  10-181.694 179.660   3
  -5   9  10-91.5745 196.641   3
   5   4  10 230.342 173.250   1
   4  -9  10-177.603 159.832   3
   5   4  10-165.736 128.386   2
   4  -9  10 229.975 104.746   1
   5   4  10 181.079 213.980   3
  -9   5  10 395.105 153.821   1
   3  -9  -6 2077.52 101.656   4
   9  -3  -6 2634.80 233.659   4
   9  -3  -6 2360.33 168.847   1
   9  -3  -3 629.512 105.540   1
  -3  -6  -3 474.542 85.9655   4
   3  -9  -3 676.315 98.0514   4
  -3  -6  -3 538.891 52.9893   2
   6   3  -3 518.820 172.238   4
   3  -9  -3 728.350 134.028   1
   6   3  -3 610.258 120.504   3
  -3  -6  -3 609.005 136.839   1
  -9   6  -3 525.469 113.648   4
   6   3  -3 570.813 61.0709   1
  -6   9  -3 410.169 92.5863   3
   6   3  -3 671.348 176.802   2
   9  -3  -3 544.722 137.983   2
   9  -3  -3 433.976 133.405   4
  -9   6   0 11622.7 322.221   2
   3  -9   0 11285.6 312.037   3
   9  -3   0 11738.8 361.967   4
  -3  -6   0 12115.5 299.089   1
  -3  -6   0 12255.8 320.484   3
   6   3   0 11915.2 278.874   3
  -9   6   0 12020.4 363.098   1
  -6   9   0 11986.1 331.973   1
   6   3   0 12209.9 383.881   4
  -9   6   0 12354.1 355.888   4
  -3  -6   0 12437.9 367.844   4
   3  -9   0 11914.0 311.577   1
  -3  -6   0 11887.5 308.798   2
   9  -3   0 11976.1 194.041   3
   6   3   0 11504.2 330.138   2
   9  -3   0 11603.1 332.702   2
  -6   9   0 11616.3 289.505   2
  -6   9   0 12301.9 280.477   3
   6   3   3 2365.91 203.021   1
  -9   6   3 2279.42 188.406   2
  -3  -6   3 2456.42 225.502   4
   6   3   3 2018.04 164.996   3
   9  -3   3 2222.55 157.356   4
  -6   9   3 2197.78 188.342   1
  -6   9   3 2366.24 165.816   4
   9  -3   3 2193.55 169.213   2
  -6   9   3 2287.51 124.816   2
   6   3   3 2210.93 138.164   4
  -3  -6   3 2056.47 176.559   3
  -3  -6   3 2367.49 220.874   2
   3  -9   3 2116.59 168.411   3
  -9   6   3 1911.43 163.426   1
   3  -9   3 2463.46 122.774   1
   6   3   3 2095.82 123.866   2
  -9   6   3 2153.28 174.011   3
  -9   6   3 2235.78 180.448   4
   9  -3   6 2718.25 217.101   2
  -9   6   6 2657.09 199.614   4
   6   3   6 2762.32 177.359   2
   9  -3   6 2606.97 150.573   4
   6   3   6 2768.87 259.258   1
  -9   6   6 2292.87 232.483   2
  -3  -6   6 2987.29 261.658   3
  -9   6   6 2778.52 213.361   1
   3  -9   6 2533.05 228.914   3
  -6   9   6 2831.94 248.117   1
   9  -3   6 2356.51 194.388   3
  -6   9   6 2616.50 162.360   4
  -9   6   6 2524.79 248.084   3
  -3  -6   6 2604.05 247.863   4
   3  -9   6 2199.33 123.459   1
   9  -3   6 2779.76 246.632   1
   3  -9   6 2629.18 138.709   1
  -6   9   6 2482.57 182.076   2
   9  -3   9 109.245 132.310   1
   6   3   9-111.519 147.744   1
   3  -9   9 48.5327 159.456   3
   3  -9   9-23.6033 70.6896   1
  -9   6   9-58.3720 134.890   1
   9  -3   9 86.8634 127.977   2
   6   3   9 48.2681 157.887   3
   6   3   9 171.825 114.347   2
  -9   6   9 287.214 190.738   3
  -6   9   9 270.851 185.034   3
   9  -3   9-46.7468 134.148   3
  -3  -6   9 104.872 168.179   3
  -6   9   9 58.6841 147.444   1
   7   2  -7 1049.59 89.2724   1
   9  -2  -7 944.942 125.886   1
   7   2  -4 310.162 158.007   2
  -2  -7  -4 356.582 126.059   1
   2  -9  -4 550.766 130.073   1
   9  -2  -4 407.715 144.591   4
   9  -2  -4 432.392 92.1640   1
  -2  -7  -4 415.747 63.0570   4
   2  -9  -4 486.753 79.7394   4
   9  -2  -4 526.009 176.093   2
   7   2  -4 377.727 59.2954   1
   7   2  -4 210.951 116.328   3
  -7   9  -4 430.798 100.878   3
   7   2  -4 355.865 154.176   4
   9  -2  -1 2573.64 178.921   1
  -2  -7  -1 2769.09 132.630   2
  -2  -7  -1 2936.56 187.911   3
  -7   9  -1 2914.45 187.971   1
  -2  -7  -1 2391.34 167.100   4
  -2  -7  -1 2727.46 172.151   1
  -9   7  -1 2626.82 179.713   2
   9  -2  -1 2564.83 191.656   2
   7   2  -1 2572.09 210.809   2
   7   2  -1 2518.08 220.571   4
   9  -2  -1 2616.02 213.237   4
   2  -9  -1 2606.11 186.207   3
   9  -2  -1 2639.09 139.088   3
  -7   9  -1 2726.44 129.607   3
   2  -9  -1 2833.47 181.778   1
  -9   7  -1 2855.20 205.743   4
   7   2  -1 2734.12 152.927   3
   2  -9   2 1879.13 163.301   3
  -7   9   2 1951.76 128.407   2
   2  -9   2 1902.24 110.623   1
  -9   7   2 2014.68 173.275   4
  -7   9   2 1997.26 181.966   1
   7   2   2 1372.44 156.520   1
  -9   7   2 1949.44 157.468   2
   7   2   2 1871.25 139.027   3
  -9   7   2 2032.58 173.198   1
  -2  -7   2 1850.95 94.5902   1
   9  -2   2 1810.67 156.860   4
   9  -2   2 1874.73 101.815   3
  -2  -7   2 1815.55 187.828   4
   7   2   2 1959.94 138.446   2
  -7   9   2 2028.94 160.983   4
  -2  -7   2 1975.19 195.591   2
  -2  -7   2 2046.71 164.235   3
   7   2   2 1781.49 153.010   4
   9  -2   2 2048.11 162.662   2
   9  -2   5 2429.21 145.459   4
   9  -2   5 2282.09 184.232   2
   7   2   5 2172.69 155.920   2
  -9   7   5 2293.06 188.589   4
   9  -2   5 2525.15 225.841   1
   2  -9   5 2025.40 96.4242   1
   2  -9   5 2150.51 200.834   3
  -2  -7   5 2098.50 205.841   3
  -7   9   5 2329.56 162.661   4
  -9   7   5 2302.90 206.876   2
   7   2   5 2133.58 102.520   4
  -7   9   5 2271.90 211.499   1
  -7   9   5 2322.30 164.898   2
  -9   7   5 2511.88 229.096   3
  -9   7   5 2326.76 196.128   1
  -2  -7   5 2578.44 242.614   4
   7   2   5 2359.78 217.736   1
  -9   7   8 708.124 138.936   4
   7   2   8 636.787 138.702   2
   2  -9   8 452.650 71.6518   1
   9  -2   8 845.696 167.077   3
   2  -9   8 589.685 72.1645   1
  -9   7   8 555.700 163.041   1
   9  -2   8 653.613 165.095   2
  -7   9   8 628.002 107.646   4
  -2  -7   8 461.979 178.445   3
  -7   9   8 758.924 175.395   1
  -7   9   8 570.048 152.953   2
   2  -9   8 813.458 189.376   3
  -7   9   8 648.956 202.303   3
   7   2   8 933.604 196.259   1
   9  -2   8 342.069 44.7988   4
   9  -2   8 390.490 50.7945   4
   9  -2   8 717.643 179.008   1
  -9   7   8 800.475 210.749   3
  -9   7  11 1052.38 275.356   3
   9  -2  11 760.386 196.239   2
   7   2  11 1563.39 272.840   1
  -7   9  11 1712.58 270.563   1
  -2  -7  11 1201.77 259.619   3
   7   2  11 1117.88 262.930   3
   7   2  11 1035.29 188.513   2
   9  -2  11 1034.51 226.428   1
   2  -9  11 1090.57 259.809   3
  -9   7  11 936.546 212.843   1
  -7   9  11 644.222 244.408   3
   9  -2  11 1023.54 235.878   3
   9  -1  -8 1043.46 129.393   1
   8   1  -8 1091.78 111.694   1
   9  -1  -5 2369.95 147.282   1
  -8   9  -5 3034.63 208.841   3
   1  -9  -5 2261.20 103.689   4
   9  -1  -5 2478.05 261.047   2
   8   1  -5 2419.34 122.135   1
   8   1  -5 2382.84 242.774   4
   9  -1  -5 2245.40 229.318   4
  -9   8  -2 1194.16 156.443   4
  -9   8  -2 1308.99 81.1403   3
  -9   8  -2 1271.29 150.499   2
   8   1  -2 1296.52 178.030   2
   9  -1  -2 1537.87 186.584   2
  -1  -8  -2 1217.03 59.3345   2
   9  -1  -2 1323.64 132.214   3
   1  -9  -2 1383.76 151.819   1
   8   1  -2 1362.90 119.326   1
  -1  -8  -2 1217.59 147.916   1
   9  -1  -2 1152.10 169.423   4
   8   1  -2 1509.74 145.457   3
   9  -1  -2 1322.39 127.734   1
  -8   9  -2 1402.13 98.3376   3
   8   1  -2 1332.51 178.396   4
  -8   9   1 7794.85 249.251   2
   9  -1   1 7733.44 279.727   2
   8   1   1 7915.19 217.177   3
  -9   8   1 8189.46 267.955   2
  -1  -8   1 8167.21 301.970   2
  -9   8   1 8197.85 303.853   4
  -1  -8   1 8059.27 279.791   3
   8   1   1 7891.59 271.903   2
   1  -9   1 8084.97 232.021   1
  -1  -8   1 7956.97 220.631   1
   8   1   1 7821.01 298.025   4
   9  -1   1 7893.05 299.111   4
   9  -1   1 8197.21 186.834   3
  -8   9   1 7594.99 254.299   3
   1  -9   1 8015.49 275.642   3
  -8   9   1 7563.41 291.750   4
  -9   8   1 7929.89 300.637   1
  -8   9   1 7808.33 300.325   1
   8   1   4 1046.28 173.402   1
  -8   9   4 727.017 124.162   4
   8   1   4 906.763 107.323   4
  -9   8   4 866.557 126.926   4
   8   1   4 852.561 114.575   2
  -1  -8   4 1055.82 174.183   4
   9  -1   4 819.532 106.374   4
  -8   9   4 897.463 116.503   2
  -8   9   4 1111.37 153.845   1
  -9   8   4 923.415 135.706   2
  -9   8   4 780.897 131.996   1
  -1  -8   4 837.747 147.360   3
   1  -9   4 994.690 155.682   3
   1  -9   4 669.043 50.2879   1
   9  -1   4 1076.70 127.600   2
   1  -9   7 5836.01 354.129   3
  -8   9   7 5567.93 258.198   4
  -8   9   7 5641.61 334.390   1
   9  -1   7 5915.20 376.568   1
  -9   8   7 5053.36 263.375   4
   9  -1   7 5631.69 320.420   3
  -9   8   7 5127.34 319.296   2
  -1  -8   7 5775.60 357.808   3
   9  -1   7 5899.17 309.362   2
   8   1   7 5150.51 337.971   1
  -9   8   7 5988.91 333.958   1
   8   1   7 5839.14 284.041   2
  -8   9   7 5474.57 304.491   2
  -9   8   7 5273.32 366.769   3
   8   1  10 224.427 181.157   3
   8   1  10 59.2310 159.465   1
  -9   8  10 451.336 181.651   1
   9  -1  10 232.736 164.405   1
  -1  -8  10 227.862 180.058   3
   9  -1  10 490.765 180.542   3
   1  -9  10 359.820 192.747   3
  -9   8  10 97.0829 191.626   3
  -8   9  10 371.878 215.067   3
   8   1  10 659.869 172.343   2
  -8   9  10 33.8051 154.861   1
   9  -1  10 371.584 170.677   2
   9   0  -6 1764.09 123.638   1
   9   0  -6 1710.98 222.960   4
   9   0  -3-31.6381 71.0622   1
   9   0  -3 19.4251 91.7143   3
   9   0  -3-135.917 135.770   4
   0  -9  -3-34.4708 108.445   1
  -9   9  -3 60.6064 69.4527   3
   9   0  -3-193.277 147.676   2
   9   0   0 3315.04 232.592   4
  -9   9   0 3839.95 236.068   1
  -9   9   0 3728.99 197.941   2
   0  -9   0 3796.21 188.721   1
   9   0   0 3655.75 217.858   2
   9   0   0 3860.27 155.555   3
  -9   9   0 3671.53 227.216   4
  -9   9   0 3538.81 147.106   3
   0  -9   0 3746.63 213.206   3
   9   0   3 58.4663 85.8582   4
  -9   9   3-187.045 111.423   1
   0  -9   3 29.9809 104.814   3
  -9   9   3 97.8668 91.2543   4
   9   0   3-12.2991 82.7120   2
   0  -9   3 61.4319 41.0467   1
  -9   9   3-66.9352 77.3160   2
   9   0   3-25.4193 77.1222   3
   9   0   6 3037.11 137.106   4
  -9   9   6 3031.00 243.711   1
  -9   9   6 3165.40 229.513   2
   9   0   6 3298.46 223.974   2
  -9   9   6 3317.14 216.356   4
   0  -9   6 3194.95 260.608   3
   9   0   6 3373.83 286.428   1
   0  -9   9-125.598 168.374   3
   9   0   9-71.7194 122.679   2
   9   0   9 160.735 170.670   1
  -9   9   9-112.034 191.166   3
   9   0   9 37.6429 146.266   3
  -9   9   9-98.6066 144.657   1
  10 -10  -7 2.17594 102.726   4
  10 -10  -4 8124.78 321.722   2
 -10   0  -4 8453.12 271.666   4
 -10   0  -4 8137.29 298.722   2
  10 -10  -4 8491.67 352.975   1
  10 -10  -4 7772.55 322.954   4
   0  10  -4 8252.97 354.526   3
  10 -10  -1-49.9117 99.0218   1
  10 -10  -1 12.5104 91.4099   2
 -10   0  -1 0.33883 115.081   4
  10 -10  -1 55.7347 111.471   4
   0  10  -1 94.0246 98.5154   3
 -10   0  -1 12.3384 71.1091   3
   0  10  -1-80.1732 77.4518   1
 -10   0  -1 127.631 98.2251   2
   0  10   2 3767.19 249.743   3
 -10   0   2 3797.00 249.314   2
  10 -10   2 4020.23 255.980   4
  10 -10   2 3935.94 233.158   1
  10 -10   2 3940.16 241.663   2
   0  10   2 4122.25 247.325   1
  10 -10   2 4030.87 145.744   3
 -10   0   2 3928.49 270.377   4
 -10   0   2 4174.66 203.260   3
  10 -10   5 123.046 108.522   1
 -10   0   5-87.2144 116.945   3
   0  10   5-207.743 139.559   1
  10 -10   5 169.766 121.348   4
  10 -10   5 57.4034 77.4483   3
 -10   0   5 74.7624 116.835   4
  10 -10   5-49.3745 117.365   2
  10 -10   8 5199.91 315.788   1
 -10   0   8 4708.45 217.707   1
   0  10   8 3949.85 160.867   2
   0  10   8 4341.86 348.323   1
  10 -10   8 5182.64 327.630   3
  10 -10   8 5291.28 364.121   2
 -10   0   8 5799.02 403.298   3
  10 -10   8 4440.84 283.952   4
   0  10   8 3987.22 178.704   2
   0  10  11 197.346 214.928   3
  10 -10  11 157.860 156.976   3
  10 -10  11-11.1309 177.796   2
  10 -10  11-150.435 158.838   1
   0  10  11-217.264 189.755   1
 -10   0  11-99.0377 204.936   3
  10  -9  -8 399.833 139.049   4
   9 -10  -8 448.435 126.728   4
   9 -10  -5 1384.18 162.546   2
  10  -9  -5 1378.74 174.954   2
   9 -10  -5 1470.56 181.657   1
  -9  -1  -5 1479.83 109.935   4
  10  -9  -5 1405.75 164.106   4
  10  -9  -5 1622.90 180.559   1
 -10   1  -5 1647.64 129.878   4
   9 -10  -5 1469.80 156.094   4
 -10   1  -2 2017.39 163.774   4
  10  -9  -2 2233.86 174.754   2
   9 -10  -2 2230.14 158.700   2
  -1  10  -2 2210.68 125.291   1
  10  -9  -2 2056.83 184.063   4
  -1  10  -2 2182.96 165.455   3
  10  -9  -2 2047.76 181.833   1
   1   9  -2 2221.29 170.325   3
 -10   1  -2 2081.52 161.003   2
  -9  -1  -2 2156.91 156.104   2
  -9  -1  -2 2158.51 171.812   4
   9 -10  -2 2336.09 192.653   1
   1   9  -2 2091.45 114.513   1
   9 -10  -2 2133.05 188.819   4
  10  -9   1 1542.39 175.240   4
  -9  -1   1 1451.24 181.685   4
   9 -10   1 1785.98 167.919   1
   1   9   1 1536.71 158.452   1
 -10   1   1 1168.63 159.542   4
  10  -9   1 1769.94 91.2957   3
   9 -10   1 1423.63 144.412   2
   9 -10   1 1316.03 103.781   3
  -9  -1   1 1467.26 134.864   3
  -9  -1   1 1450.80 174.142   2
  10  -9   1 1551.95 159.318   1
 -10   1   1 1516.46 117.999   3
  -1  10   1 1492.48 153.780   3
   9 -10   1 1406.92 179.996   4
  -1  10   1 1628.77 165.110   1
 -10   1   1 1322.05 155.785   2
  10  -9   1 1450.28 162.825   2
   1   9   1 1311.79 147.017   3
  -9  -1   4 651.747 144.847   3
   9 -10   4 876.638 137.290   1
  -1  10   4 690.789 161.203   3
 -10   1   4 894.461 185.083   2
   9 -10   4 1042.33 164.303   2
 -10   1   4 924.948 146.420   3
  -1  10   4 745.357 157.433   1
 -10   1   4 794.141 110.950   1
 -10   1   4 858.313 155.316   4
  10  -9   4 843.788 144.349   2
   9 -10   4 836.506 114.077   3
   9 -10   4 663.587 139.912   4
  10  -9   4 992.419 145.573   4
  -9  -1   4 902.535 178.583   2
  10  -9   4 829.670 137.964   1
   1   9   4 959.550 169.878   3
  10  -9   4 823.528 100.070   3
  -9  -1   4 825.566 163.971   4
   1   9   4 883.271 155.493   1
   9 -10   7 35.9822 105.879   3
  10  -9   7 172.271 109.134   3
  -1  10   7 246.202 151.877   1
   1   9   7 75.0032 58.5506   2
   9 -10   7 247.990 153.215   2
 -10   1   7 141.814 158.007   3
   1   9   7 167.071 55.8985   2
  -9  -1   7 109.399 150.604   3
   1   9   7 162.386 149.474   1
  10  -9   7 104.673 109.615   4
  -9  -1   7 42.2179 63.1250   1
  10  -9   7 447.843 149.363   2
 -10   1   7 142.509 82.3321   1
  -1  10   7 96.2493 50.8528   2
   9 -10   7 31.7942 107.042   4
  -1  10   7 160.647 53.2532   2
   9 -10  10 226.831 165.965   3
  10  -9  10 358.639 171.897   2
  10  -9  10 614.066 200.435   3
   1   9  10 522.339 204.000   1
   9 -10  10 340.390 183.710   2
  -1  10  10 628.567 210.502   1
  10  -9  10 202.260 108.728   4
   9 -10  10 361.218 147.007   1
 -10   1  10 355.598 211.660   3
  10  -9  10 374.770 158.815   1
   9 -10  10 439.604 139.176   4
   1   9  10 386.403 106.228   2
  -9  -1  10 313.858 211.019   3
  10  -8  -9 1060.45 169.010   4
   8 -10  -9 977.747 118.272   4
  10  -8  -6 1468.81 192.664   2
   8 -10  -6 1184.56 140.731   4
  10  -8  -6 1384.22 174.447   4
  10  -8  -6 1454.86 177.616   1
   8 -10  -3 2631.44 166.493   2
  -2  10  -3 2567.42 129.913   1
   2   8  -3 2145.34 75.3482   1
  10  -8  -3 2661.38 194.872   2
 -10   2  -3 2629.61 183.655   2
   8 -10  -3 2675.50 185.678   4
  10  -8  -3 2698.58 197.681   1
  -8  -2  -3 2712.00 164.722   4
  -2  10  -3 2459.51 182.056   3
  10  -8  -3 2514.73 201.998   4
 -10   2  -3 2713.02 178.502   4
  -8  -2  -3 2737.94 157.781   2
   2   8  -3 2431.72 190.056   3
   8 -10  -3 2767.02 209.464   1
  -8  -2   0 3472.41 166.618   3
  10  -8   0 3141.06 210.384   1
  10  -8   0 3513.75 201.939   2
   8 -10   0 3023.30 210.948   4
  10  -8   0 3301.04 217.571   4
   2   8   0 3669.96 194.480   1
 -10   2   0 3275.42 200.409   2
  -2  10   0 3158.22 189.702   1
  -8  -2   0 3548.03 210.630   2
  -2  10   0 3425.22 197.493   3
   8 -10   0 3065.57 194.943   1
   8 -10   0 3511.54 174.258   3
  -8  -2   0 3595.31 234.649   4
 -10   2   0 3395.15 133.273   3
 -10   2   0 3489.96 226.512   4
   8 -10   0 3604.52 191.696   2
   2   8   0 3372.15 192.608   3
   8 -10   3 5362.75 249.051   1
 -10   2   3 5370.29 256.999   3
  -2  10   3 4958.87 271.226   1
  10  -8   3 5274.40 259.812   4
  10  -8   3 5204.14 271.383   2
 -10   2   3 4753.83 291.994   2
   2   8   3 4987.01 282.371   1
  -2  10   3 4213.69 271.335   3
 -10   2   3 4403.28 217.525   1
   2   8   3 5147.00 282.202   3
  -8  -2   3 4804.94 308.763   2
 -10   2   3 5182.88 293.302   4
  10  -8   3 4550.03 262.637   1
  -8  -2   3 5339.72 306.609   4
   8 -10   3 5063.01 271.235   2
  -8  -2   3 5318.56 262.468   3
   8 -10   3 5213.48 207.283   3
  10  -8   3 5302.90 167.618   3
   8 -10   3 5129.32 267.306   4
 -10   2   6 181.803 135.295   4
   2   8   6 315.299 70.5883   2
 -10   2   6 255.209 89.2116   1
   8 -10   6 462.246 140.961   4
  10  -8   6 296.662 96.3145   3
  10  -8   6 363.251 146.248   2
   2   8   6 334.942 59.3487   2
  10  -8   6 269.476 112.803   4
  -8  -2   6 494.663 160.019   3
   8 -10   6 303.028 106.681   1
  -2  10   6 464.429 150.437   1
 -10   2   6 400.965 152.723   3
   8 -10   6 93.0760 102.706   3
  -2  10   6 215.232 49.3429   2
   2   8   6 211.666 139.484   1
   8 -10   9 1986.30 207.538   1
 -10   2   9 2315.17 319.039   3
   2   8   9 2234.24 169.514   2
  -2  10   9 2765.51 291.401   1
  10  -8   9 2489.42 280.045   2
   8 -10   9 2704.00 300.596   2
   8 -10   9 2233.28 223.472   4
  10  -8   9 2532.37 255.493   3
  10  -8   9 2350.99 253.983   1
  -2  10   9 2482.38 169.656   2
  -8  -2   9 2472.52 314.934   3
   2   8   9 2510.67 292.175   1
  10  -8   9 2404.09 198.376   4
 -10   2   9 2481.50 198.505   1
  -8  -2   9 1636.68 106.372   1
   8 -10   9 2018.48 253.032   3
  10  -7  -7 69.8810 118.141   4
  10  -7  -7 120.409 104.616   1
   7 -10  -7 103.879 86.9588   4
  10  -7  -4 4823.56 254.556   1
   3   7  -4 4931.25 278.304   3
   7 -10  -4 5169.37 233.627   4
  -7  -3  -4 5026.88 172.791   4
   7 -10  -4 5472.49 283.254   1
  -3  10  -4 5084.32 264.601   3
 -10   3  -4 5351.87 264.165   2
  10  -7  -4 4891.99 270.227   4
  10  -7  -4 4766.72 279.655   2
   7 -10  -4 5324.51 221.632   2
  -7  -3  -4 5087.98 206.004   2
 -10   3  -4 5457.24 230.280   4
  10  -7  -1 1463.11 162.156   1
   7 -10  -1 1161.60 153.532   4
  10  -7  -1 1259.11 156.284   4
 -10   3  -1 1323.81 72.5835   3
 -10   3  -1 1356.75 158.353   4
  -3  10  -1 1203.88 125.225   3
  -7  -3  -1 1571.79 139.460   2
   3   7  -1 1391.98 115.650   1
  -7  -3  -1 1343.13 138.586   3
  -3  10  -1 1335.96 126.568   1
   3   7  -1 1203.43 128.188   3
   7 -10  -1 1201.57 140.585   1
   7 -10  -1 1349.63 117.840   2
  -7  -3  -1 1250.32 150.263   4
  10  -7  -1 1326.11 144.720   2
 -10   3  -1 1329.84 142.978   2
  -7  -3   2 5801.89 240.327   3
   7 -10   2 5394.94 200.477   3
  10  -7   2 5262.44 277.625   1
  10  -7   2 5005.60 109.295   3
   3   7   2 5294.97 262.853   1
  -3  10   2 5300.06 266.016   1
  10  -7   2 5131.72 259.005   2
  -7  -3   2 5297.75 297.303   4
   7 -10   2 5274.17 279.617   4
   7 -10   2 5072.83 266.042   2
   3   7   2 5245.43 255.533   3
  10  -7   2 5202.53 250.640   4
 -10   3   2 5248.42 215.311   3
   3   7   2 5287.42 163.599   2
   7 -10   2 5108.08 232.944   1
 -10   3   2 4928.87 236.535   1
  -7  -3   2 5305.23 291.181   2
 -10   3   2 5248.45 278.764   4
  -3  10   2 5422.65 273.243   3
 -10   3   2 5393.20 273.705   2
   7 -10   5 313.437 126.639   4
   7 -10   5 572.145 103.664   1
  -7  -3   5 692.054 164.474   4
  -3  10   5 587.423 146.445   1
   7 -10   5 428.821 114.531   3
   3   7   5 471.697 151.902   1
  10  -7   5 725.940 127.516   4
 -10   3   5 479.805 147.587   3
  -7  -3   5 563.034 151.201   3
 -10   3   5 613.903 149.229   4
 -10   3   5 592.109 114.955   1
  -3  10   5 382.997 47.3381   2
 -10   3   5 587.242 169.706   2
   3   7   5 522.162 63.9032   2
  10  -7   5 442.655 102.467   3
  10  -7   5 485.457 127.835   2
   7 -10   8 5277.62 276.108   1
 -10   3   8 5802.16 288.719   1
  -7  -3   8 6006.04 400.882   3
  10  -7   8 5784.42 335.320   3
   7 -10   8 5890.85 336.727   4
   3   7   8 5738.96 237.756   2
   7 -10   8 4881.68 278.862   1
  10  -7   8 6295.13 356.202   1
 -10   3   8 6405.61 428.382   3
   7 -10   8 5926.01 364.268   3
  10  -7   8 6720.66 387.150   2
  -3  10   8 5943.71 387.668   1
  -3  10   8 5699.12 249.612   2
  10  -7   8 5971.51 276.494   4
   3   7   8 6018.06 397.687   1
   3   7   8 5418.64 269.177   2
  -3  10  11 228.663 177.642   1
   3   7  11 500.417 211.293   1
   3   7  11 195.204 228.370   3
  10  -7  11 213.128 167.901   2
  10  -7  11 27.7128 153.678   1
  -3  10  11 424.983 237.227   3
  10  -7  11 301.237 174.452   3
 -10   3  11 76.3769 205.152   3
  -7  -3  11 600.889 236.281   3
   7 -10  11 218.887 185.371   3
   7 -10  11 276.419 196.468   2
  10  -6  -8 492.351 153.286   4
   6 -10  -8 590.011 79.4745   4
  10  -6  -5 703.228 166.297   2
  -4  10  -5 1060.56 156.363   3
  10  -6  -5 1072.15 167.179   4
   6 -10  -5 889.207 155.469   1
  10  -6  -5 1101.49 143.820   1
   6 -10  -5 1022.36 115.838   4
  -6  -4  -5 720.754 52.9506   4
   6 -10  -2 4224.16 220.485   4
  -6  -4  -2 4367.90 225.821   3
 -10   4  -2 4389.76 226.572   2
  -6  -4  -2 4572.87 214.933   4
  10  -6  -2 4391.28 252.893   4
 -10   4  -2 4749.50 228.941   4
  -6  -4  -2 4729.49 179.260   2
   6 -10  -2 4790.80 170.325   2
  10  -6  -2 4361.42 237.225   2
  10  -6  -2 4631.94 234.888   1
   6 -10  -2 4759.69 252.674   1
  -4  10  -2 4654.83 195.012   1
  -4  10  -2 4549.73 205.557   3
   4   6  -2 4651.20 146.561   1
   4   6  -2 4467.04 226.311   3
  -4  10   1 332.683 112.340   3
   6 -10   1 408.723 96.1667   1
  10  -6   1 360.913 123.401   2
   4   6   1 211.310 91.6142   3
   6 -10   1 279.657 125.102   4
  -6  -4   1 291.311 134.133   2
   6 -10   1 168.633 98.9391   2
 -10   4   1 306.195 74.6877   3
   4   6   1 505.562 104.689   2
 -10   4   1 417.936 118.914   2
  10  -6   1 268.129 125.152   4
  -4  10   1 334.493 116.590   1
   6 -10   1 243.204 88.6464   3
  -6  -4   1 53.8099 89.3942   3
 -10   4   1 280.451 120.621   4
  10  -6   1 342.330 134.372   1
  -6  -4   1 338.875 127.012   4
   4   6   1 299.634 124.369   1
  10  -6   4 4471.21 266.611   2
  10  -6   4 4453.57 192.614   3
  -6  -4   4 3890.07 298.162   2
  -4  10   4 4443.48 268.397   1
   4   6   4 4240.53 267.811   1
  -6  -4   4 3979.87 276.876   4
  -4  10   4 3899.57 117.095   2
   6 -10   4 4259.33 199.892   1
 -10   4   4 4382.14 260.051   4
 -10   4   4 4049.94 219.447   1
   4   6   4 4418.68 146.815   2
   4   6   4 4177.83 266.877   3
 -10   4   4 3934.88 254.799   3
   6 -10   4 4557.25 230.979   3
  10  -6   4 4102.68 221.822   4
  -6  -4   4 4567.69 270.084   3
 -10   4   4 4000.89 273.344   2
  10  -6   7 380.308 119.877   1
 -10   4   7 618.986 184.154   3
   6 -10   7 386.054 101.770   1
  10  -6   7 431.830 131.054   2
  -4  10   7 600.119 149.125   1
   4   6   7 580.360 99.0921   2
  10  -6   7 392.576 120.606   3
 -10   4   7 470.897 122.469   1
  -6  -4   7 743.928 187.870   3
  10  -6   7 415.453 99.2495   4
  -4  10   7 568.592 103.256   2
   4   6   7 350.383 162.605   1
   6 -10   7 647.447 153.682   3
 -10   4   7 426.177 130.276   4
   6 -10   7 492.043 108.356   1
  10  -6  10 594.838 183.161   2
 -10   4  10 907.571 159.910   1
   4   6  10 682.793 210.326   1
  -4  10  10 1317.09 237.184   1
  -6  -4  10 637.161 211.668   3
 -10   4  10 682.192 250.703   3
   6 -10  10 970.393 146.906   1
   4   6  10 1124.10 159.315   2
  10  -6  10 801.430 185.595   1
   6 -10  10 815.897 223.608   3
   4   6  10 1053.68 259.897   3
   6 -10  10 1066.09 184.230   4
  -4  10  10 830.322 255.356   3
  10  -6  10 943.388 202.585   3
  10  -5  -9 1475.45 195.570   4
   5 -10  -6 1056.39 105.164   4
  10  -5  -6 1356.67 208.571   2
  10  -5  -6 1102.83 173.679   4
  10  -5  -6 1091.32 142.293   1
   5 -10  -3 7908.47 264.380   4
   5 -10  -3 8475.25 334.024   1
  10  -5  -3 8151.48 340.826   2
  -5  -5  -3 8340.08 248.531   4
 -10   5  -3 8399.23 316.477   2
  10  -5  -3 8069.71 336.305   4
  -5  -5  -3 8128.17 198.939   2
  -5  10  -3 8205.74 284.822   3
   5   5  -3 8585.97 324.808   3
   5 -10  -3 8069.75 192.539   2
   5   5  -3 7335.34 147.008   1
 -10   5  -3 8271.88 296.170   4
  10  -5  -3 7876.59 284.688   1
   5   5  -3 8090.60 365.221   4
   5 -10   0 1537.77 139.881   1
   5   5   0 1613.97 143.820   1
 -10   5   0 1762.98 157.484   2
  -5  -5   0 1559.26 167.560   4
  -5  10   0 1620.25 135.146   3
   5 -10   0 1548.11 178.493   4
  -5  10   0 1497.90 141.435   1
  10  -5   0 1960.22 184.371   4
  10  -5   0 1435.00 166.298   1
  -5  -5   0 1592.71 137.137   3
   5 -10   0 1453.22 134.582   3
   5   5   0 1527.41 166.985   4
   5 -10   0 1652.62 128.256   2
 -10   5   0 1423.04 67.9997   3
   5   5   0 1602.36 159.863   2
  10  -5   0 1373.39 151.640   2
  -5  -5   0 1720.25 148.546   2
 -10   5   0 1546.08 158.531   4
   5   5   0 1625.03 134.859   3
  10  -5   3 7654.31 285.626   4
  -5  -5   3 8004.05 377.536   2
   5   5   3 7926.24 332.680   1
  -5  10   3 7941.42 328.304   1
   5 -10   3 7863.96 282.531   3
 -10   5   3 7512.14 288.799   3
  -5  -5   3 8064.95 375.633   4
   5   5   3 7973.48 206.107   2
  10  -5   3 8227.26 314.995   2
   5 -10   3 8067.58 249.951   1
 -10   5   3 7727.98 326.392   2
  10  -5   3 7842.22 200.988   3
   5   5   3 8078.37 318.724   3
 -10   5   3 8300.35 338.619   4
  -5  -5   3 8129.25 314.146   3
 -10   5   3 8139.71 307.617   1
  -5  10   3 7970.50 178.054   2
  10  -5   6 1086.78 149.195   3
  10  -5   6 1146.73 127.766   4
   5   5   6 1017.38 180.200   1
  -5  10   6 1119.27 117.066   2
  -5  -5   6 1217.47 206.243   4
 -10   5   6 1179.50 166.218   4
  -5  10   6 1025.25 181.503   1
 -10   5   6 961.863 140.831   1
   5 -10   6 1129.80 123.347   1
  -5  -5   6 1131.48 186.998   3
  10  -5   6 944.249 152.526   2
   5 -10   6 984.993 153.512   3
   5   5   6 1061.71 108.936   2
 -10   5   6 1318.67 201.607   3
   5 -10   9 869.591 191.786   3
  10  -5   9 1241.48 199.126   1
  10  -5   9 1211.66 115.002   4
   5   5   9 1329.48 164.017   2
 -10   5   9 994.302 171.530   1
  10  -5   9 1051.60 197.542   3
   5   5   9 1388.14 254.935   1
 -10   5   9 1694.32 278.696   3
  10  -5   9 1271.22 200.743   2
   5 -10   9 1359.96 147.294   1
  -5  -5   9 1273.92 238.019   3
  -5  10   9 1060.82 220.523   1
   4 -10  -7 489.913 57.3848   4
  10  -4  -7 641.668 126.040   1
  10  -4  -4 4317.42 287.106   2
  -4  -6  -4 4442.37 156.527   4
   4 -10  -4 3997.58 264.397   1
 -10   6  -4 4453.83 235.894   4
   4 -10  -4 4284.61 187.900   4
  -4  -6  -4 4218.30 275.466   1
   6   4  -4 4188.16 264.551   3
  -6  10  -4 4482.81 235.546   3
  10  -4  -4 4440.26 274.890   4
  10  -4  -4 4491.00 220.313   1
   6   4  -4 4811.39 305.598   4
  10  -4  -1 121.039 69.0605   3
   4 -10  -1 217.923 67.5656   2
  10  -4  -1 128.215 114.797   4
  -4  -6  -1 320.465 102.356   1
 -10   6  -1 300.839 112.803   4
 -10   6  -1 397.125 107.682   2
  -6  10  -1 313.616 82.6036   3
   4 -10  -1 264.438 115.947   3
   4 -10  -1 215.482 102.415   1
   6   4  -1 228.271 132.276   2
  -4  -6  -1 291.809 109.162   4
  10  -4  -1 267.384 116.543   2
   6   4  -1 234.459 148.884   4
  -4  -6  -1 353.265 82.9175   2
  10  -4  -1 340.516 108.026   1
  -4  -6  -1 162.325 104.260   3
  -6  10  -1 211.359 102.527   1
   6   4  -1 191.750 82.5281   3
   4 -10  -1 165.035 115.262   4
 -10   6   2 4845.61 245.929   1
  -6  10   2 5436.59 264.212   3
  10  -4   2 4718.33 123.574   3
   6   4   2 4818.93 226.204   4
   4 -10   2 4754.81 190.162   1
   6   4   2 4738.28 263.988   1
 -10   6   2 4475.73 210.209   3
   4 -10   2 4745.17 217.518   3
  -6  10   2 4547.41 233.662   4
   6   4   2 4831.80 222.763   3
 -10   6   2 4660.28 239.995   2
   6   4   2 4765.86 187.677   2
 -10   6   2 5007.92 256.309   4
  10  -4   2 4992.36 244.930   2
  -4  -6   2 4505.69 273.314   4
  10  -4   2 4455.89 228.090   4
  -6  10   2 4692.12 162.695   2
  -4  -6   2 5403.68 241.502   3
  -4  -6   2 4626.30 275.803   2
  -6  10   2 4810.19 257.587   1
   6   4   5 1085.74 185.758   1
  -6  10   5 1031.69 119.510   4
 -10   6   5 1150.57 150.855   1
  10  -4   5 1148.03 128.179   4
  10  -4   5 1119.92 133.876   3
   4 -10   5 773.903 135.875   3
  -6  10   5 888.342 101.517   2
 -10   6   5 873.356 166.686   3
  -6  10   5 1240.64 178.825   1
 -10   6   5 887.888 146.162   4
   4 -10   5 999.283 95.3276   1
  -4  -6   5 949.976 169.681   4
  -4  -6   5 1171.36 179.080   3
 -10   6   5 920.587 158.967   2
   6   4   5 1095.31 112.704   2
  10  -4   5 1009.13 147.877   2
  10  -4   8 417.167 135.062   2
   4 -10   8 863.513 194.695   3
  -4  -6   8 434.781 170.961   3
 -10   6   8 425.772 139.155   1
  -6  10   8 453.946 162.471   1
 -10   6   8 428.476 130.269   4
   4 -10   8 509.103 95.1230   1
   4 -10   8 359.303 81.0522   1
  10  -4   8 707.245 152.053   3
   6   4   8 548.398 121.058   2
   6   4   8 489.769 185.226   1
  10  -4   8 508.813 159.864   1
  -6  10   8 738.482 145.149   2
 -10   6   8 215.877 181.465   3
  10  -4   8 458.470 83.2397   4
  10  -4  11 193.327 159.943   3
  -6  10  11 11.0213 172.381   1
  10  -4  11-26.4031 146.265   2
 -10   6  11 214.954 157.152   1
  -4  -6  11 405.053 221.773   3
 -10   6  11-54.0119 215.937   3
   6   4  11 488.333 228.716   1
   6   4  11 174.835 131.147   2
   4 -10  11 26.3273 181.507   3
  10  -4  11 142.601 155.688   1
   4 -10  11 19.8053 134.297   4
   6   4  11-183.346 204.008   3
  -6  10  11 385.183 223.871   3
  10  -3  -8 5401.63 344.329   4
  10  -3  -8 5059.17 266.409   1
  -7  10  -5 676.171 129.646   3
  10  -3  -5 895.844 185.567   2
  10  -3  -5 351.439 133.718   4
  10  -3  -5 315.221 91.2837   1
   7   3  -5 546.671 152.211   4
   3 -10  -5 554.697 78.9770   4
   7   3  -5 465.077 45.4365   1
 -10   7  -2 5561.07 258.811   2
  10  -3  -2 5098.38 276.520   4
  -3  -7  -2 4927.08 255.251   3
 -10   7  -2 5194.67 258.954   4
  10  -3  -2 4808.55 269.862   2
  -7  10  -2 5038.35 192.285   3
   7   3  -2 4541.29 229.468   3
  -3  -7  -2 5308.93 146.861   2
   3 -10  -2 5271.45 258.790   1
  10  -3  -2 4660.69 217.889   3
  -7  10  -2 5098.92 237.031   1
  -3  -7  -2 4727.71 221.485   4
   3 -10  -2 4713.08 116.531   2
  -3  -7  -2 4783.17 254.982   1
   7   3  -2 5173.76 303.601   2
  10  -3  -2 4936.38 223.098   1
   7   3  -2 4861.18 296.464   4
   3 -10  -2 4792.51 226.762   4
  -7  10   1 1344.28 141.371   3
   7   3   1 1500.09 143.028   2
   3 -10   1 1352.45 137.518   3
  -3  -7   1 1217.31 138.442   3
  -3  -7   1 1303.68 110.771   1
  -7  10   1 1261.93 116.729   2
   3 -10   1 1494.30 124.533   1
  -7  10   1 1444.37 166.381   1
  10  -3   1 1405.81 152.204   2
   7   3   1 1398.48 122.418   3
   7   3   1 1363.26 157.764   4
  -7  10   1 1384.33 160.097   4
 -10   7   1 1607.09 173.963   1
  10  -3   1 1322.95 155.271   4
 -10   7   1 1380.86 153.248   4
 -10   7   1 1061.06 133.160   2
  10  -3   1 1396.60 66.1213   3
  -3  -7   1 1241.62 164.073   2
  -3  -7   1 1419.18 181.758   4
  -7  10   4 4782.19 191.677   2
  10  -3   4 4820.43 249.678   2
  -7  10   4 4411.74 220.813   4
   7   3   4 4653.31 260.716   3
 -10   7   4 4545.15 266.469   3
 -10   7   4 4775.62 273.278   2
  -3  -7   4 4547.24 300.772   4
  -7  10   4 4714.17 273.676   1
   3 -10   4 4698.10 161.239   1
   7   3   4 4742.23 183.637   4
 -10   7   4 4849.98 257.983   4
   3 -10   4 4671.94 259.029   3
  10  -3   4 4646.61 218.269   4
  -3  -7   4 4195.46 309.934   2
  -3  -7   4 5129.36 274.218   3
 -10   7   4 4705.77 255.573   1
   7   3   4 5194.11 208.516   2
   7   3   4 4652.07 297.617   1
  10  -3   7-34.0463 106.861   2
 -10   7   7-46.7436 125.180   1
 -10   7   7 46.9037 106.900   4
  -3  -7   7 52.5697 139.379   3
  -7  10   7 79.7433 97.0867   2
  -7  10   7-5.88013 128.374   1
   7   3   7 211.365 159.801   1
   7   3   7 107.045 93.9204   2
 -10   7   7 143.996 154.292   3
   3 -10   7-7.48704 49.4865   1
   3 -10   7 1.06848 49.8859   1
   3 -10   7 133.500 139.969   3
  10  -3   7 184.145 110.627   3
  10  -3   7 118.117 126.289   1
  10  -3   7-19.6498 65.3697   4
  -7  10   7 82.9284 87.8068   4
   7   3  10 2596.02 237.285   2
  -7  10  10 2798.08 364.352   3
  10  -3  10 3091.51 315.033   1
  10  -3  10 2938.02 293.893   2
   7   3  10 2850.64 326.552   3
  10  -3  10 2292.97 281.900   3
   7   3  10 3145.06 343.780   1
 -10   7  10 3033.12 279.099   1
 -10   7  10 2727.99 355.192   3
   3 -10  10 2388.48 300.599   3
  -3  -7  10 2719.68 325.367   3
  -7  10  10 2534.06 295.324   1
  10  -2  -6 364.088 87.8886   1
   8   2  -6 389.313 59.1740   1
  10  -2  -6 170.864 154.750   2
  10  -2  -6 339.025 156.878   4
   2 -10  -6 200.345 42.1509   4
  -8  10  -6 240.572 114.219   3
   8   2  -6 350.252 143.296   4
   8   2  -3 5266.54 180.763   1
   8   2  -3 4759.25 255.477   3
  -8  10  -3 5315.47 207.110   3
   8   2  -3 5096.32 324.403   2
  10  -2  -3 4706.94 246.923   3
   2 -10  -3 5399.42 280.315   1
  -2  -8  -3 5124.83 283.545   1
  10  -2  -3 4857.19 298.967   4
  -2  -8  -3 4990.08 210.587   4
  10  -2  -3 5034.24 218.000   1
   2 -10  -3 4908.02 216.733   4
 -10   8  -3 5000.62 263.401   4
  10  -2  -3 5070.21 304.234   2
   8   2  -3 5208.18 320.235   4
  10  -2   0 2885.86 223.915   4
  10  -2   0 2928.15 201.170   2
 -10   8   0 3090.51 122.271   3
   8   2   0 3068.42 222.985   4
   2 -10   0 2798.68 191.548   3
  -2  -8   0 3053.03 210.770   4
 -10   8   0 2672.59 213.551   1
 -10   8   0 2286.95 189.588   4
  -2  -8   0 2967.36 177.108   1
   8   2   0 3170.74 207.288   2
  -8  10   0 2694.04 210.904   4
   8   2   0 3124.05 158.530   3
  10  -2   0 3078.61 127.278   3
  -2  -8   0 2910.37 195.879   3
  -8  10   0 3051.12 183.763   2
 -10   8   0 2934.58 191.044   2
  -2  -8   0 3173.30 188.501   2
   2 -10   0 3097.00 181.820   1
  -8  10   0 3143.62 204.328   1
  -8  10   0 2869.60 156.792   3
  10  -2   3 2569.31 146.292   3
   2 -10   3 2648.23 191.495   3
  -8  10   3 2296.66 193.658   1
  -8  10   3 2074.37 173.816   4
  -2  -8   3 2358.07 232.683   2
   8   2   3 2095.93 205.447   1
  10  -2   3 2479.44 173.322   4
  -2  -8   3 2276.65 226.552   4
   8   2   3 2372.14 154.483   2
   8   2   3 2492.13 178.963   3
  10  -2   3 2417.79 176.438   2
   8   2   3 2456.08 160.980   4
 -10   8   3 2733.40 213.480   1
 -10   8   3 2263.70 173.999   2
 -10   8   3 2543.70 194.360   4
   2 -10   3 2377.44 116.806   1
  -2  -8   3 2564.43 198.181   3
  -8  10   3 2387.87 144.672   2
  10  -2   6 1452.20 167.314   2
 -10   8   6 1694.25 218.308   3
 -10   8   6 1276.43 178.954   1
  10  -2   6 1458.02 125.442   4
   2 -10   6 1049.68 71.0561   1
  -8  10   6 1654.24 163.265   2
 -10   8   6 1471.40 188.552   2
 -10   8   6 1269.87 166.351   4
  -8  10   6 1592.60 154.533   4
  -8  10   6 1816.72 214.952   1
  -2  -8   6 1824.05 217.902   3
   2 -10   6 1126.47 67.0851   1
   8   2   6 1412.42 148.237   2
   2 -10   6 1458.99 193.434   3
  10  -2   6 1528.86 211.055   1
   8   2   6 1571.39 228.033   1
   8   2   9 947.229 154.803   2
   2 -10   9 530.146 54.0239   1
  -8  10   9 861.674 234.280   3
   8   2   9 1023.95 226.317   1
  10  -2   9 905.462 170.360   2
 -10   8   9 1174.38 203.463   1
  10  -2   9 963.451 203.292   1
  -2  -8   9 893.748 214.647   3
  -8  10   9 816.898 185.137   1
   8   2   9 1016.42 233.234   3
   2 -10   9 872.015 229.884   3
 -10   8   9 865.961 231.656   3
  10  -2   9 852.840 187.149   3
   9   1  -7-42.0651 146.612   4
  10  -1  -7 65.8272 80.6509   1
   9   1  -7-5.10020 56.6765   1
  10  -1  -7 207.459 154.458   4
   1 -10  -4 884.237 168.803   1
   9   1  -4 903.774 94.6226   1
   9   1  -4 862.891 151.382   3
  10  -1  -4 1097.44 195.470   2
  10  -1  -4 839.391 101.358   1
 -10   9  -4 814.600 108.344   3
  10  -1  -4 1000.88 187.812   4
  -9  10  -4 893.998 113.591   3
  -1  -9  -4 888.895 171.324   1
  10  -1  -4 967.623 158.387   3
   9   1  -4 919.324 206.492   2
   1 -10  -4 934.176 100.849   4
   9   1  -4 714.077 190.544   4
  -1  -9  -4 912.358 104.474   4
  -1  -9  -1 1939.27 181.627   3
  -9  10  -1 1820.83 162.657   2
   9   1  -1 1796.05 213.417   4
  -9  10  -1 1721.05 104.986   3
  -1  -9  -1 1843.10 126.789   2
  10  -1  -1 1875.58 185.054   2
   1 -10  -1 1816.67 178.846   3
  -9  10  -1 1942.92 187.849   4
  10  -1  -1 1854.23 135.122   3
   9   1  -1 1932.22 199.716   2
  -1  -9  -1 1855.89 162.360   1
 -10   9  -1 1771.99 166.623   2
  10  -1  -1 1688.18 192.988   4
  -9  10  -1 1825.58 175.610   1
 -10   9  -1 1694.17 82.3643   3
 -10   9  -1 1720.07 178.689   4
 -10   9  -1 2046.28 192.691   1
   1 -10  -1 2043.84 166.054   1
   9   1  -1 2024.53 140.768   3
   1 -10   2 2199.48 178.802   3
   9   1   2 1971.45 166.564   4
  -1  -9   2 1869.34 109.983   1
  -9  10   2 1956.17 180.848   4
  10  -1   2 1793.73 165.202   4
  -9  10   2 1961.56 144.191   2
 -10   9   2 1928.50 186.362   1
 -10   9   2 2178.92 161.469   2
   9   1   2 1881.49 155.027   2
  10  -1   2 2121.91 122.373   3
 -10   9   2 2091.10 179.968   4
  -1  -9   2 1706.31 165.624   3
  -9  10   2 1936.92 189.548   1
   1 -10   2 1974.96 117.944   1
  10  -1   2 2111.57 177.224   2
   9   1   2 1942.27 136.255   3
  -9  10   5 1809.93 191.878   1
  10  -1   5 1713.89 165.430   2
   9   1   5 1706.05 123.722   4
   1 -10   5 1592.55 183.174   3
 -10   9   5 1441.13 179.379   1
  10  -1   5 1687.45 132.443   4
   9   1   5 1925.16 204.154   1
 -10   9   5 1530.89 174.969   2
  -9  10   5 1742.84 165.371   2
  -1  -9   5 1523.06 177.855   3
  -1  -9   5 1781.81 221.480   4
  -9  10   5 1435.77 158.298   4
 -10   9   5 1863.05 178.657   4
   9   1   5 1678.30 155.542   2
  10  -1   5 1618.77 199.118   1
  -9  10   8 131.300 128.825   2
  10  -1   8 81.7784 108.130   3
 -10   9   8 26.6199 111.218   4
  10  -1   8 134.535 110.322   2
  -9  10   8 214.616 105.435   4
   9   1   8 257.475 165.367   1
  10  -1   8 104.684 145.036   1
  -9  10   8 63.2421 141.613   1
 -10   9   8 557.320 212.253   3
  -9  10   8 142.353 173.712   3
   9   1   8 208.594 120.315   2
   1 -10   8 383.779 186.291   3
  -1  -9   8 288.440 157.878   3
 -10   9   8 196.929 141.652   1
   9   1  11 589.029 233.176   3
  -9  10  11 455.460 229.570   3
  10  -1  11 502.053 182.601   2
   9   1  11 466.160 157.589   2
 -10   9  11 667.750 274.561   3
   9   1  11 470.650 209.130   1
  10  -1  11 515.946 214.543   3
  10  -1  11 517.528 208.525   1
 -10   9  11 506.958 197.636   1
   1 -10  11 655.695 254.169   3
  -1  -9  11 849.555 259.992   3
  -9  10  11 617.226 212.811   1
  10   0  -8 4290.32 202.075   1
  10   0  -5 261.415 147.142   4
  10   0  -5-34.5517 163.585   2
  10   0  -5 11.7357 63.7790   1
   0 -10  -5-4.59071 51.7911   4
   0 -10  -5-42.0053 51.7698   4
   0 -10  -2 4730.31 262.540   1
 -10  10  -2 4634.57 150.405   3
 -10  10  -2 4615.74 272.171   4
   0 -10  -2 4787.65 276.982   3
 -10  10  -2 4104.34 251.155   2
  10   0  -2 4363.90 214.557   1
  10   0  -2 4154.95 290.923   4
  10   0  -2 4226.81 216.915   3
   0 -10  -2 3638.50 111.631   2
  10   0  -2 4172.86 281.271   2
  10   0   1 128.766 126.925   4
   0 -10   1 217.753 112.278   3
 -10  10   1-67.0423 79.8661   3
 -10  10   1 80.3580 89.1701   2
 -10  10   1 0.34938 110.006   1
 -10  10   1-26.4044 112.095   4
  10   0   1 131.526 103.632   2
   0 -10   1 8.93138 82.5886   1
  10   0   1 12.8317 63.4737   3
   0 -10   4 8341.40 355.324   3
  10   0   4 8135.00 304.897   3
  10   0   4 8353.38 384.242   1
 -10  10   4 8303.56 360.528   1
 -10  10   4 8320.12 334.001   4
 -10  10   4 8053.57 299.027   2
  10   0   4 8232.08 282.698   4
  10   0   4 8803.78 314.617   2
   0 -10   7 175.004 143.322   3
  10   0   7 71.0138 105.564   2
 -10  10   7-128.929 135.425   1
  10   0   7 151.835 152.982   1
  10   0   7-41.9569 42.4440   4
 -10  10   7-33.9272 105.422   4
 -10  10   7-37.8997 115.383   2
 -10  10   7 68.4988 155.764   3
  10   0  10 1735.22 258.581   3
 -10  10  10 1719.13 244.759   1
  10   0  10 1632.02 262.125   1
   0 -10  10 2051.38 292.407   3
  10   0  10 2231.30 251.395   2
  11 -11  -8 448.322 139.040   4
  11 -11  -5 27.0077 106.121   4
 -11   0  -5-42.6263 71.7329   4
  11 -11  -5 74.1824 114.392   2
  11 -11  -2 1226.70 165.592   4
  11 -11  -2 1548.71 174.690   1
   0  11  -2 1249.74 112.749   1
   0  11  -2 1424.10 152.039   3
 -11   0  -2 1557.51 154.369   2
 -11   0  -2 1382.29 160.270   4
  11 -11  -2 1117.35 134.165   2
  11 -11   1-6.31157 62.5017   3
 -11   0   1 160.212 129.421   4
  11 -11   1 17.3987 104.870   2
  11 -11   1-118.417 126.625   4
   0  11   1 116.363 106.645   3
 -11   0   1 30.8824 109.001   2
   0  11   1-82.8654 106.876   1
  11 -11   1-33.5866 106.446   1
 -11   0   1-3.76403 79.9801   3
  11 -11   4 1576.82 199.234   2
  11 -11   4 1523.06 175.570   1
 -11   0   4 1560.27 210.652   4
 -11   0   4 1835.44 191.678   3
   0  11   4 1872.47 210.639   1
  11 -11   4 1811.08 137.021   3
  11 -11   4 1532.61 179.178   4
   0  11   7-59.6160 148.896   1
  11 -11   7-71.4933 122.961   4
 -11   0   7-6.96867 78.2231   1
  11 -11   7-1.68633 99.4900   3
  11 -11   7 109.154 149.929   2
 -11   0   7 213.487 161.847   3
   0  11  10 376.519 185.864   1
 -11   0  10-7.49497 203.730   3
  11 -11  10 9.99866 137.408   1
  11 -11  10 160.180 124.421   4
  11 -11  10 456.597 183.422   2
  11 -11  10-12.6538 147.357   3
  11 -10  -9 896.695 160.250   4
  10 -11  -9 896.314 147.407   4
  11 -10  -6 357.119 122.498   4
 -10  -1  -6 395.020 72.5497   4
 -11   1  -6 540.497 88.7115   4
  10 -11  -6 411.112 139.442   2
  10 -11  -6 324.236 112.379   4
  11 -10  -6 495.817 147.860   2
  11 -10  -3 3831.67 247.993   1
  -1  11  -3 3476.05 220.648   3
  -1  11  -3 3712.62 147.273   1
  10 -11  -3 3497.32 207.254   2
   1  10  -3 3740.48 128.856   1
  10 -11  -3 3575.69 228.941   4
  11 -10  -3 3313.64 225.524   2
 -11   1  -3 3487.53 208.577   2
   1  10  -3 3572.09 228.771   3
 -11   1  -3 3585.38 203.928   4
 -10  -1  -3 3859.27 209.491   4
 -10  -1  -3 3574.56 202.900   2
  10 -11  -3 3771.86 249.418   1
  11 -10  -3 3778.80 242.236   4
  -1  11   0 481.561 108.675   1
 -10  -1   0 107.987 119.297   4
 -10  -1   0 378.990 92.4526   3
   1  10   0 243.287 98.0761   3
   1  10   0 438.113 111.406   1
  10 -11   0 208.192 124.425   4
  11 -10   0 457.356 115.902   2
 -10  -1   0 533.589 113.737   2
  10 -11   0 437.045 117.669   2
  10 -11   0 726.625 138.737   1
  11 -10   0 174.746 120.941   4
  -1  11   0 460.805 111.373   3
 -11   1   0 400.501 76.4169   3
  11 -10   0 343.383 117.881   1
 -11   1   0 484.771 121.331   2
 -11   1   0 442.456 147.112   4
  -1  11   3 3222.73 247.497   3
  10 -11   3 3831.95 172.635   3
  10 -11   3 3062.42 218.347   1
 -10  -1   3 3624.40 223.178   3
 -11   1   3 3287.17 276.783   2
  11 -10   3 3352.74 229.242   4
  10 -11   3 3621.21 248.466   4
 -10  -1   3 3041.58 272.602   2
 -10  -1   3 3478.31 264.489   4
  10 -11   3 3654.23 244.500   2
   1  10   3 3338.10 248.041   3
  11 -10   3 3626.64 146.760   3
  -1  11   3 3521.24 253.341   1
 -11   1   3 3277.69 214.850   3
   1  10   3 2804.04 231.744   1
 -11   1   3 3527.61 261.243   4
  11 -10   3 3600.86 240.021   1
  11 -10   3 3223.82 234.801   2
  10 -11   6 261.468 114.596   1
  -1  11   6 548.818 167.857   1
 -11   1   6 245.201 98.5896   1
 -10  -1   6 400.261 172.475   3
  10 -11   6 307.979 104.248   3
  10 -11   6 442.035 161.302   2
  11 -10   6 255.818 126.491   4
  10 -11   6 233.438 123.384   4
 -11   1   6 230.101 143.738   3
   1  10   6 272.644 149.974   1
  11 -10   6 359.071 100.542   3
  11 -10   6 548.152 160.665   2
  11 -10   9 553.785 190.333   2
  10 -11   9 686.654 154.898   1
  11 -10   9 389.620 132.433   4
  10 -11   9 679.998 154.018   4
   1  10   9 508.141 80.5993   2
  11 -10   9 800.113 182.127   1
 -11   1   9 430.605 200.075   3
 -11   1   9 702.155 128.757   1
  10 -11   9 817.509 172.200   3
  10 -11   9 645.836 215.947   2
  11 -10   9 792.376 166.739   3
 -10  -1   9 454.134 197.077   3
  -1  11   9 828.188 195.213   1
  -1  11   9 537.696 81.8956   2
   1  10   9 609.299 196.029   1
   9 -11  -7 2701.16 203.407   4
  11  -9  -7 2590.31 228.825   4
   9 -11  -4 3501.31 244.764   1
  11  -9  -4 3300.96 237.828   2
   9 -11  -4 3501.12 204.344   2
  -9  -2  -4 3578.90 174.702   4
 -11   2  -4 3511.09 193.409   4
 -11   2  -4 3296.33 213.162   2
  -2  11  -4 3276.58 233.977   3
  11  -9  -4 3713.40 243.371   1
  11  -9  -4 3527.48 240.292   4
   9 -11  -4 3462.07 217.471   4
  -9  -2  -4 3487.91 189.169   2
 -11   2  -1 6634.60 180.451   3
  -2  11  -1 6597.87 240.842   1
   9 -11  -1 6372.89 288.021   1
  11  -9  -1 6716.36 307.583   4
  11  -9  -1 6090.35 266.421   2
   9 -11  -1 6536.69 299.531   4
  -9  -2  -1 6953.26 305.634   4
  -9  -2  -1 6699.27 264.176   2
   9 -11  -1 6732.34 250.302   2
  11  -9  -1 6745.49 303.752   1
   2   9  -1 6749.41 230.727   1
 -11   2  -1 6342.00 271.686   2
   2   9  -1 6435.87 263.791   3
  -2  11  -1 6312.66 257.676   3
 -11   2  -1 7056.82 303.920   4
  -9  -2  -1 6708.96 242.893   3
  11  -9   2 2199.44 189.840   2
   9 -11   2 2295.52 203.701   4
  11  -9   2 2634.91 213.969   1
  11  -9   2 2081.82 194.587   4
  -9  -2   2 2387.52 220.114   4
 -11   2   2 2429.14 169.319   3
   2   9   2 2382.24 202.014   1
  -9  -2   2 2265.76 216.712   2
 -11   2   2 2661.72 234.580   4
  -9  -2   2 2595.49 175.218   3
  -2  11   2 2658.82 213.112   1
   2   9   2 2662.31 207.644   3
   9 -11   2 2593.27 193.601   1
 -11   2   2 1879.55 195.424   2
   9 -11   2 2551.64 144.124   3
  11  -9   2 2301.35 91.2338   3
  -2  11   2 2848.82 216.750   3
   9 -11   2 2296.56 202.452   2
  11  -9   5 4721.96 260.896   4
   2   9   5 4459.40 312.852   1
 -11   2   5 4568.38 235.300   1
  -2  11   5 4980.78 307.481   1
 -11   2   5 3670.90 284.877   4
  -9  -2   5 3986.95 277.271   3
   9 -11   5 4156.95 242.140   1
   9 -11   5 4650.46 239.578   3
   9 -11   5 4436.75 278.352   4
  11  -9   5 4501.51 294.445   2
  11  -9   5 4735.65 225.199   3
 -11   2   5 4463.10 286.890   3
   9 -11   5 4741.81 307.257   2
   9 -11   8 1148.54 168.830   1
  -2  11   8 722.429 91.2331   2
   2   9   8 959.056 219.108   1
 -11   2   8 1129.36 234.525   3
   2   9   8 866.310 93.4184   2
   2   9   8 716.776 103.684   2
  11  -9   8 1006.62 178.404   1
   9 -11   8 1107.47 221.178   2
   9 -11   8 902.216 176.522   4
   9 -11   8 987.578 178.215   3
  11  -9   8 648.002 172.212   2
  11  -9   8 1020.52 149.729   4
  11  -9   8 643.558 146.555   3
  -2  11   8 1114.57 214.165   1
  -9  -2   8 660.242 208.365   3
   9 -11   8 664.637 147.858   1
  -2  11   8 894.627 85.4276   2
 -11   2   8 734.395 131.683   1
   2   9  11 1407.69 290.041   3
  -2  11  11 1296.15 274.134   1
  -2  11  11 1697.05 323.495   3
   2   9  11 1222.64 275.379   1
   9 -11  11 1380.58 245.588   3
  11  -9  11 922.806 214.884   3
  11  -9  11 1286.12 244.552   2
  11  -9  11 1287.19 221.858   1
   9 -11  11 1512.54 295.367   2
 -11   2  11 1136.57 291.147   3
  -9  -2  11 1101.78 285.668   3
  11  -8  -8 778.200 159.681   4
   8 -11  -8 950.982 123.439   4
  11  -8  -5 604.403 156.310   2
   8 -11  -5 604.075 115.949   2
 -11   3  -5 439.433 104.325   4
  11  -8  -5 688.340 147.995   4
  -8  -3  -5 520.103 71.7090   4
  11  -8  -5 567.243 135.026   1
   8 -11  -5 545.447 112.242   4
  11  -8  -2 3693.30 241.642   4
  -8  -3  -2 3639.81 205.227   3
 -11   3  -2 3985.91 226.193   4
   8 -11  -2 3773.23 223.289   4
   8 -11  -2 3571.76 176.064   2
   3   8  -2 3620.30 142.450   1
  -8  -3  -2 3956.06 192.033   2
   8 -11  -2 3624.07 231.832   1
   3   8  -2 3606.28 209.868   3
  -3  11  -2 3785.02 209.248   3
  11  -8  -2 3790.14 234.333   2
  -3  11  -2 3515.64 174.390   1
 -11   3  -2 3725.63 217.499   2
  11  -8  -2 3879.15 234.277   1
  -8  -3  -2 3706.06 211.777   4
   3   8   1 1791.05 163.099   1
  11  -8   1 2032.12 192.633   1
  -8  -3   1 2104.84 193.249   2
   3   8   1 2050.15 145.085   2
  -8  -3   1 1701.30 196.502   4
 -11   3   1 1962.86 197.921   4
  11  -8   1 1696.03 174.253   4
  -3  11   1 1991.05 183.571   1
   8 -11   1 1870.85 171.611   1
   8 -11   1 1912.07 184.638   4
 -11   3   1 1752.13 175.639   2
   8 -11   1 1846.05 163.816   2
   8 -11   1 1649.28 127.603   3
 -11   3   1 1891.98 124.329   3
  -3  11   1 1798.43 168.099   3
  -8  -3   1 1808.46 145.373   3
   3   8   1 1809.33 163.970   3
  11  -8   1 1790.67 166.552   2
   8 -11   4 965.297 136.129   1
   8 -11   4 1004.46 126.194   3
   3   8   4 1038.95 182.576   3
   3   8   4 700.531 52.1557   2
 -11   3   4 763.973 165.949   2
 -11   3   4 956.292 163.448   4
   8 -11   4 827.008 158.676   4
  -3  11   4 855.884 165.179   1
  -8  -3   4 661.630 160.477   4
  -8  -3   4 720.951 143.004   3
  11  -8   4 1006.74 160.314   2
 -11   3   4 846.404 160.821   3
  11  -8   4 1130.20 106.265   3
   3   8   4 978.665 169.156   1
 -11   3   4 950.347 135.786   1
  11  -8   4 956.224 141.128   4
   8 -11   7 698.056 156.408   4
  -3  11   7 717.855 172.655   1
  11  -8   7 1176.40 150.137   4
  11  -8   7 798.826 166.496   2
  -3  11   7 820.027 86.5369   2
   8 -11   7 1050.14 174.652   3
 -11   3   7 993.304 142.744   1
   8 -11   7 1059.19 150.040   1
   3   8   7 740.848 104.107   2
 -11   3   7 1047.34 210.634   3
  11  -8   7 888.525 141.754   3
  -8  -3   7 709.269 183.655   3
   3   8   7 650.280 175.241   1
   3   8   7 804.265 90.8230   2
  -3  11  10 1202.11 248.779   1
   3   8  10 1297.33 150.902   2
  11  -8  10 1451.39 236.671   2
  11  -8  10 1120.92 144.552   4
  11  -8  10 1446.22 223.197   3
  11  -8  10 1495.70 219.925   1
 -11   3  10 1324.59 182.660   1
  -8  -3  10 857.425 239.997   3
   8 -11  10 1446.07 181.694   1
   3   8  10 1091.04 238.369   1
 -11   3  10 1452.29 286.892   3
   8 -11  10 1379.72 233.747   3
   8 -11  10 1257.47 259.467   2
   8 -11  10 1579.18 209.924   4
  11  -7  -9 1559.59 208.565   4
  11  -7  -6 171.176 142.849   2
  11  -7  -6 161.869 114.384   1
  11  -7  -6 217.257 133.880   4
   7 -11  -6 208.771 83.1793   4
   7 -11  -3 306.425 113.527   4
 -11   4  -3 395.377 107.776   4
  11  -7  -3 475.874 144.089   4
   7 -11  -3 316.588 118.720   1
   4   7  -3 196.892 108.503   3
   4   7  -3 170.570 34.7661   1
  -4  11  -3 368.870 108.232   3
 -11   4  -3 239.886 103.383   2
   7 -11  -3 215.033 75.7087   2
  -7  -4  -3 218.199 72.6712   2
  -4  11  -3 270.488 86.1260   1
  11  -7  -3 234.615 110.749   1
  -7  -4  -3 365.605 98.1610   4
  11  -7  -3 52.3715 108.413   2
   7 -11   0 2058.42 171.450   1
   7 -11   0 2039.14 160.374   3
   7 -11   0 2171.39 157.541   2
  11  -7   0 2221.71 197.572   1
   4   7   0 2233.70 162.960   3
   4   7   0 2075.48 158.024   1
 -11   4   0 2098.38 174.541   2
  -7  -4   0 2084.40 152.282   3
  11  -7   0 2463.66 189.667   2
  11  -7   0 1952.84 181.423   4
  -4  11   0 2102.95 172.261   1
  -7  -4   0 2117.32 172.237   2
 -11   4   0 2171.84 93.3988   3
  -4  11   0 2081.88 160.496   3
 -11   4   0 2071.74 192.752   4
   7 -11   0 2172.99 189.270   4
   4   7   0 2253.04 179.389   2
  -7  -4   0 2187.11 199.709   4
   4   7   3 3324.11 239.235   1
  -7  -4   3 4020.23 236.102   3
  11  -7   3 4049.03 233.187   4
  11  -7   3 4180.75 140.577   3
  11  -7   3 3756.36 234.321   2
 -11   4   3 3921.58 229.732   1
   4   7   3 3950.46 138.670   2
  -7  -4   3 3700.55 273.192   4
   7 -11   3 3970.93 203.086   3
  -4  11   3 3439.47 237.899   1
 -11   4   3 3868.33 266.042   2
  -7  -4   3 3777.90 283.249   2
 -11   4   3 3929.92 233.611   3
   4   7   3 3814.58 247.060   3
   7 -11   3 4186.54 268.300   4
   7 -11   3 3702.37 203.033   1
 -11   4   3 4093.30 266.872   4
  -4  11   3 3686.69 260.041   3
  -7  -4   6 466.237 150.303   3
 -11   4   6 324.837 160.014   3
   4   7   6 416.088 74.5225   2
   7 -11   6 401.174 135.165   3
 -11   4   6 373.206 137.600   4
  11  -7   6 597.566 160.648   2
  11  -7   6 367.739 109.076   4
   7 -11   6 475.249 100.510   1
  -4  11   6 422.032 64.6540   2
   4   7   6 291.420 150.958   1
  -4  11   6 632.255 174.057   1
 -11   4   6 371.718 112.929   1
  11  -7   6 390.066 109.750   3
   7 -11   9 1285.94 205.495   4
 -11   4   9 1400.85 184.630   1
 -11   4   9 947.505 230.926   3
  11  -7   9 1270.96 189.696   3
  11  -7   9 1172.01 145.505   4
  -4  11   9 1110.13 217.333   1
  11  -7   9 1174.43 204.442   1
   7 -11   9 1214.84 155.406   1
   4   7   9 1091.86 136.476   2
  11  -7   9 1380.54 217.519   2
   7 -11   9 757.867 194.386   3
  -7  -4   9 1526.92 258.109   3
   4   7   9 1235.40 238.596   1
  11  -6  -7 2334.98 212.190   1
   6 -11  -7 2600.90 155.072   4
   6 -11  -4 3517.76 156.949   2
 -11   5  -4 3675.25 207.851   4
  -6  -5  -4 3538.03 157.812   2
  -6  -5  -4 3933.72 162.359   4
   6 -11  -4 3789.35 253.251   1
  11  -6  -4 3544.08 255.319   4
   5   6  -4 3439.89 249.355   3
  -5  11  -4 3413.84 219.883   3
  11  -6  -4 3453.78 256.744   2
  11  -6  -4 3580.21 219.649   1
   6 -11  -4 3568.76 193.620   4
 -11   5  -1 3183.75 207.687   4
  -5  11  -1 2781.36 175.429   1
 -11   5  -1 3094.60 200.467   2
  -5  11  -1 2991.34 171.889   3
  -6  -5  -1 3152.94 190.651   3
   5   6  -1 3307.75 165.522   1
   5   6  -1 3050.58 241.460   4
  11  -6  -1 3345.73 207.436   1
   5   6  -1 3273.11 237.328   2
   6 -11  -1 3423.22 220.543   4
   6 -11  -1 3116.55 202.264   1
  11  -6  -1 3079.52 204.039   2
  -6  -5  -1 2755.30 201.125   4
   6 -11  -1 3157.45 150.250   2
  -6  -5  -1 3098.55 174.153   2
   5   6  -1 3244.13 189.659   3
  11  -6  -1 3000.79 219.521   4
 -11   5   2 4868.62 267.959   4
  -6  -5   2 5032.33 291.052   2
  11  -6   2 4826.32 251.909   2
  -5  11   2 4332.87 257.586   3
  -6  -5   2 4466.61 281.199   4
  -5  11   2 4153.89 256.355   1
 -11   5   2 4602.95 249.232   1
   6 -11   2 4546.43 210.389   1
   5   6   2 4661.38 237.427   3
  -6  -5   2 4556.52 234.470   3
   5   6   2 4704.96 183.028   2
 -11   5   2 4590.24 213.200   3
 -11   5   2 4528.26 249.186   2
   5   6   2 4768.31 261.801   1
   6 -11   2 4743.56 211.220   3
  11  -6   2 4741.74 243.640   4
   6 -11   5 3171.24 180.955   1
 -11   5   5 2983.72 211.340   1
  11  -6   5 3155.58 236.624   2
  -6  -5   5 3057.41 268.754   4
   5   6   5 3155.50 255.918   1
 -11   5   5 2745.09 242.131   3
  11  -6   5 3089.30 197.811   4
   5   6   5 3176.21 147.027   2
 -11   5   5 2739.03 229.007   4
  -5  11   5 2854.54 123.904   2
  -6  -5   5 3265.80 252.093   3
 -11   5   5 2660.56 247.733   2
  11  -6   5 3251.86 193.222   3
   6 -11   5 3265.71 227.792   3
  -5  11   5 3109.49 254.036   1
  11  -6   8 2494.10 233.968   3
  11  -6   8 2615.86 254.154   2
   6 -11   8 2145.15 174.559   1
  -5  11   8 2011.87 167.602   2
   5   6   8 2443.10 271.610   1
  11  -6   8 2153.68 166.818   4
 -11   5   8 2074.61 285.452   3
   5   6   8 1829.17 156.496   2
  -5  11   8 2434.46 261.045   1
   6 -11   8 2092.54 174.814   1
  -6  -5   8 2145.85 268.845   3
   6 -11   8 2478.64 257.753   3
  11  -6   8 1970.06 227.684   1
 -11   5   8 2052.12 204.360   1
  11  -6  11 730.397 188.923   1
  -5  11  11 1177.82 249.906   1
  11  -6  11 1428.04 249.734   2
 -11   5  11 1219.67 274.145   3
   5   6  11 1278.48 274.254   1
   6 -11  11 957.262 240.702   3
  -6  -5  11 1085.69 260.614   3
   5   6  11 846.985 263.173   3
  -5  11  11 1550.43 324.937   3
  11  -6  11 735.184 197.870   3
  11  -5  -8 1922.01 229.390   4
  11  -5  -8 1543.20 183.125   1
  11  -5  -5 2986.33 264.807   2
  11  -5  -5 2703.51 236.574   4
  -6  11  -5 2714.87 223.632   3
  -5  -6  -5 2404.11 93.5432   4
   5 -11  -5 2627.59 156.207   4
  11  -5  -5 2892.85 197.225   1
  -5  -6  -2 5087.75 261.711   3
  -5  -6  -2 5076.06 173.540   2
   5 -11  -2 5335.97 270.387   1
   5 -11  -2 4813.65 149.516   2
  11  -5  -2 4839.72 272.796   2
   6   5  -2 4922.62 168.096   1
  -6  11  -2 5089.79 229.154   1
   6   5  -2 5060.01 235.780   3
 -11   6  -2 4814.86 249.806   2
  11  -5  -2 5171.76 242.675   1
   5 -11  -2 4774.67 237.300   4
   6   5  -2 4754.53 297.605   4
 -11   6  -2 4678.12 249.576   4
  -6  11  -2 4871.54 205.200   3
   6   5  -2 5388.69 309.374   2
  -5  -6  -2 4759.98 259.483   1
  -5  -6  -2 5180.66 239.520   4
  11  -5  -2 4720.83 278.191   4
   6   5   1 2874.83 194.874   1
  -6  11   1 3168.41 156.217   2
   5 -11   1 3020.25 178.585   1
   6   5   1 2841.73 178.776   2
  11  -5   1 2811.81 201.030   2
  -5  -6   1 2885.63 235.911   4
 -11   6   1 2940.38 196.940   2
   6   5   1 3085.10 215.115   4
   5 -11   1 2738.21 175.439   3
 -11   6   1 2837.41 210.319   1
  -6  11   1 3056.07 207.915   1
  -5  -6   1 2905.39 190.797   3
 -11   6   1 2759.56 211.191   4
  -5  -6   1 3070.46 219.282   2
  11  -5   1 2678.38 201.219   4
  -6  11   1 3145.50 198.076   3
 -11   6   1 2921.40 141.559   3
   6   5   1 2950.54 178.654   3
  -6  11   4 3138.93 248.646   1
  11  -5   4 2839.53 215.501   2
  11  -5   4 3103.34 194.589   4
 -11   6   4 3057.85 228.245   4
 -11   6   4 3328.42 239.835   3
  11  -5   4 3117.62 165.992   3
  -6  11   4 3390.09 139.275   2
 -11   6   4 2948.72 213.175   1
   6   5   4 3381.52 242.820   3
 -11   6   4 2812.55 231.918   2
   5 -11   4 3117.31 208.905   3
   5 -11   4 3131.76 166.628   1
  -5  -6   4 3108.20 229.061   3
  -5  -6   4 2942.07 267.832   4
   6   5   4 3305.84 155.582   2
   6   5   4 3106.93 258.245   1
  -5  -6   4 3118.57 270.895   2
  -6  11   7 3640.18 294.811   1
   5 -11   7 2696.08 161.926   1
  11  -5   7 2989.94 268.280   1
 -11   6   7 3290.72 234.686   1
  -6  11   7 3121.91 192.184   2
 -11   6   7 2878.66 286.524   3
   6   5   7 3333.41 294.007   1
  11  -5   7 2910.93 249.931   2
  11  -5   7 3117.94 238.423   3
   6   5   7 3359.73 190.336   2
   5 -11   7 3481.37 275.615   3
  -5  -6   7 3318.08 298.116   3
 -11   6   7 3053.60 247.493   4
   5 -11   7 3052.49 177.897   1
  11  -5   7 3372.16 200.437   4
 -11   6  10 1838.65 308.108   3
  11  -5  10 1377.93 217.656   2
   5 -11  10 1424.30 217.438   4
  11  -5  10 1516.58 234.557   3
  11  -5  10 1417.73 236.685   1
   6   5  10 1223.36 248.378   3
   6   5  10 1342.93 171.172   2
  -6  11  10 1126.69 215.504   1
  -5  -6  10 1541.23 281.376   3
  -6  11  10 1202.72 274.201   3
   5 -11  10 1554.78 262.908   3
 -11   6  10 946.807 185.735   1
   6   5  10 1113.68 243.461   1
  11  -4  -9 1459.71 216.501   4
  11  -4  -6 343.385 149.136   4
  11  -4  -6 216.801 95.7139   1
  11  -4  -6 270.716 158.189   2
   4 -11  -6 273.610 68.4737   4
   7   4  -3 3431.21 282.062   2
  -7  11  -3 3884.83 192.325   3
   4 -11  -3 3971.73 256.210   1
 -11   7  -3 3719.71 229.290   2
  -4  -7  -3 3143.56 233.182   1
  11  -4  -3 3730.21 205.359   1
  -4  -7  -3 3581.92 190.587   4
   4 -11  -3 3701.72 197.018   4
   7   4  -3 3638.76 226.053   3
   7   4  -3 3778.93 143.018   1
   4 -11  -3 3130.75 100.447   2
   7   4  -3 3807.90 277.396   4
 -11   7  -3 3667.15 226.707   4
  -4  -7  -3 3459.60 117.645   2
  11  -4  -3 3960.36 269.637   4
  11  -4  -3 3062.82 245.681   2
 -11   7   0 2227.06 178.524   2
  -4  -7   0 2131.62 168.164   3
   4 -11   0 1809.52 167.594   3
  -4  -7   0 1697.74 149.717   1
 -11   7   0 2133.91 189.641   4
  11  -4   0 1948.80 93.4145   3
   7   4   0 1954.62 159.159   1
  11  -4   0 1844.30 178.565   2
  11  -4   0 2250.84 203.947   4
   7   4   0 1956.52 190.401   4
 -11   7   0 1745.03 78.9957   3
   7   4   0 2098.76 146.992   3
  -7  11   0 2244.15 184.521   1
  11  -4   0 1711.90 169.209   1
 -11   7   0 1941.41 194.990   1
  -4  -7   0 1955.29 195.621   4
   4 -11   0 2040.75 158.839   1
   7   4   0 2118.86 182.553   2
  -4  -7   0 2189.98 166.879   2
  -7  11   0 1895.29 143.618   3
  -4  -7   3 113.982 127.564   2
   7   4   3 257.945 112.634   3
 -11   7   3 265.214 117.948   1
  11  -4   3 122.554 98.9713   2
 -11   7   3 137.952 104.733   2
 -11   7   3 110.960 106.285   4
  -7  11   3 133.597 114.481   1
  -7  11   3 164.747 63.4224   2
  -4  -7   3-15.5993 121.667   4
  -7  11   3 202.992 105.586   4
   7   4   3 162.910 94.8901   4
  -4  -7   3 315.206 130.975   3
   4 -11   3 157.051 74.3256   1
 -11   7   3 275.375 107.754   3
   7   4   3 191.289 79.5528   2
  11  -4   3 178.263 99.2510   4
   7   4   3 102.067 124.018   1
   4 -11   3 198.688 101.079   3
  -7  11   6 289.210 94.2106   2
  11  -4   6 296.931 94.0084   4
  11  -4   6 195.548 112.253   3
   4 -11   6 269.880 64.2847   1
  -7  11   6 371.609 103.822   4
 -11   7   6 115.988 112.085   4
  11  -4   6 175.575 99.7500   2
 -11   7   6 424.996 169.038   3
  -7  11   6 8.47407 128.451   1
 -11   7   6 211.921 108.916   1
   4 -11   6 404.315 137.546   3
  -4  -7   6 256.278 137.147   3
   7   4   6 206.182 85.4089   2
   7   4   6 14.4581 138.438   1
  11  -4   6 391.517 133.338   1
 -11   7   9 1560.77 208.347   1
  11  -4   9 1626.89 217.047   3
  11  -4   9 2088.43 266.615   1
  11  -4   9 1356.91 210.354   2
 -11   7   9 1561.49 286.918   3
  -4  -7   9 1762.50 274.326   3
   7   4   9 1638.07 178.566   2
   4 -11   9 1389.98 238.535   3
   7   4   9 1802.29 265.319   1
  11  -4   9 1078.92 88.8121   4
   4 -11   9 1645.98 129.347   1
  -7  11   9 1736.82 254.407   1
  11  -3  -7 831.105 186.868   4
  11  -3  -7 695.916 120.148   1
  -3  -8  -4 961.596 98.3394   4
  11  -3  -4 806.162 194.413   2
  -8  11  -4 887.678 125.877   3
   3 -11  -4 922.920 111.795   4
   8   3  -4 943.684 78.9633   1
  11  -3  -4 841.165 166.383   4
   8   3  -4 891.682 210.332   2
   3 -11  -4 739.629 154.040   1
   8   3  -4 1062.25 180.647   4
   8   3  -4 789.492 149.104   3
  11  -3  -4 973.784 122.981   1
   3 -11  -1 1667.64 178.874   3
 -11   8  -1 1450.76 153.796   2
   3 -11  -1 1918.02 116.590   2
  -3  -8  -1 1836.46 174.049   3
  11  -3  -1 1421.60 185.598   4
  11  -3  -1 1570.06 176.864   2
  -3  -8  -1 1935.39 175.642   4
  11  -3  -1 1939.97 176.527   1
  11  -3  -1 2049.89 130.766   3
   8   3  -1 2192.23 220.237   4
 -11   8  -1 1678.85 181.743   4
  -8  11  -1 1720.21 162.726   1
  -3  -8  -1 1683.41 124.878   2
   8   3  -1 2137.40 151.916   3
   3 -11  -1 1652.55 167.176   1
   8   3  -1 1790.11 197.307   2
  -3  -8  -1 1899.97 172.013   1
  -8  11  -1 1777.71 122.944   3
   8   3   2 3679.27 193.487   2
  11  -3   2 3211.21 210.574   4
  -8  11   2 3474.03 170.336   2
   3 -11   2 3312.33 162.314   1
   8   3   2 3761.67 219.161   4
  11  -3   2 3485.81 218.431   2
 -11   8   2 3464.64 208.705   2
  -3  -8   2 3475.69 245.102   2
  -8  11   2 3442.11 225.637   4
   8   3   2 3559.61 240.499   1
   3 -11   2 3704.17 210.100   3
  -3  -8   2 2839.83 203.778   3
 -11   8   2 3584.53 233.851   4
 -11   8   2 3352.61 233.107   1
  -8  11   2 3368.51 231.875   1
  -3  -8   2 3511.42 259.190   4
  11  -3   2 3345.70 117.528   3
   8   3   2 3321.17 184.063   3
   8   3   5 417.105 75.5822   4
  -8  11   5 665.614 158.563   1
  11  -3   5 516.208 107.080   4
   3 -11   5 433.799 62.4277   1
  -8  11   5 423.123 107.748   4
 -11   8   5 503.299 128.246   4
 -11   8   5 405.462 127.737   1
   3 -11   5 534.836 127.212   3
 -11   8   5 141.357 129.128   3
   8   3   5 660.802 176.074   1
  -8  11   5 520.531 104.904   2
  11  -3   5 400.440 112.923   2
   8   3   5 432.308 100.128   2
  -3  -8   5 402.035 131.227   3
 -11   8   5 394.814 137.583   2
  -8  11   8 1025.10 196.332   1
   3 -11   8 855.570 75.6115   1
  11  -3   8 1302.27 217.554   1
  11  -3   8 1040.82 98.7033   4
  -8  11   8 810.989 122.574   4
  -3  -8   8 803.434 205.695   3
  11  -3   8 860.111 165.591   2
  -8  11   8 973.172 157.130   2
   3 -11   8 731.885 73.4046   1
   8   3   8 844.539 136.980   2
   3 -11   8 983.969 196.161   3
   8   3   8 836.069 212.117   1
  11  -3   8 911.247 175.879   3
 -11   8   8 1067.35 236.226   3
 -11   8   8 823.874 166.673   1
 -11   8   8 718.384 155.942   4
  -8  11  11 242.809 210.800   3
  11  -3  11 559.574 204.366   3
 -11   8  11 515.968 188.230   1
  11  -3  11 336.488 170.868   2
   8   3  11 428.196 159.921   2
  -3  -8  11 548.107 235.627   3
   8   3  11 919.118 243.895   3
   3 -11  11 777.557 236.934   3
  11  -3  11 482.838 197.961   1
 -11   8  11 87.7200 216.511   3
  -8  11  11 218.354 182.917   1
   8   3  11 524.777 214.633   1
  11  -2  -8 949.041 135.148   1
  11  -2  -8 869.105 195.932   4
   9   2  -5 4139.02 330.828   2
  -2  -9  -5 4170.04 144.991   4
  -2  -9  -5 3923.58 148.437   4
  11  -2  -5 3979.85 303.820   4
   2 -11  -5 4265.94 169.930   4
  -9  11  -5 4159.43 243.070   3
   9   2  -5 4844.88 337.470   4
   9   2  -5 4174.66 147.995   1
  11  -2  -5 4351.25 214.394   1
  11  -2  -5 4452.24 333.143   2
  11  -2  -2 2181.20 170.374   1
  -2  -9  -2 2400.69 104.528   2
 -11   9  -2 2142.85 91.3596   3
   2 -11  -2 2188.24 191.410   1
  11  -2  -2 2389.29 222.424   4
  -9  11  -2 2346.61 133.916   3
   9   2  -2 2439.74 234.526   2
  -9  11  -2 2276.16 189.678   1
  -2  -9  -2 2246.77 195.310   1
 -11   9  -2 2731.34 213.380   4
  11  -2  -2 2009.48 228.058   2
  11  -2  -2 2418.75 176.348   3
 -11   9  -2 2550.80 197.750   2
   9   2  -2 2323.22 177.325   3
  -2  -9  -2 2282.36 175.031   4
   2 -11  -2 2130.19 84.5689   2
   9   2  -2 2493.05 243.355   4
  -2  -9  -2 2209.00 207.982   3
 -11   9   1 5669.61 280.058   1
  -9  11   1 5821.57 243.790   3
  -2  -9   1 5911.13 220.256   1
   9   2   1 5745.49 284.077   4
  -2  -9   1 6006.88 307.414   4
   9   2   1 6081.83 267.267   2
  11  -2   1 5791.18 265.369   2
 -11   9   1 5400.71 285.863   4
   9   2   1 5941.09 215.190   3
 -11   9   1 5475.14 254.817   2
  11  -2   1 5298.51 271.263   4
  11  -2   1 5854.22 159.784   3
  -9  11   1 5297.76 271.003   4
  -2  -9   1 5739.74 282.569   2
   2 -11   1 5721.80 225.245   1
  -9  11   1 4513.79 252.859   1
  -9  11   1 5716.36 233.623   2
  -2  -9   1 5233.86 256.841   3
   2 -11   1 5907.50 258.757   3
   2 -11   4 3599.01 238.814   3
   9   2   4 3208.29 188.293   2
  11  -2   4 3427.93 204.235   4
 -11   9   4 3184.15 220.209   2
   9   2   4 3715.47 267.828   1
  -9  11   4 3635.60 260.378   1
  -2  -9   4 3772.92 256.249   3
  -2  -9   4 3379.23 276.968   4
 -11   9   4 3488.45 248.350   1
  -9  11   4 3275.51 182.210   2
 -11   9   4 3469.45 236.879   4
   9   2   4 3326.07 188.589   4
   2 -11   4 2917.27 120.011   1
  11  -2   4 3387.70 221.747   2
  -9  11   4 3237.41 217.094   4
   9   2   4 3338.23 220.505   3
  -9  11   7 2804.06 208.985   4
  -9  11   7 2376.40 200.928   2
  11  -2   7 2828.03 230.895   2
 -11   9   7 2761.70 292.793   3
  11  -2   7 2784.06 286.437   1
  11  -2   7 2500.15 144.286   4
   9   2   7 2571.55 204.741   2
  -9  11   7 2684.66 255.073   1
  11  -2   7 2768.16 239.829   3
   9   2   7 3085.84 289.199   1
 -11   9   7 2735.28 248.632   1
 -11   9   7 2223.53 212.488   4
   2 -11   7 3143.40 276.008   3
  -2  -9   7 2788.65 278.312   3
   9   2  10 624.227 175.665   2
   9   2  10 853.761 224.074   3
  11  -2  10 538.442 173.827   2
  11  -2  10 1245.97 245.146   1
  -9  11  10 854.138 221.206   1
 -11   9  10 680.518 189.582   1
  -9  11  10 112.808 202.585   3
 -11   9  10 687.083 241.992   3
  11  -2  10 1033.43 207.964   3
   9   2  10 621.445 207.220   1
  -2  -9  10 353.674 206.119   3
   2 -11  10 976.430 237.563   3
  10   1  -6 338.984 70.8401   1
   1 -11  -6 281.391 50.0390   4
  10   1  -6 498.239 186.842   4
  11  -1  -6 300.386 169.032   2
  11  -1  -6 353.930 163.666   4
  11  -1  -6 429.566 91.3202   1
   1 -11  -6 277.961 52.8482   4
  -1 -10  -3 3384.27 246.912   1
  11  -1  -3 3248.79 213.597   3
   1 -11  -3 3017.58 224.617   1
  11  -1  -3 2956.73 261.251   4
 -10  11  -3 3371.83 163.391   3
  10   1  -3 3053.32 220.968   3
  11  -1  -3 3213.86 188.109   1
  11  -1  -3 3407.03 286.951   2
  10   1  -3 3346.47 273.232   4
  10   1  -3 3115.80 273.218   2
 -11  10  -3 3327.90 148.677   3
  10   1  -3 3234.91 175.722   1
   1 -11   0 273.463 116.591   3
 -10  11   0 341.973 111.925   2
 -11  10   0 509.987 136.410   4
 -11  10   0 162.842 122.822   1
  -1 -10   0 367.626 125.458   3
 -10  11   0 363.702 82.3698   3
 -11  10   0 289.587 65.1814   3
  -1 -10   0 410.038 98.0770   1
 -10  11   0 512.471 140.060   4
  11  -1   0 433.058 129.848   4
  10   1   0 512.813 88.9416   3
  11  -1   0 371.331 76.7804   3
  -1 -10   0 487.003 109.910   2
 -10  11   0 560.294 137.241   1
  11  -1   0 341.842 131.186   2
  10   1   0 515.255 138.209   2
 -11  10   0 471.457 115.748   2
  10   1   0 335.840 153.500   4
   1 -11   0 452.033 109.379   1
 -10  11   3 3711.74 254.980   1
  10   1   3 3660.58 198.229   3
 -10  11   3 3371.42 229.560   4
   1 -11   3 3573.03 232.126   3
  -1 -10   3 3255.80 118.908   1
 -11  10   3 3643.26 211.504   2
   1 -11   3 3415.23 138.849   1
  11  -1   3 3465.85 210.419   4
  10   1   3 3872.62 222.288   4
  10   1   3 3906.83 214.656   2
 -11  10   3 3486.84 239.599   1
 -11  10   3 3837.97 243.557   4
  11  -1   3 3773.40 220.138   2
 -10  11   3 3410.71 190.022   2
  11  -1   3 3757.80 180.423   3
  -1 -10   3 3816.19 242.696   3
 -11  10   6 365.754 139.056   1
 -10  11   6 513.091 126.786   4
  11  -1   6 434.578 154.544   1
 -11  10   6 253.068 117.926   4
   1 -11   6 431.627 155.580   3
  11  -1   6 270.572 100.752   2
 -10  11   6 296.331 135.690   1
  10   1   6 502.423 120.447   2
  -1 -10   6 515.682 156.440   3
 -10  11   6 314.981 107.355   2
  11  -1   6 515.975 98.1156   4
 -11  10   6 368.497 122.998   2
  10   1   6 378.313 158.581   1
  10   1   6 276.825 70.1078   4
   1 -11   9 923.790 217.488   3
 -11  10   9 826.248 192.134   1
  11  -1   9 1313.70 212.636   3
  10   1   9 756.594 164.033   2
  11  -1   9 701.265 205.010   1
 -10  11   9 1207.74 223.266   1
  11  -1   9 1010.64 179.554   2
  10   1   9 1023.13 227.178   1
  10   1   9 972.547 201.962   3
 -10  11   9 515.265 201.345   3
 -11  10   9 1105.17 254.899   3
  -1 -10   9 548.538 199.062   3
  11   0  -7-11.4729 147.888   4
  11   0  -7 87.0310 69.7624   1
  11   0  -4 1599.61 184.118   3
  11   0  -4 1386.07 220.083   2
  11   0  -4 1850.81 141.554   1
 -11  11  -4 1847.94 146.164   3
  11   0  -4 1485.93 215.384   4
  11   0  -1 6.17756 76.4507   3
 -11  11  -1-90.2139 59.1049   3
  11   0  -1 27.3867 131.003   2
   0 -11  -1-54.2835 83.7848   2
   0 -11  -1 36.7880 120.312   3
 -11  11  -1 185.381 128.076   1
 -11  11  -1-75.6051 107.600   2
 -11  11  -1-41.7657 115.088   4
   0 -11  -1-23.1641 99.4782   1
  11   0  -1-52.1781 142.528   4
 -11  11   2 1137.74 164.151   1
 -11  11   2 1164.69 158.062   4
 -11  11   2 1192.72 139.572   2
  11   0   2 1389.78 159.484   2
  11   0   2 1455.89 166.780   4
   0 -11   2 1425.73 112.447   1
   0 -11   2 1375.83 160.240   3
  11   0   2 1248.58 110.018   3
 -11  11   5-94.8636 124.057   1
 -11  11   5 28.7038 114.858   4
  11   0   5 42.7673 84.4177   4
  11   0   5-16.0101 139.961   1
 -11  11   5 74.1021 100.289   2
   0 -11   5-156.257 127.808   3
  11   0   5 50.9906 103.298   3
  11   0   5-110.691 88.6412   2
 -11  11   8 250.876 154.317   1
  11   0   8 303.234 135.981   2
 -11  11   8 577.242 204.869   3
 -11  11   8 66.4131 117.902   4
   0 -11   8 302.704 171.236   3
  11   0   8 481.349 176.128   1
   0 -11  11-135.946 192.303   3
 -11  11  11-29.9651 221.745   3
 -11  11  11 245.726 200.317   1
  11   0  11-194.741 178.090   3
  11   0  11 128.143 194.960   1
  11   0  11 34.3495 143.588   2
  12 -12  -9 115.160 118.054   4
  12 -12  -6 1140.20 185.386   2
  12 -12  -6 1472.76 193.885   4
 -12   0  -6 1623.77 134.755   4
   0  12  -3 52.5661 60.4889   1
 -12   0  -3 44.1126 91.2011   4
  12 -12  -3 31.4069 99.4928   2
  12 -12  -3 151.600 121.054   4
   0  12  -3-13.5835 96.7673   3
  12 -12  -3 173.071 112.067   1
 -12   0  -3-45.4530 90.9849   2
 -12   0   0 207.350 114.664   2
   0  12   0 209.581 105.999   3
 -12   0   0 364.056 140.939   4
   0  12   0 301.395 113.504   1
  12 -12   0 142.439 110.238   2
  12 -12   0 151.191 111.601   1
  12 -12   0 204.603 133.552   4
 -12   0   0 203.752 80.9738   3
 -12   0   3-181.923 145.852   4
  12 -12   3 85.5079 62.4346   3
  12 -12   3 44.6630 113.052   4
  12 -12   3-112.534 126.325   2
   0  12   3-77.4817 115.220   1
  12 -12   3-25.9235 113.249   1
 -12   0   3-68.9589 100.014   3
   0  12   6 1972.59 247.860   1
 -12   0   6 2228.16 259.175   3
  12 -12   6 2600.06 236.877   4
  12 -12   6 2274.86 183.121   3
  12 -12   6 1897.45 238.725   2
   0  12   9 40.2727 165.310   1
  12 -12   9-13.1878 157.952   2
 -12   0   9 219.579 190.872   3
  12 -12   9 38.5369 128.488   4
  12 -12   9-125.038 139.508   3
  12 -12   9 106.817 131.789   1
  12 -11 -10 424.900 133.207   4
  12 -11  -7 2242.24 217.254   4
  11 -12  -7 2293.35 208.300   4
  12 -11  -7 2441.34 251.828   2
 -11  -1  -4 1372.16 135.907   4
 -12   1  -4 1303.57 153.348   2
  -1  12  -4 1095.58 83.6811   1
  11 -12  -4 1161.66 162.218   4
 -12   1  -4 1449.20 146.420   4
  12 -11  -4 1265.92 172.820   2
 -11  -1  -4 1319.98 142.659   2
  11 -12  -4 1204.47 153.261   2
  12 -11  -4 1350.57 174.830   4
  12 -11  -4 1266.77 177.948   1
 -11  -1  -1 11349.4 311.654   3
  12 -11  -1 11888.4 412.535   4
  11 -12  -1 11395.1 407.470   1
  11 -12  -1 11707.5 354.207   2
 -11  -1  -1 12324.9 422.671   4
   1  11  -1 12269.3 379.550   3
  12 -11  -1 11429.1 366.499   2
 -12   1  -1 12273.6 391.572   2
 -11  -1  -1 11634.9 369.784   2
 -12   1  -1 12208.2 420.962   4
  -1  12  -1 11513.0 367.078   3
   1  11  -1 11029.5 314.373   1
  -1  12  -1 12056.6 338.052   1
 -12   1  -1 11835.5 281.734   3
  12 -11  -1 12328.5 415.730   1
  11 -12  -1 12023.5 420.581   4
  -1  12   2 2244.67 210.476   3
  12 -11   2 1973.61 196.320   1
  12 -11   2 2115.16 204.516   2
  -1  12   2 2138.00 208.902   1
  12 -11   2 2244.74 108.714   3
  11 -12   2 2331.85 223.045   4
  11 -12   2 2104.23 188.641   1
 -12   1   2 2500.47 228.475   4
  12 -11   2 2407.32 230.877   4
 -11  -1   2 2236.97 243.316   4
  11 -12   2 2197.78 199.477   2
 -12   1   2 2223.66 164.320   3
   1  11   2 2072.62 202.739   1
 -11  -1   2 2278.54 221.680   2
 -11  -1   2 2513.59 187.350   3
 -12   1   2 2069.40 208.685   2
   1  11   2 2415.52 212.933   3
  11 -12   2 2438.64 135.771   3
 -11  -1   5 3398.71 272.805   3
  11 -12   5 3395.25 244.885   1
  12 -11   5 3499.30 198.081   3
  11 -12   5 3366.83 276.228   2
  12 -11   5 3496.04 281.275   2
 -12   1   5 3728.53 272.288   3
  12 -11   5 3699.54 269.353   1
  -1  12   5 3959.87 297.291   1
  11 -12   5 3406.56 202.952   3
  12 -11   5 3216.81 246.913   4
   1  11   5 3542.39 278.491   1
  11 -12   5 3863.41 264.865   4
 -12   1   8 1387.15 236.560   3
   1  11   8 1167.32 238.021   1
  11 -12   8 1305.95 189.701   4
  -1  12   8 1257.43 238.330   1
 -12   1   8 1281.94 145.712   1
  11 -12   8 1156.74 178.068   1
  12 -11   8 1297.11 194.574   1
  12 -11   8 1323.77 229.959   2
  12 -11   8 1216.41 183.350   4
  11 -12   8 1357.33 194.817   3
 -11  -1   8 1413.89 242.487   3
  12 -11   8 1064.74 161.906   3
  11 -12   8 814.491 187.495   2
  12 -11  11 2245.75 283.652   3
 -11  -1  11 1633.01 288.139   3
  12 -11  11 2699.17 353.244   2
  12 -11  11 2256.00 266.347   1
  11 -12  11 2694.69 353.129   2
 -12   1  11 2495.58 360.533   3
  11 -12  11 2165.27 291.630   3
   1  11  11 2754.39 353.038   1
  -1  12  11 2590.28 342.763   1
  12 -10  -8 97.3428 127.196   4
  10 -12  -8 6.32241 101.855   4
 -12   2  -5 1467.71 140.949   4
  10 -12  -5 1703.95 181.232   4
 -10  -2  -5 1431.11 120.856   4
  10 -12  -5 1538.38 163.760   2
  12 -10  -5 1523.54 186.972   2
  12 -10  -5 1364.43 175.563   4
  -2  12  -2 628.084 99.7489   1
  12 -10  -2 833.494 143.888   1
 -10  -2  -2 685.405 108.461   2
 -10  -2  -2 524.524 115.453   3
 -12   2  -2 761.645 137.482   4
  -2  12  -2 765.101 128.654   3
  12 -10  -2 697.241 140.827   4
  10 -12  -2 681.139 144.170   4
 -12   2  -2 974.860 139.601   2
  10 -12  -2 410.145 119.360   1
   2  10  -2 495.191 81.2387   1
  10 -12  -2 526.025 107.021   2
 -10  -2  -2 732.161 135.259   4
  12 -10  -2 702.755 139.024   2
   2  10  -2 749.504 121.106   3
  10 -12   1 385.146 143.043   4
  10 -12   1 36.3893 73.0798   3
 -10  -2   1 521.750 138.395   3
  12 -10   1 180.375 115.083   1
  10 -12   1 292.408 117.635   2
 -12   2   1 203.549 127.630   4
 -12   2   1 180.399 109.352   2
  10 -12   1 114.200 111.345   1
 -10  -2   1 39.7102 126.576   4
  12 -10   1 155.530 110.863   2
  -2  12   1 295.947 130.431   1
  -2  12   1 11.6263 100.210   3
  12 -10   1 207.856 128.727   4
   2  10   1 135.345 100.191   3
 -10  -2   1 77.8364 122.495   2
   2  10   1 425.311 121.777   1
 -12   2   1 83.1427 71.0926   3
 -12   2   4 453.407 152.099   4
 -10  -2   4 392.270 133.884   3
  10 -12   4 437.578 138.479   4
  -2  12   4 518.593 177.104   1
  12 -10   4 345.516 121.190   4
  12 -10   4 553.949 89.1109   3
  10 -12   4 403.804 144.080   2
   2  10   4 405.998 150.588   1
  10 -12   4 557.897 134.513   1
 -12   2   4 373.900 126.427   3
  12 -10   4 451.572 136.686   1
  12 -10   4 460.658 147.697   2
  10 -12   4 397.527 99.7643   3
 -12   2   7 388.735 112.173   1
  -2  12   7 619.054 177.866   1
 -10  -2   7 936.720 208.900   3
   2  10   7 901.745 192.057   1
  12 -10   7 557.229 131.469   3
   2  10   7 342.479 41.2668   2
   2  10   7 317.972 45.0706   2
  10 -12   7 552.967 143.655   3
  10 -12   7 524.083 162.171   2
  12 -10   7 697.080 181.354   2
  12 -10   7 399.132 129.101   4
 -12   2   7 777.895 186.346   3
  10 -12   7 689.819 164.561   4
  10 -12   7 783.139 149.683   1
  12 -10  10 172.297 161.876   2
  -2  12  10 99.5074 203.432   1
  10 -12  10 203.290 155.572   3
  10 -12  10 16.6896 131.844   4
  12 -10  10-175.372 118.185   4
  12 -10  10 200.950 154.973   1
  10 -12  10 19.1202 131.026   1
 -12   2  10-21.7288 192.291   3
  12 -10  10 0.70099 151.268   3
 -10  -2  10 388.175 223.927   3
  10 -12  10-111.887 190.123   2
   2  10  10-157.374 179.426   1
  12  -9  -9 57.5065 125.918   4
   9 -12  -9 339.857 104.994   4
   9 -12  -6 1928.55 175.545   4
  12  -9  -6 2199.22 245.569   2
  12  -9  -6 1437.47 191.743   4
   9 -12  -6 1908.97 185.743   2
  -9  -3  -6 1679.65 92.2987   4
  -3  12  -3 1146.52 144.811   3
   3   9  -3 938.219 143.538   3
 -12   3  -3 811.668 124.238   4
 -12   3  -3 988.216 137.882   2
   3   9  -3 826.263 66.1586   1
  -9  -3  -3 1047.71 118.311   2
  -9  -3  -3 897.439 122.205   4
  12  -9  -3 1180.53 178.834   4
  12  -9  -3 950.702 163.837   2
   9 -12  -3 851.371 116.975   2
   9 -12  -3 1086.02 145.448   4
   9 -12  -3 1086.89 156.770   1
  12  -9  -3 957.920 147.117   1
  -3  12  -3 903.395 102.757   1
  12  -9   0 4217.89 243.065   2
 -12   3   0 4375.76 266.549   4
  12  -9   0 4250.01 263.321   4
   9 -12   0 3943.16 202.555   3
   9 -12   0 3909.98 229.404   1
 -12   3   0 3805.11 235.208   2
   3   9   0 4331.78 225.383   3
  -9  -3   0 4362.49 238.370   2
   9 -12   0 4223.41 265.405   4
   9 -12   0 3945.75 211.836   2
   3   9   0 4444.88 225.206   1
 -12   3   0 4318.60 148.191   3
  -9  -3   0 4289.40 270.647   4
  12  -9   0 3399.29 228.443   1
  -3  12   0 4399.76 230.721   1
  -9  -3   0 4271.49 209.191   3
  -3  12   0 3977.86 230.102   3
  -9  -3   3-33.0980 99.9014   3
  -9  -3   3-14.7402 130.538   2
  12  -9   3 287.765 123.181   2
   3   9   3 59.7578 39.2439   2
  -9  -3   3 78.1199 135.368   4
   3   9   3 59.4221 113.647   3
  -3  12   3 103.529 116.746   3
   9 -12   3 58.8411 94.5525   1
 -12   3   3 84.9499 126.859   4
  12  -9   3 135.099 124.795   1
 -12   3   3 142.797 134.094   2
   9 -12   3 38.3888 78.7822   3
   9 -12   3 13.7873 111.947   2
   3   9   3 50.8799 125.807   1
 -12   3   3-38.4756 101.311   3
   9 -12   3 154.089 136.504   4
  12  -9   3 4.57186 45.3385   3
  12  -9   3 60.2907 104.346   4
  -3  12   3-1.85595 122.199   1
   3   9   6 1262.47 200.037   1
 -12   3   6 1275.90 159.314   1
   9 -12   6 1197.40 181.237   4
   9 -12   6 1240.17 153.301   1
  12  -9   6 1216.44 164.263   4
   9 -12   6 1237.22 164.127   3
  12  -9   6 888.591 132.041   3
 -12   3   6 1277.88 204.167   3
   9 -12   6 901.702 182.431   2
   3   9   6 930.605 64.4871   2
   3   9   6 822.011 70.6627   2
  -9  -3   6 1202.06 195.951   3
  12  -9   6 973.024 174.317   2
  -3  12   6 1081.77 182.769   1
   3   9   9-174.495 190.059   1
  12  -9   9 293.055 149.046   1
   9 -12   9 267.843 147.906   4
 -12   3   9 212.052 192.642   3
  -3  12   9 158.894 64.5040   2
  -3  12   9 225.468 175.065   1
  12  -9   9 135.053 123.724   4
   3   9   9 14.2776 68.4138   2
  12  -9   9-159.124 131.648   3
  -9  -3   9 289.539 184.669   3
   9 -12   9 384.840 136.424   1
  12  -9   9-39.2931 148.061   2
   9 -12   9 133.297 139.690   3
 -12   3   9 16.4143 113.759   1
   9 -12   9 35.7728 164.324   2
  12  -8 -10 246.028 131.471   4
  12  -8  -7 2146.62 259.861   2
  12  -8  -7 2412.42 238.248   4
   8 -12  -7 2135.67 171.972   4
 -12   4  -4 2062.68 166.350   4
  -4  12  -4 1702.41 177.982   3
 -12   4  -4 1848.45 185.856   2
   8 -12  -4 1728.97 160.485   4
  12  -8  -4 1862.88 202.342   2
  12  -8  -4 1957.66 205.934   4
  -8  -4  -4 1752.56 132.955   2
   8 -12  -4 1870.39 145.467   2
  -8  -4  -4 1975.19 138.759   4
  12  -8  -4 1886.81 186.458   1
   8 -12  -1 9269.15 273.391   2
  12  -8  -1 9943.81 358.389   1
  12  -8  -1 9774.97 349.499   2
 -12   4  -1 9622.50 351.055   4
   4   8  -1 9973.02 283.740   1
  -8  -4  -1 9691.92 304.988   2
   8 -12  -1 9703.14 354.853   4
  12  -8  -1 9565.11 372.673   4
 -12   4  -1 9175.79 338.147   2
 -12   4  -1 8997.38 163.721   3
  -8  -4  -1 9454.24 313.745   3
   8 -12  -1 9802.33 358.202   1
  -4  12  -1 9704.37 307.966   1
  -8  -4  -1 9515.85 360.424   4
  -4  12  -1 9559.46 311.535   3
   4   8  -1 9630.43 321.704   3
 -12   4   2 644.496 149.892   4
  -8  -4   2 558.091 154.478   4
 -12   4   2 283.144 114.821   2
   8 -12   2 608.336 105.530   3
   4   8   2 499.106 89.4013   2
   4   8   2 594.527 137.465   1
  12  -8   2 465.451 136.560   2
   4   8   2 605.826 135.090   3
  -4  12   2 584.249 134.496   3
   8 -12   2 623.726 117.694   1
  -4  12   2 726.394 142.354   1
  12  -8   2 589.814 132.589   4
  12  -8   2 523.930 137.808   1
  -8  -4   2 572.863 135.947   2
   8 -12   2 369.910 135.830   4
 -12   4   2 724.122 109.475   3
   8 -12   2 698.097 136.970   2
  -8  -4   2 725.477 119.189   3
  12  -8   5 7103.76 359.985   2
   8 -12   5 6761.81 355.794   4
  12  -8   5 7304.55 321.817   4
   4   8   5 5988.98 161.021   2
 -12   4   5 6800.25 360.471   4
   4   8   5 7428.59 393.333   1
  -4  12   5 7283.88 371.016   1
  -8  -4   5 7379.02 368.215   3
   8 -12   5 7210.28 314.768   3
  12  -8   5 7417.14 270.911   3
   8 -12   5 6652.14 284.508   1
 -12   4   5 6952.39 353.706   3
 -12   4   5 7354.89 313.620   1
 -12   4   8 233.685 114.200   1
   4   8   8 180.736 97.2838   2
   4   8   8 182.915 80.0050   2
   8 -12   8 370.836 141.436   3
   8 -12   8 286.069 122.183   1
  -8  -4   8 390.811 169.620   3
  12  -8   8 293.381 116.544   4
  12  -8   8 227.470 125.801   1
  12  -8   8 229.693 159.062   2
  12  -8   8 299.710 132.511   3
   8 -12   8 302.115 118.887   1
 -12   4   8 51.9815 164.123   3
  -4  12   8 217.289 73.3257   2
   8 -12   8 294.964 141.357   4
   4   8   8 191.665 162.060   1
  -4  12   8 136.620 164.665   1
   4   8  11 1983.03 317.419   1
  12  -8  11 1373.45 254.206   2
   4   8  11 1526.81 326.342   3
   8 -12  11 1864.82 320.033   2
   8 -12  11 1349.65 255.653   3
  12  -8  11 1603.20 239.728   3
  12  -8  11 1425.39 242.119   1
  -4  12  11 1659.75 345.947   3
  -8  -4  11 1741.70 326.593   3
 -12   4  11 1824.05 324.688   3
  -4  12  11 1646.47 282.869   1
   7 -12  -8 317.395 86.1994   4
  12  -7  -8 434.518 160.120   4
  12  -7  -5 3729.31 288.086   2
 -12   5  -5 3673.60 222.131   4
   7 -12  -5 3816.69 215.850   4
  12  -7  -5 3659.44 235.924   1
  -7  -5  -5 3327.67 137.914   4
  12  -7  -5 3252.97 251.801   4
   7 -12  -5 4049.70 191.483   2
  12  -7  -2 1143.63 148.819   1
  -7  -5  -2 1240.48 113.091   2
  -7  -5  -2 1441.06 159.934   3
  12  -7  -2 1287.08 181.060   4
  -5  12  -2 1183.53 134.202   3
 -12   5  -2 1066.89 151.833   2
   7 -12  -2 1144.83 103.328   2
 -12   5  -2 1185.48 144.191   4
   7 -12  -2 1096.49 150.355   4
   7 -12  -2 1130.57 162.688   1
  -5  12  -2 1090.84 125.203   1
  12  -7  -2 1193.60 166.255   2
   5   7  -2 1220.50 102.879   1
   5   7  -2 1202.87 145.385   3
  -7  -5  -2 1356.74 154.653   4
  -7  -5   1 1718.70 199.879   4
 -12   5   1 1504.95 176.187   4
   7 -12   1 1305.39 176.232   4
  12  -7   1 1380.30 166.747   4
  12  -7   1 1453.07 169.736   2
 -12   5   1 1400.30 169.202   2
  -5  12   1 1402.72 163.225   1
   7 -12   1 1687.32 158.953   2
   5   7   1 1572.82 152.466   3
   5   7   1 1538.22 153.497   2
  12  -7   1 1559.30 184.686   1
   5   7   1 1466.74 158.668   1
  -7  -5   1 1301.03 174.082   2
  -7  -5   1 1278.36 145.536   3
 -12   5   1 1502.61 113.128   3
   7 -12   1 1682.97 153.242   1
   7 -12   1 1427.06 145.235   3
  -5  12   1 1513.94 161.603   3
  12  -7   4 1280.23 156.818   4
   5   7   4 933.597 161.611   3
 -12   5   4 1268.52 164.231   1
  -5  12   4 910.577 62.0624   2
  12  -7   4 1144.75 168.150   2
   7 -12   4 1178.67 145.899   3
  -7  -5   4 1030.87 192.094   4
 -12   5   4 1064.60 180.882   2
   7 -12   4 1215.81 134.163   1
  -7  -5   4 1093.50 167.217   3
   5   7   4 1029.07 162.549   1
  12  -7   4 1203.46 106.740   3
 -12   5   4 849.202 158.279   4
  -5  12   4 1129.77 183.550   1
 -12   5   4 939.209 167.285   3
   5   7   4 911.176 79.1726   2
   7 -12   7 2836.35 192.941   1
  12  -7   7 3207.89 218.139   4
  12  -7   7 3063.80 261.847   2
   5   7   7 2902.23 158.492   2
   5   7   7 2986.23 290.966   1
  -5  12   7 2800.56 146.649   2
 -12   5   7 2735.14 220.414   1
  12  -7   7 3325.73 238.335   3
   7 -12   7 2883.02 252.630   3
  -7  -5   7 2760.80 294.544   3
  12  -7   7 2879.33 256.140   1
  -5  12   7 3175.52 275.768   1
 -12   5   7 2910.22 293.447   3
   7 -12  10 131.410 163.083   4
  12  -7  10 43.8685 123.369   3
  -5  12  10 142.320 163.350   1
  -7  -5  10 102.564 199.840   3
 -12   5  10 20.9067 121.575   1
  12  -7  10 361.997 176.734   1
   5   7  10-185.870 190.466   1
  12  -7  10 127.555 154.440   2
   7 -12  10-2.34187 98.2621   1
 -12   5  10 209.004 211.493   3
   7 -12  10-47.9742 168.464   3
   5   7  10 148.978 106.498   2
  12  -6  -9 365.843 156.308   4
   6 -12  -6 1853.92 147.050   4
  12  -6  -6 1786.97 217.337   4
  12  -6  -6 1685.19 176.603   1
  12  -6  -6 1867.32 250.270   2
   6   6  -3 776.395 134.548   3
  12  -6  -3 983.271 140.167   1
   6   6  -3 758.063 68.5060   1
 -12   6  -3 936.857 138.866   2
   6 -12  -3 873.999 129.315   4
  -6  -6  -3 969.001 125.247   4
   6 -12  -3 933.044 90.9101   2
  -6  12  -3 933.114 127.070   1
  -6  12  -3 981.296 124.625   3
   6 -12  -3 912.299 153.625   1
  12  -6  -3 911.705 174.666   4
  -6  -6  -3 844.694 87.9029   2
  12  -6  -3 742.339 165.414   2
 -12   6  -3 985.793 141.710   4
   6 -12   0 2347.03 179.953   3
   6   6   0 2177.65 173.112   1
  -6  12   0 2170.02 187.956   1
  12  -6   0 2101.31 191.796   2
 -12   6   0 1707.93 167.276   2
   6 -12   0 2014.17 190.905   4
  -6  -6   0 1907.07 168.010   2
   6   6   0 2231.90 198.949   2
  -6  -6   0 2043.48 205.287   4
   6 -12   0 1974.82 151.446   2
   6 -12   0 1937.79 170.549   1
  -6  -6   0 2132.05 168.480   3
  12  -6   0 1966.89 191.280   1
   6   6   0 1906.89 153.285   3
   6   6   0 2113.15 213.731   4
 -12   6   0 2018.07 201.306   4
 -12   6   0 1826.18 80.0816   3
  12  -6   0 1999.75 195.260   4
  -6  12   0 2039.85 166.178   3
   6 -12   3 799.178 123.119   3
  12  -6   3 772.530 135.245   4
 -12   6   3 787.139 153.392   1
  -6  12   3 852.010 78.4278   2
   6   6   3 707.569 131.367   3
  -6  12   3 647.349 152.466   3
  -6  12   3 1078.60 162.470   1
  -6  -6   3 884.547 172.645   4
   6   6   3 747.419 146.812   1
 -12   6   3 998.752 163.247   2
  12  -6   3 804.045 72.3882   3
 -12   6   3 706.671 162.733   4
   6 -12   3 868.062 112.104   1
  -6  -6   3 628.793 162.012   2
   6   6   3 850.460 95.5887   2
  12  -6   3 1031.28 158.564   2
 -12   6   3 854.069 143.823   3
  -6  -6   3 845.879 145.971   3
  12  -6   6 2059.25 222.161   2
  12  -6   6 2118.06 177.452   4
 -12   6   6 2066.99 219.533   4
   6   6   6 1830.49 225.672   1
 -12   6   6 1987.38 190.222   1
   6 -12   6 1954.46 206.685   3
   6 -12   6 1847.00 143.684   1
   6   6   6 2035.01 139.224   2
 -12   6   6 1827.75 239.901   3
  12  -6   6 1807.07 166.409   3
  -6  12   6 2181.32 233.769   1
  -6  -6   6 1756.37 216.406   3
  -6  12   6 1904.86 123.737   2
  12  -6   9 336.232 92.4960   4
   6 -12   9 588.879 169.769   4
  12  -6   9 274.647 152.883   2
   6   6   9 87.1693 179.003   1
   6   6   9 257.510 111.461   2
  -6  12   9 726.531 205.959   1
  12  -6   9 266.928 130.158   3
   6 -12   9 263.055 151.254   3
   6 -12   9 215.351 88.9389   1
 -12   6   9 433.094 154.294   1
 -12   6   9 874.266 237.021   3
  -6  -6   9 72.8962 167.489   3
  12  -6   9 312.588 145.596   1
  12  -5  -7 3052.78 221.735   1
   5 -12  -7 2567.49 138.551   4
  12  -5  -7 3141.45 285.960   4
  12  -5  -4 1186.31 193.927   2
   5 -12  -4 986.870 72.7927   2
  12  -5  -4 1048.78 135.088   1
 -12   7  -4 1224.20 153.663   4
   5 -12  -4 1007.04 119.572   4
   7   5  -4 835.314 53.1814   1
  -5  -7  -4 1041.16 109.726   4
  -7  12  -4 1094.13 129.204   3
   7   5  -4 878.477 56.8950   1
  12  -5  -4 1262.18 187.014   4
   7   5  -4 978.601 190.070   4
   5 -12  -1 1794.62 175.446   4
 -12   7  -1 2122.16 181.770   2
 -12   7  -1 2258.53 200.585   4
  -5  -7  -1 1868.38 175.116   3
  12  -5  -1 2019.21 208.831   4
  12  -5  -1 2113.59 188.664   1
   7   5  -1 1963.73 220.620   4
  -7  12  -1 1828.85 142.899   3
  -5  -7  -1 1875.34 137.562   2
   7   5  -1 2074.93 209.662   2
  -7  12  -1 2006.80 177.381   1
  -5  -7  -1 2191.48 197.607   4
   5 -12  -1 2012.87 175.751   1
   5 -12  -1 2104.62 131.826   2
   7   5  -1 1830.80 153.852   3
   7   5  -1 1964.50 144.891   1
  12  -5  -1 2056.31 192.852   2
   5 -12  -1 1801.17 181.307   3
  -5  -7  -1 1953.53 170.935   1
  -7  12   2 1615.99 170.639   3
  12  -5   2 1650.42 172.542   2
  -5  -7   2 1332.37 187.293   4
  -7  12   2 1413.38 175.657   1
   7   5   2 1320.05 126.922   2
   5 -12   2 1395.46 131.250   1
  -7  12   2 1201.58 105.074   2
 -12   7   2 1481.34 138.276   3
  12  -5   2 1487.76 168.838   4
   7   5   2 1520.44 177.519   1
  -5  -7   2 1396.42 196.994   2
   5 -12   2 1340.40 138.611   3
   7   5   2 1333.31 156.840   4
 -12   7   2 1186.76 163.464   1
 -12   7   2 1315.40 158.189   2
   7   5   2 1384.30 142.678   3
  -5  -7   2 1369.44 162.777   3
 -12   7   2 1411.19 176.142   4
  12  -5   5 3361.66 213.526   4
   5 -12   5 3580.34 242.004   3
  12  -5   5 3348.27 241.657   2
 -12   7   5 3605.78 259.828   4
   5 -12   5 3494.49 173.570   1
  12  -5   5 3438.14 196.501   3
   7   5   5 3691.40 291.373   1
   7   5   5 3431.73 172.939   2
  -7  12   5 3489.04 269.331   1
 -12   7   5 3463.74 271.557   2
 -12   7   5 3503.56 271.215   3
  -7  12   5 3306.59 155.419   2
 -12   7   5 3943.91 256.180   1
  -5  -7   5 3855.00 279.030   3
   7   5   8 212.580 105.457   2
 -12   7   8 256.273 131.739   1
  12  -5   8 534.051 152.241   2
  12  -5   8 597.641 112.843   4
  12  -5   8 281.675 146.071   1
   5 -12   8 73.7752 136.850   3
   5 -12   8 226.013 82.3918   1
 -12   7   8 437.529 197.474   3
  12  -5   8 296.911 121.377   3
   5 -12   8 244.092 78.0151   1
  -7  12   8 179.344 101.333   2
   7   5   8 312.639 164.419   1
  -7  12   8-50.3637 148.782   1
  -5  -7   8 202.802 161.009   3
   7   5  11 1588.18 290.608   3
   7   5  11 1217.89 265.568   1
  -7  12  11 1841.65 289.342   1
  -7  12  11 1223.35 293.010   3
  12  -5  11 1059.16 218.439   2
   5 -12  11 1569.91 276.799   3
  12  -5  11 1572.59 249.150   3
 -12   7  11 1483.79 303.834   3
  12  -5  11 1531.60 250.735   1
  -5  -7  11 508.668 243.916   3
 -12   7  11 1303.62 214.672   1
   5 -12  11 1201.78 219.299   4
  12  -4  -8 151.136 111.105   1
  12  -4  -8 241.956 153.841   4
   8   4  -5 7251.22 400.591   4
  12  -4  -5 7284.15 383.102   4
  12  -4  -5 7342.96 294.656   1
  -4  -8  -5 6973.22 187.546   4
   4 -12  -5 7159.74 241.667   4
  -8  12  -5 6335.54 305.138   3
  12  -4  -5 6149.07 378.392   2
  -8  12  -2 737.020 140.320   1
   4 -12  -2 718.271 136.784   1
   4 -12  -2 626.292 65.1822   2
  12  -4  -2 407.672 144.562   4
  12  -4  -2 458.145 152.245   2
  -4  -8  -2 682.605 136.172   1
   8   4  -2 757.821 177.140   2
  12  -4  -2 738.315 118.392   3
 -12   8  -2 695.745 137.595   4
  12  -4  -2 714.337 120.903   1
   4 -12  -2 702.290 133.664   4
  -4  -8  -2 742.379 133.234   4
 -12   8  -2 615.214 129.940   2
  -4  -8  -2 529.777 143.194   3
   8   4  -2 642.600 177.289   4
  -8  12  -2 802.833 105.885   3
   8   4  -2 702.782 123.682   3
  -4  -8  -2 654.046 81.6125   2
  -8  12   1 9003.14 315.251   3
  -4  -8   1 9397.39 367.046   2
 -12   8   1 9191.76 366.607   4
  12  -4   1 9369.05 357.948   4
   8   4   1 9110.38 285.201   3
 -12   8   1 9501.42 376.547   1
  -4  -8   1 8927.05 322.069   3
   8   4   1 9069.24 332.397   1
  -8  12   1 8748.61 273.112   2
  -4  -8   1 9188.55 274.270   1
  12  -4   1 8196.33 143.500   3
  -8  12   1 9093.45 349.046   1
   8   4   1 9175.04 351.646   4
 -12   8   1 8816.96 236.136   3
   4 -12   1 9469.52 299.822   1
   8   4   1 9264.18 317.493   2
  -4  -8   1 9333.07 389.754   4
  12  -4   1 8928.83 349.598   2
 -12   8   1 8756.52 330.265   2
   4 -12   1 8831.21 309.069   3
  -8  12   4 2071.14 132.052   2
  -4  -8   4 2072.09 204.709   3
   8   4   4 1971.88 147.106   4
  -8  12   4 2053.90 216.517   1
   8   4   4 2150.04 194.774   3
   4 -12   4 2091.92 128.183   1
   4 -12   4 2117.38 197.185   3
   8   4   4 2147.03 223.074   1
  -8  12   4 2238.79 189.206   4
  -4  -8   4 1842.97 231.158   4
 -12   8   4 2071.76 205.200   4
  12  -4   4 2334.51 201.662   2
   8   4   4 1975.90 142.934   2
 -12   8   4 1871.96 189.554   3
 -12   8   4 2269.77 207.259   1
 -12   8   4 2222.32 208.095   2
  12  -4   4 2002.61 175.865   4
   8   4   7 2470.76 188.007   2
  -4  -8   7 2229.54 248.439   3
   8   4   7 2307.15 271.964   1
   4 -12   7 2610.90 265.220   3
  12  -4   7 2466.01 262.286   1
  12  -4   7 2422.54 172.861   4
  -8  12   7 2268.45 185.045   4
  12  -4   7 2504.19 217.219   3
  -8  12   7 2589.98 264.103   1
   4 -12   7 2096.73 118.907   1
 -12   8   7 2392.19 224.279   1
 -12   8   7 2166.73 222.443   4
  12  -4   7 2554.49 240.604   2
  -8  12   7 2276.11 179.858   2
 -12   8   7 2309.15 273.316   3
   4 -12   7 2142.71 123.920   1
  -8  12  10 229.643 191.950   3
   8   4  10 380.922 135.343   2
   4 -12  10 678.268 208.610   3
  12  -4  10 504.354 154.483   2
  12  -4  10 338.007 183.255   1
 -12   8  10 257.660 155.096   1
   8   4  10 356.372 189.048   3
  -8  12  10 44.9482 177.563   1
 -12   8  10 239.906 202.928   3
  12  -4  10 375.805 152.603   3
  -4  -8  10 801.697 229.931   3
   8   4  10 344.874 191.170   1
  12  -3  -9-5.04204 153.015   4
   9   3  -6 799.999 60.0174   1
  12  -3  -6 1173.98 238.262   2
   3 -12  -6 998.207 91.1947   4
  12  -3  -6 1231.61 216.229   4
  12  -3  -6 1173.04 137.087   1
   9   3  -6 1149.01 211.846   4
   9   3  -3 107.516 102.705   3
  -3  -9  -3 80.1701 117.726   1
  12  -3  -3 86.3864 138.130   4
   9   3  -3-16.7533 67.3580   1
  12  -3  -3 129.398 143.509   2
 -12   9  -3 44.7776 118.308   2
  -3  -9  -3 42.2581 30.3247   2
  -3  -9  -3 160.804 103.490   4
   9   3  -3 84.0302 152.718   4
 -12   9  -3 187.676 117.681   4
  12  -3  -3-6.86156 100.958   3
  12  -3  -3 80.2956 95.0896   1
  -9  12  -3 20.8681 71.2269   3
   9   3  -3-47.9070 161.505   2
   3 -12  -3 66.1181 110.074   1
   3 -12  -3 171.544 100.851   4
   3 -12   0 3613.14 226.006   3
  -3  -9   0 3838.05 231.639   3
  -9  12   0 3932.34 259.456   4
   9   3   0 3774.80 238.543   2
  12  -3   0 4479.50 270.560   4
 -12   9   0 4076.31 235.193   2
  -9  12   0 4450.10 221.039   2
  -3  -9   0 4265.19 217.537   1
   9   3   0 4270.12 277.618   4
 -12   9   0 4696.53 276.478   1
 -12   9   0 4008.39 139.912   3
  12  -3   0 4253.92 245.024   2
  -3  -9   0 3751.35 217.373   2
  12  -3   0 4138.63 148.195   3
  -9  12   0 4172.48 249.234   1
   3 -12   0 4337.96 226.246   1
  -3  -9   0 3735.34 258.918   4
 -12   9   0 3914.50 250.996   4
   9   3   0 4071.73 192.747   3
  -9  12   0 3963.96 191.283   3
 -12   9   3 1385.93 160.946   2
  12  -3   3 1127.41 96.7333   3
  -9  12   3 925.156 161.612   1
   9   3   3 1057.71 139.216   3
  -3  -9   3 1129.56 205.272   2
 -12   9   3 1129.55 174.118   4
  12  -3   3 951.045 146.603   4
  -9  12   3 1346.74 157.992   4
   9   3   3 1264.01 152.941   4
  -3  -9   3 1169.19 173.467   3
  -9  12   3 918.811 107.232   2
   9   3   3 998.585 121.357   2
   9   3   3 1168.73 181.365   1
  12  -3   3 1216.39 156.793   2
 -12   9   3 1177.91 167.642   1
   3 -12   3 1071.95 104.579   1
   3 -12   3 963.239 151.033   3
  -3  -9   3 1060.13 198.702   4
 -12   9   6 1692.92 194.249   4
   3 -12   6 1542.64 85.8333   1
  -9  12   6 1853.02 222.021   1
  -9  12   6 1866.97 181.893   4
   3 -12   6 2060.96 221.931   3
  12  -3   6 1927.76 193.819   2
  -3  -9   6 2060.79 235.169   3
 -12   9   6 1776.09 205.274   1
  12  -3   6 1760.67 153.548   4
  -9  12   6 1829.72 161.549   2
 -12   9   6 1611.40 207.038   2
 -12   9   6 1610.99 213.389   3
  12  -3   6 1818.10 176.124   3
   3 -12   6 1390.68 85.6445   1
  12  -3   6 1858.98 230.000   1
   9   3   6 1674.94 224.225   1
   9   3   6 1962.50 170.565   2
   9   3   9 261.251 179.120   1
  -9  12   9 49.9914 178.993   3
  -9  12   9 367.128 192.571   1
   3 -12   9 333.696 189.470   3
 -12   9   9 178.170 197.704   3
  12  -3   9 271.222 132.030   2
 -12   9   9 115.048 151.331   1
   9   3   9 155.011 121.582   2
  12  -3   9 387.338 193.320   1
  12  -3   9 309.147 145.345   3
  -3  -9   9 288.998 201.377   3
  10   2  -7 336.868 56.4287   1
  12  -2  -7 297.457 100.860   1
  10   2  -7 733.047 203.635   4
  12  -2  -7 751.141 206.829   4
  12  -2  -4 268.850 146.290   4
  12  -2  -4 374.474 96.4942   1
  10   2  -4 380.744 177.493   2
  10   2  -4 453.264 83.9771   1
 -10  12  -4 419.540 99.8034   3
  -2 -10  -4 463.676 102.585   4
  12  -2  -4 790.898 188.298   2
   2 -12  -4 315.053 89.9340   4
  12  -2  -4 440.902 136.246   3
  10   2  -4 659.623 195.653   4
 -10  12  -1 254.737 80.0444   3
  10   2  -1 174.677 139.185   2
  -2 -10  -1 135.589 77.1635   2
  12  -2  -1 109.250 133.857   4
 -10  12  -1 83.3273 111.665   1
   2 -12  -1 230.603 110.162   1
  -2 -10  -1 218.384 140.889   3
   2 -12  -1 84.9961 120.815   3
 -12  10  -1 152.943 110.552   4
  10   2  -1 205.030 142.919   4
  10   2  -1 276.925 97.7879   3
 -10  12  -1 207.566 129.627   4
  -2 -10  -1 204.767 100.588   1
 -12  10  -1 409.764 154.139   1
 -10  12  -1 61.2811 98.0587   2
  12  -2  -1 37.0065 121.495   2
  12  -2  -1 203.303 86.4130   3
 -12  10  -1 181.966 112.081   2
  12  -2  -1 356.319 122.576   1
 -12  10  -1 165.004 40.9357   3
  -2 -10   2 669.984 142.751   3
  12  -2   2 601.081 76.0886   3
  10   2   2 670.549 142.073   4
  10   2   2 532.949 95.8186   3
  12  -2   2 657.111 142.134   2
  12  -2   2 338.203 123.801   4
 -12  10   2 676.123 172.410   1
 -10  12   2 462.256 138.621   1
  -2 -10   2 461.884 137.872   2
  10   2   2 559.757 119.735   2
 -10  12   2 631.854 147.539   4
 -12  10   2 604.108 135.984   4
   2 -12   2 732.216 135.915   3
 -10  12   2 512.819 99.7202   2
  -2 -10   2 539.711 83.6515   1
 -12  10   2 667.819 125.245   2
  -2 -10   2 531.136 155.881   4
   2 -12   2 642.057 94.3755   1
  12  -2   5 1561.99 172.099   2
 -10  12   5 1893.17 217.103   1
  10   2   5 1777.50 219.340   1
 -10  12   5 1853.82 160.145   2
  12  -2   5 2122.32 172.474   4
 -12  10   5 1743.79 181.016   2
 -10  12   5 1563.73 174.057   4
   2 -12   5 1386.11 75.9989   1
  -2 -10   5 1859.71 216.104   3
  10   2   5 1860.14 165.422   2
   2 -12   5 1637.06 191.654   3
  10   2   5 1684.85 142.609   4
 -12  10   5 1807.02 195.622   4
  10   2   5 1752.37 189.737   3
 -12  10   5 1805.16 209.693   1
 -10  12   8 21.9656 116.767   2
  10   2   8 197.676 162.759   1
 -10  12   8 169.517 120.072   4
   2 -12   8 36.6998 156.196   3
  12  -2   8-336.763 176.616   1
  12  -2   8 193.925 145.755   3
 -12  10   8 180.810 160.013   1
 -12  10   8-99.5311 160.063   3
 -10  12   8 36.1430 147.427   1
 -12  10   8-14.1339 129.036   4
  10   2   8 104.849 112.618   2
  12  -2   8-53.5413 57.0107   4
  12  -2   8-88.2920 123.384   2
  -2 -10   8-36.4135 146.059   3
  12  -2  11 980.660 201.593   2
 -12  10  11 1003.49 286.266   3
 -12  10  11 553.053 206.205   1
  12  -2  11 752.725 225.601   1
 -10  12  11 1238.04 261.234   1
  12  -2  11 923.478 220.486   3
  -2 -10  11 615.696 231.432   3
  10   2  11 709.214 185.059   2
  10   2  11 499.497 187.164   3
 -10  12  11 1124.86 319.574   3
  10   2  11 1410.47 287.770   1
   2 -12  11 1412.60 275.453   3
  12  -1  -8 1131.02 226.790   4
  12  -1  -8 1121.87 127.270   1
  11   1  -8 865.990 94.0313   1
  12  -1  -5 3684.36 308.234   4
  12  -1  -5 3590.66 194.888   1
  -1 -11  -5 3777.68 167.456   4
  12  -1  -5 3319.84 315.003   2
  11   1  -5 3647.04 335.718   2
   1 -12  -5 3729.08 173.767   4
 -11  12  -5 3604.32 223.206   3
  11   1  -5 3593.52 311.904   4
  -1 -11  -5 3801.96 178.335   4
  11   1  -5 3414.42 166.354   1
  11   1  -2 2453.25 180.398   3
  -1 -11  -2 2288.66 221.515   3
  12  -1  -2 2567.00 248.961   4
   1 -12  -2 2446.80 114.947   2
 -11  12  -2 2416.65 129.415   3
 -12  11  -2 2443.85 226.839   4
  -1 -11  -2 2435.84 204.511   1
  11   1  -2 2239.77 240.869   4
  12  -1  -2 2477.23 176.117   3
  12  -1  -2 2563.78 187.529   1
 -12  11  -2 2400.87 107.552   3
 -11  12  -2 2354.81 212.757   1
  11   1  -2 2406.76 172.262   1
  -1 -11  -2 2436.87 112.827   2
   1 -12  -2 2393.75 204.937   1
  11   1  -2 2685.78 250.979   2
 -12  11  -2 2080.69 203.321   2
   1 -12  -2 2284.41 221.858   3
  12  -1  -2 2543.29 244.216   2
 -11  12   1 11188.0 349.358   2
  -1 -11   1 11394.5 321.516   1
  12  -1   1 12048.8 262.647   3
  12  -1   1 11931.3 422.898   4
  11   1   1 12092.9 420.496   4
   1 -12   1 11669.5 331.194   1
 -11  12   1 11663.5 426.712   4
  -1 -11   1 11915.7 393.318   3
  11   1   1 11270.2 378.553   2
 -12  11   1 11600.1 369.936   2
 -11  12   1 11431.2 337.207   3
  12  -1   1 10787.7 382.541   2
 -11  12   1 12050.8 409.035   1
  11   1   1 11908.9 293.943   3
   1 -12   1 10483.3 365.528   3
 -12  11   1 11566.6 410.881   4
  -1 -11   1 11352.2 397.988   2
 -12  11   1 11305.1 410.020   1
 -12  11   4 1301.03 151.827   2
  11   1   4 1669.63 155.765   2
  12  -1   4 1488.22 143.316   3
 -11  12   4 1482.57 171.806   4
 -12  11   4 1443.59 189.335   1
 -12  11   4 1338.51 169.088   4
 -11  12   4 1659.89 208.308   1
  12  -1   4 1384.92 158.886   2
   1 -12   4 1399.71 179.302   3
  11   1   4 1595.50 224.869   1
  12  -1   4 1409.12 152.108   4
  -1 -11   4 1576.86 188.017   3
  11   1   4 1555.45 155.791   4
   1 -12   4 1361.90 85.6803   1
 -11  12   4 1455.73 155.614   2
  11   1   4 1470.12 160.242   3
   1 -12   7 2228.89 246.765   3
  11   1   7 1864.21 114.294   4
 -12  11   7 2449.36 260.416   1
  12  -1   7 2637.42 275.911   1
 -12  11   7 2489.00 228.204   4
  11   1   7 2533.59 288.647   1
 -11  12   7 2606.97 264.540   1
  12  -1   7 2499.79 221.355   2
  11   1   7 2302.74 202.425   2
  12  -1   7 2484.25 151.825   4
 -11  12   7 2341.57 215.378   4
 -12  11   7 2458.81 279.115   3
  -1 -11   7 2324.00 266.513   3
 -11  12   7 2192.65 209.149   2
 -11  12  10 1068.84 248.723   1
 -12  11  10 753.475 230.296   1
   1 -12  10 547.094 218.123   3
  12  -1  10 863.740 185.152   2
  11   1  10 826.845 199.007   3
 -11  12  10 790.963 242.837   3
  12  -1  10 1144.62 255.184   1
 -12  11  10 372.079 238.934   3
  11   1  10 370.187 203.033   1
  12  -1  10 451.021 161.918   3
  11   1  10 533.095 155.136   2
  -1 -11  10 1170.40 263.716   3
  12   0  -6 2580.14 314.449   2
   0 -12  -6 2289.35 115.256   4
  12   0  -6 2511.58 287.022   4
  12   0  -6 2385.66 154.184   1
   0 -12  -6 2279.73 126.460   4
  12   0  -3-42.2977 88.2856   1
  12   0  -3 331.592 176.467   2
 -12  12  -3-60.5605 64.3970   3
  12   0  -3 67.7743 106.408   3
  12   0  -3 209.816 152.268   4
 -12  12   0 234.276 118.935   2
   0 -12   0 67.6273 112.595   3
 -12  12   0 101.125 73.1966   3
   0 -12   0 125.337 101.600   2
 -12  12   0 105.176 123.375   4
  12   0   0 225.429 80.5399   3
  12   0   0 133.003 124.943   4
 -12  12   0 194.811 129.619   1
   0 -12   0 289.739 107.771   1
  12   0   0 93.9284 127.008   2
   0 -12   3 162.419 111.989   3
 -12  12   3 23.3304 115.098   4
  12   0   3 13.4227 73.5594   3
 -12  12   3-26.4796 116.841   1
 -12  12   3 140.876 89.5837   2
  12   0   3-25.9810 110.008   4
  12   0   3 101.708 104.215   2
   0 -12   3 16.4389 56.6339   1
  12   0   6 1195.55 129.734   4
  12   0   6 1175.14 214.723   1
 -12  12   6 1149.00 175.026   4
 -12  12   6 1082.25 188.831   1
  12   0   6 1347.50 160.310   2
 -12  12   6 1233.73 167.582   2
   0 -12   6 1639.73 217.202   3
 -12  12   9 224.705 206.624   3
  12   0   9 265.368 208.458   1
 -12  12   9-26.5232 180.808   1
   0 -12   9-122.027 180.559   3
  12   0   9-88.5217 127.949   2
  12   0   9-92.9664 142.876   3
  13 -13  -7 172.763 132.530   4
  13 -13  -7-97.9713 141.028   2
 -13   0  -4 4695.38 247.708   4
   0  13  -4 4770.31 162.337   1
  13 -13  -4 5241.34 309.338   4
  13 -13  -4 5534.11 301.426   2
 -13   0  -4 4864.68 267.821   2
   0  13  -1 63.0879 97.8676   3
 -13   0  -1-37.4607 101.644   2
  13 -13  -1 50.4524 110.926   1
 -13   0  -1 87.0068 83.4885   3
   0  13  -1 148.697 98.8526   1
 -13   0  -1-54.1747 115.317   4
  13 -13  -1-158.285 118.517   2
  13 -13  -1 128.520 137.003   4
  13 -13   2 13604.9 463.682   1
  13 -13   2 14270.4 467.869   2
 -13   0   2 13802.6 523.125   4
   0  13   2 13591.5 463.808   1
  13 -13   2 14524.2 497.523   4
 -13   0   2 14021.4 389.799   3
  13 -13   2 13745.5 287.959   3
   0  13   5-214.213 154.725   1
  13 -13   5 109.609 132.587   2
  13 -13   5 61.9673 134.325   4
 -13   0   5-1.43530 129.698   3
  13 -13   5 113.498 87.5850   3
 -13   0   8 5742.56 409.426   3
   0  13   8 5908.70 416.010   1
  13 -13   8 5377.47 321.699   3
  13 -13   8 5299.37 403.179   2
  13 -13   8 5922.33 356.313   4
  12 -13  -8-55.3014 114.478   4
  13 -12  -8-13.0172 127.110   4
  13 -12  -5 253.527 132.203   2
  12 -13  -5 167.090 121.583   2
 -12  -1  -5 322.856 111.151   2
  12 -13  -5 347.347 134.560   4
 -13   1  -5 445.463 122.163   2
  13 -12  -5 452.246 139.105   4
 -12  -1  -5 480.466 105.414   4
 -13   1  -5 274.729 99.2539   4
  13 -12  -2 100.831 109.378   1
 -12  -1  -2-19.5935 93.8534   2
   1  12  -2 199.499 105.574   3
 -13   1  -2 123.264 104.839   2
  12 -13  -2-86.5888 128.460   4
 -12  -1  -2 40.2886 87.0838   3
  13 -12  -2-89.1861 126.660   4
   1  12  -2 69.9591 75.5511   1
 -12  -1  -2 16.2777 100.541   4
  13 -12  -2 164.490 117.212   2
 -13   1  -2 78.8852 102.757   4
  12 -13  -2 8.92737 97.0959   2
  12 -13  -2 103.134 118.415   1
  -1  13  -2 83.8892 78.5728   1
  -1  13  -2 7.39131 101.388   3
 -12  -1   1 1258.95 196.230   4
   1  12   1 1345.23 165.141   3
  12 -13   1 1523.24 194.975   4
  12 -13   1 1486.54 175.518   2
  13 -12   1 1678.78 209.786   4
 -13   1   1 1506.29 184.580   2
  13 -12   1 1465.15 179.018   1
 -12  -1   1 1265.92 171.401   2
  -1  13   1 1372.87 163.735   3
   1  12   1 1649.02 174.415   1
  -1  13   1 1584.43 170.591   1
  13 -12   1 1270.67 168.443   2
 -13   1   1 1474.56 134.389   3
 -12  -1   1 1613.28 144.971   3
 -13   1   1 1503.43 192.398   4
  12 -13   1 1493.41 180.449   1
  12 -13   1 1548.45 126.222   3
   1  12   4 841.871 172.533   1
  13 -12   4 775.299 101.010   3
  13 -12   4 840.843 163.428   4
  12 -13   4 888.388 166.538   4
  12 -13   4 650.568 152.771   2
  13 -12   4 927.278 174.062   2
 -13   1   4 883.400 154.560   3
 -12  -1   4 875.417 154.975   3
  -1  13   4 893.821 181.882   1
  13 -12   4 686.896 155.581   1
  12 -13   4 965.855 167.341   1
  12 -13   4 738.139 107.233   3
  -1  13   7 173.674 166.772   1
  13 -12   7 205.382 104.067   3
  13 -12   7 176.207 160.213   2
  13 -12   7 246.757 150.477   4
  12 -13   7 223.255 146.796   4
   1  12   7 148.455 178.822   1
  12 -13   7 327.175 149.608   2
 -12  -1   7 52.7964 153.481   3
 -13   1   7 315.912 162.905   3
  12 -13   7 150.194 111.987   3
   1  12  10 149.429 195.055   1
  -1  13  10-52.6827 198.292   1
  12 -13  10 125.387 200.019   2
  12 -13  10-19.6172 132.540   4
  13 -12  10-31.9466 148.721   1
  13 -12  10-32.3836 168.468   2
  13 -12  10 65.4696 126.117   4
  12 -13  10-109.715 151.799   3
 -13   1  10-191.265 212.292   3
 -12  -1  10 243.410 206.406   3
  13 -12  10-148.751 146.028   3
  12 -13  10 331.450 162.513   1
  11 -13  -9 676.685 137.755   4
  13 -11  -9 920.010 181.266   4
  13 -11  -6 1160.83 179.155   4
 -11  -2  -6 1443.02 116.593   4
 -13   2  -6 1719.21 151.382   4
  11 -13  -6 1383.76 177.225   4
  11 -13  -6 1458.74 175.598   2
  13 -11  -6 1725.18 227.222   2
  11 -13  -3 1970.35 193.427   4
 -11  -2  -3 1882.86 160.725   2
  13 -11  -3 1562.98 180.890   1
  13 -11  -3 1530.56 178.600   2
  11 -13  -3 1933.80 170.988   2
  13 -11  -3 2096.15 214.841   4
   2  11  -3 1826.52 105.089   1
 -11  -2  -3 1876.00 170.578   4
 -13   2  -3 1750.79 166.357   4
  -2  13  -3 1822.34 177.606   3
  -2  13  -3 2035.63 136.426   1
 -13   2  -3 2098.65 186.976   2
   2  11   0 230.278 117.762   1
   2  11   0-69.1511 98.2772   3
  -2  13   0 44.9074 102.226   3
 -11  -2   0 0.08857 94.4536   3
  -2  13   0-20.2670 99.8704   1
  11 -13   0 15.1659 104.868   2
  11 -13   0-0.26698 106.510   1
 -13   2   0 83.8401 122.226   4
 -13   2   0-33.4405 99.2728   2
  13 -11   0-150.148 129.177   4
 -13   2   0 150.055 69.1970   3
 -11  -2   0 120.251 134.752   4
 -11  -2   0 69.5740 97.8508   2
  13 -11   0-26.6450 112.736   2
  13 -11   0 3.20870 112.508   1
  11 -13   0 6.31267 119.357   4
  11 -13   3 546.612 103.614   3
  11 -13   3 621.101 134.012   1
  11 -13   3 675.473 151.138   2
  13 -11   3 917.604 174.450   2
   2  11   3 552.479 148.090   1
  13 -11   3 634.151 148.907   4
  13 -11   3 552.413 154.881   1
  11 -13   3 728.784 149.210   4
 -13   2   3 624.746 128.195   3
 -13   2   3 660.222 164.173   4
  13 -11   3 683.238 72.0759   3
  -2  13   3 559.507 144.211   1
 -11  -2   3 733.866 140.889   3
  13 -11   6 830.693 182.088   2
  13 -11   6 1038.73 137.845   3
  11 -13   6 887.155 190.556   2
  11 -13   6 802.132 153.588   1
  -2  13   6 1121.44 204.687   1
  13 -11   6 864.567 161.830   4
  11 -13   6 1124.79 151.664   3
  11 -13   6 884.102 168.702   4
 -13   2   6 913.297 140.432   1
 -13   2   6 924.972 189.279   3
 -11  -2   6 928.985 177.535   3
   2  11   6 1263.63 216.214   1
  13 -11   9 753.169 219.823   2
  11 -13   9 860.954 180.378   1
   2  11   9 460.884 189.883   1
  11 -13   9 918.963 245.651   2
  11 -13   9 623.994 172.609   4
  -2  13   9 445.549 203.503   1
  13 -11   9 804.329 157.876   3
 -11  -2   9 639.668 219.651   3
 -13   2   9 570.031 129.223   1
  13 -11   9 1029.26 182.657   4
 -13   2   9 1132.60 265.514   3
  13 -11   9 868.875 191.094   1
  11 -13   9 718.161 177.966   3
  13 -10 -10 2152.28 227.936   4
  10 -13  -7 245.925 111.028   4
  13 -10  -7-23.7225 156.921   2
  13 -10  -7-53.5504 129.029   4
  13 -10  -4 8944.11 393.308   4
  10 -13  -4 9103.99 352.909   4
 -10  -3  -4 9692.35 307.491   4
 -13   3  -4 8790.00 353.291   2
  13 -10  -4 8656.24 388.472   2
 -10  -3  -4 8594.28 301.094   2
 -13   3  -4 9354.82 336.993   4
  10 -13  -4 9981.32 333.677   2
  13 -10  -4 9517.07 391.208   1
 -10  -3  -1 1285.41 142.485   3
  13 -10  -1 1723.61 177.407   2
  10 -13  -1 1188.01 128.656   2
  -3  13  -1 1633.15 146.912   1
  10 -13  -1 1450.97 197.010   4
 -10  -3  -1 1528.15 180.521   4
  10 -13  -1 1225.55 171.723   1
  13 -10  -1 1439.55 184.189   4
 -10  -3  -1 1553.34 158.298   2
 -13   3  -1 1454.38 171.450   4
  13 -10  -1 1256.18 172.631   1
  -3  13  -1 1299.38 149.430   3
   3  10  -1 1397.62 135.953   1
   3  10  -1 1273.70 150.479   3
 -13   3  -1 1429.19 166.242   2
 -13   3  -1 1422.47 96.3039   3
  -3  13   2 11029.9 414.879   3
  10 -13   2 10849.0 301.519   3
  13 -10   2 10672.8 423.360   1
  10 -13   2 11134.0 395.468   2
  10 -13   2 11255.9 387.445   1
  13 -10   2 11066.8 403.460   4
  13 -10   2 11388.7 410.266   2
 -13   3   2 11187.0 323.921   3
 -13   3   2 11299.7 443.679   4
  10 -13   2 11375.5 435.846   4
 -10  -3   2 11062.1 450.937   4
 -13   3   2 10510.3 415.622   2
   3  10   2 11444.5 406.302   1
  -3  13   2 10963.5 400.681   1
 -10  -3   2 11216.1 353.625   3
 -10  -3   2 10852.2 432.787   2
   3  10   2 10520.4 390.005   3
  13 -10   5 491.277 136.995   4
 -13   3   5 713.926 140.338   1
  13 -10   5 617.037 169.617   2
  -3  13   5 632.016 151.238   1
  10 -13   5 751.471 177.347   4
  10 -13   5 741.512 133.263   1
  13 -10   5 689.855 106.571   3
  10 -13   5 666.398 171.063   2
 -13   3   5 678.129 161.282   3
 -10  -3   5 504.984 153.869   3
   3  10   5 775.793 181.345   1
  10 -13   5 680.029 124.425   3
  13 -10   8 1781.88 224.164   1
 -13   3   8 1431.49 249.916   3
  13 -10   8 1731.91 248.925   2
 -13   3   8 1692.39 194.788   1
   3  10   8 1329.80 85.8333   2
  10 -13   8 1410.12 186.154   1
  10 -13   8 1314.18 173.330   1
  -3  13   8 1375.10 234.443   1
  13 -10   8 1995.35 210.561   3
   3  10   8 1826.80 260.651   1
 -10  -3   8 1814.61 262.883   3
   3  10   8 1120.87 90.2192   2
  10 -13   8 1698.48 209.548   3
  13 -10   8 1905.77 211.145   4
  10 -13   8 1910.34 234.668   4
  10 -13   8 1347.85 230.218   2
   3  10  11 210.691 200.963   1
  13 -10  11-161.017 181.823   1
 -10  -3  11 104.270 231.931   3
  10 -13  11-201.041 231.610   2
  13 -10  11-298.503 193.444   2
  -3  13  11-131.676 214.288   1
  13 -10  11-88.6085 148.724   3
 -13   3  11 157.405 224.480   3
  10 -13  11 164.196 182.318   3
  13  -9  -8 411.293 153.739   4
   9 -13  -8 618.350 120.267   4
  13  -9  -5 219.591 128.994   2
 -13   4  -5 333.689 112.501   4
  -9  -4  -5 228.940 72.0610   4
   9 -13  -5 152.146 96.8953   4
  13  -9  -5 105.102 98.3308   1
  13  -9  -5 82.3059 126.219   4
   9 -13  -5 124.147 93.2809   2
 -13   4  -2 3856.03 238.950   2
  -9  -4  -2 4197.84 238.136   3
   4   9  -2 3826.99 169.107   1
   9 -13  -2 4077.32 249.888   4
  13  -9  -2 3698.16 266.317   4
 -13   4  -2 4391.87 255.291   4
  13  -9  -2 3511.97 241.334   1
  -9  -4  -2 4152.27 245.766   4
   9 -13  -2 3764.37 250.488   1
  -9  -4  -2 3919.81 205.421   2
   9 -13  -2 3704.74 187.039   2
  -4  13  -2 3704.07 199.335   1
  -4  13  -2 3615.66 214.722   3
   4   9  -2 3493.32 218.678   3
  13  -9  -2 3544.33 240.548   2
   9 -13   1 984.487 123.168   3
   4   9   1 727.731 123.453   3
  -9  -4   1 998.308 185.195   4
  -9  -4   1 827.429 149.946   2
   9 -13   1 862.283 139.374   2
  -4  13   1 811.771 138.862   1
   9 -13   1 1063.41 146.180   1
  13  -9   1 1046.01 159.985   2
 -13   4   1 959.103 165.288   4
 -13   4   1 1210.43 109.103   3
 -13   4   1 907.894 153.688   2
   4   9   1 867.965 148.621   1
  -9  -4   1 1004.26 129.943   3
   9 -13   1 947.568 173.980   4
  13  -9   1 1023.90 169.710   4
  13  -9   1 1130.41 163.422   1
   4   9   1 1150.00 134.037   2
  -4  13   1 1078.34 156.135   3
   4   9   4 2082.89 97.0934   2
  13  -9   4 2807.23 243.704   2
  13  -9   4 2716.75 220.675   4
 -13   4   4 2130.98 233.860   4
   9 -13   4 2451.76 230.976   4
   9 -13   4 2443.80 237.185   2
 -13   4   4 2626.25 207.833   1
 -13   4   4 2475.08 213.799   3
  13  -9   4 2684.26 141.038   3
  -4  13   4 2137.04 219.662   1
  -9  -4   4 2428.38 221.440   3
   9 -13   4 2662.02 200.803   1
   4   9   4 2777.06 242.844   1
   9 -13   4 2539.21 186.130   3
   9 -13   7 208.594 149.326   4
   4   9   7 91.7395 61.8647   2
  -4  13   7 74.3708 23.9858   2
  13  -9   7-9.00848 140.647   2
   4   9   7 146.476 171.997   1
   4   9   7 93.2593 48.5773   2
 -13   4   7 222.370 127.517   1
 -13   4   7 263.230 151.094   3
  13  -9   7 187.428 106.777   3
   9 -13   7 221.271 98.1651   1
  -4  13   7-21.7138 150.246   1
  -9  -4   7 215.608 174.614   3
   9 -13   7 16.9184 115.294   3
  13  -9   7 190.659 130.766   4
  -4  13   7 96.4158 26.1484   2
   9 -13  10 1224.00 170.042   1
 -13   4  10 1312.50 190.488   1
   4   9  10 1507.59 275.275   1
  -4  13  10 1546.30 278.577   1
 -13   4  10 1396.64 289.195   3
   9 -13  10 1498.76 296.140   2
  13  -9  10 1191.08 199.025   3
   9 -13  10 1238.18 208.054   4
  13  -9  10 1455.29 233.727   1
  13  -9  10 973.024 223.891   2
  -9  -4  10 1167.68 271.026   3
   9 -13  10 1104.63 215.234   3
  13  -8  -9 374.314 162.638   4
   8 -13  -9 332.836 78.4283   4
  -8  -5  -6 693.085 58.2761   4
   8 -13  -6 893.389 125.674   4
  13  -8  -6 822.573 184.168   2
  13  -8  -6 632.150 159.341   4
  -8  -5  -3 1837.53 134.210   2
  -5  13  -3 1824.70 151.977   1
  13  -8  -3 1770.09 203.150   4
   5   8  -3 1640.19 91.4336   1
  13  -8  -3 1683.26 175.419   1
   8 -13  -3 1761.43 176.283   4
  -8  -5  -3 1659.33 159.752   4
   5   8  -3 1515.20 175.345   3
  13  -8  -3 1510.40 194.764   2
   8 -13  -3 1784.04 194.423   1
 -13   5  -3 1992.30 187.234   4
   8 -13  -3 1579.07 127.758   2
 -13   5  -3 1737.16 179.851   2
  -5  13  -3 1724.71 169.375   3
  13  -8   0 7323.27 323.024   2
   8 -13   0 7293.97 307.526   1
   5   8   0 7068.52 280.118   1
 -13   5   0 7430.72 168.799   3
   8 -13   0 7385.79 288.024   3
  13  -8   0 7675.84 336.446   1
   5   8   0 7543.23 288.313   3
  -5  13   0 7712.25 313.947   1
 -13   5   0 7210.73 319.573   2
  -8  -5   0 7503.41 288.130   3
  -8  -5   0 7285.75 352.096   4
  13  -8   0 7373.91 339.549   4
   8 -13   0 7420.06 275.582   2
 -13   5   0 7635.65 347.118   4
  -8  -5   0 7553.83 306.454   2
   8 -13   0 7524.91 335.337   4
   5   8   0 7591.92 315.947   2
  -5  13   0 7084.64 286.124   3
   5   8   3 1671.73 192.948   1
   5   8   3 1471.65 174.685   3
  13  -8   3 1687.34 193.212   2
 -13   5   3 1911.07 188.875   1
   8 -13   3 1705.10 192.651   2
  13  -8   3 1785.63 185.945   4
  -8  -5   3 1873.94 226.268   2
 -13   5   3 1758.10 168.772   3
  -8  -5   3 1666.81 217.006   4
  13  -8   3 1617.29 80.5219   3
 -13   5   3 1532.59 204.810   4
   8 -13   3 1859.24 166.425   1
  -8  -5   3 1879.78 184.351   3
   8 -13   3 2064.43 172.241   3
  -5  13   3 1823.21 211.160   1
  -5  13   3 1391.82 187.755   3
   5   8   3 1774.75 121.074   2
 -13   5   3 1764.05 198.924   2
   8 -13   3 1696.62 209.718   4
   5   8   6 939.613 194.038   1
  13  -8   6 799.928 136.291   4
   8 -13   6 657.829 111.691   1
  -5  13   6 681.001 54.5828   2
   8 -13   6 975.353 160.987   3
   8 -13   6 794.428 172.072   4
 -13   5   6 610.983 141.901   1
  13  -8   6 816.889 130.823   3
 -13   5   6 632.593 166.506   3
  13  -8   6 879.253 178.054   2
  -8  -5   6 943.454 189.994   3
  -5  13   6 1043.79 180.279   1
   5   8   6 875.199 85.5422   2
 -13   5   9 1389.97 191.878   1
   5   8   9 905.273 121.022   2
  13  -8   9 1250.96 230.865   2
  13  -8   9 1053.89 195.899   1
   8 -13   9 1033.76 197.488   4
  -5  13   9 1503.59 253.812   1
   5   8   9 1456.31 275.479   1
  13  -8   9 1244.71 167.519   4
   8 -13   9 875.056 138.344   1
  13  -8   9 923.006 178.610   3
 -13   5   9 595.241 218.913   3
  -8  -5   9 890.713 226.073   3
   8 -13   9 933.065 206.500   3
  13  -7 -10 1200.74 204.401   4
  13  -7  -7-100.218 137.391   4
  13  -7  -7-105.204 176.210   2
   7 -13  -7-38.3103 79.4422   4
  13  -7  -4 8020.70 330.592   1
 -13   6  -4 8310.10 336.788   4
  -7  -6  -4 8325.33 236.770   2
   7 -13  -4 8392.66 307.947   4
  13  -7  -4 8241.29 386.761   4
  -6  13  -4 8174.68 335.319   3
  13  -7  -4 8622.76 402.943   2
   7 -13  -4 8429.98 236.726   2
 -13   6  -4 7979.87 356.931   2
  -7  -6  -4 8316.09 270.119   4
  -6  13  -1 75.4762 86.2338   3
  13  -7  -1-7.11548 112.327   1
 -13   6  -1 174.117 112.823   4
  -7  -6  -1 165.220 99.6277   3
   7 -13  -1 85.6002 106.616   1
   7 -13  -1 90.8349 100.872   3
   7 -13  -1 143.328 112.948   4
 -13   6  -1 66.3797 100.845   2
  13  -7  -1 292.844 127.343   2
   7 -13  -1 58.1875 73.3524   2
  -6  13  -1 159.835 98.5787   1
   6   7  -1 181.523 85.9585   1
   6   7  -1 230.962 96.2030   3
  -7  -6  -1 430.589 141.202   4
   6   7  -1 277.816 149.816   2
  -7  -6  -1 211.063 92.4408   2
  13  -7  -1 144.866 129.758   4
  13  -7   2 6176.75 299.753   2
  13  -7   2 6029.44 299.351   4
  -6  13   2 5667.06 298.698   1
  -6  13   2 6403.74 313.221   3
   6   7   2 6117.72 310.005   1
 -13   6   2 5611.81 236.334   3
  -7  -6   2 6132.26 341.260   4
 -13   6   2 5368.19 293.462   2
 -13   6   2 5427.22 301.326   4
 -13   6   2 6506.49 314.594   1
   6   7   2 5484.86 269.627   3
   6   7   2 6239.21 236.963   2
  -7  -6   2 5770.96 335.799   2
   7 -13   2 5739.27 254.903   1
  -7  -6   2 5957.88 279.436   3
   7 -13   2 5605.95 252.642   3
 -13   6   5 2293.23 230.191   4
   6   7   5 2450.23 250.731   1
  13  -7   5 2630.07 236.556   2
   7 -13   5 2455.97 209.016   3
   7 -13   5 2392.68 172.514   1
  13  -7   5 2446.51 203.558   4
  13  -7   5 2521.99 164.074   3
  -6  13   5 2276.40 238.693   1
   6   7   5 2468.60 132.014   2
  -7  -6   5 2449.88 230.472   3
 -13   6   5 2270.92 233.474   3
  -6  13   5 2239.76 103.230   2
 -13   6   5 2610.17 218.109   1
   7 -13   8 2619.16 188.251   1
  13  -7   8 2869.45 286.737   1
  -6  13   8 2335.86 152.823   2
 -13   6   8 2572.53 296.619   3
   6   7   8 2979.10 181.317   2
   6   7   8 2728.13 309.743   1
  13  -7   8 3094.79 278.478   2
  13  -7   8 3020.83 250.753   3
   7 -13   8 2683.48 281.591   3
  -6  13   8 2690.92 310.161   1
  13  -7   8 2890.30 213.940   4
  -7  -6   8 2790.31 316.006   3
 -13   6   8 2789.58 244.607   1
   7 -13   8 3159.46 293.522   4
   7 -13   8 2344.05 177.779   1
  13  -7  11 265.606 170.089   3
   6   7  11 333.903 234.944   1
 -13   6  11 173.965 228.227   3
   6   7  11-186.524 220.749   3
   7 -13  11 196.796 173.284   4
  13  -7  11-10.5395 142.859   2
  -7  -6  11-12.8520 189.532   3
  -6  13  11 159.114 201.380   1
  13  -7  11 118.312 159.483   1
  -6  13  11-96.6414 243.571   3
   7 -13  11 198.752 208.814   3
   6 -13  -8 2310.41 126.500   4
  13  -6  -8 2933.86 282.069   4
  13  -6  -5 2533.03 201.604   1
 -13   7  -5 2330.10 193.175   4
  13  -6  -5 2476.35 245.838   4
   6 -13  -5 2440.63 171.376   4
  -6  -7  -5 2433.45 129.202   4
  -7  13  -5 2440.65 211.651   3
  13  -6  -5 2257.07 248.592   2
   6 -13  -2 6060.45 184.790   2
  -7  13  -2 5863.89 264.308   1
  -6  -7  -2 6017.98 298.276   3
 -13   7  -2 6233.82 303.401   4
  13  -6  -2 5836.14 324.057   4
  -6  -7  -2 6423.14 296.148   4
   6 -13  -2 5910.65 299.052   1
   7   6  -2 6010.70 211.376   1
   7   6  -2 5656.52 345.302   4
  -6  -7  -2 6407.95 219.131   2
  13  -6  -2 5458.00 277.866   1
  13  -6  -2 5290.27 295.584   2
   6 -13  -2 6166.28 292.238   4
  -7  13  -2 5679.44 242.635   3
   7   6  -2 6169.30 278.784   3
   7   6  -2 5722.75 332.870   2
 -13   7  -2 5840.56 289.537   2
  -7  13   1 258.240 117.786   1
  -6  -7   1 131.016 138.701   4
 -13   7   1-7.75417 128.514   1
  -6  -7   1 167.495 128.566   2
   7   6   1 161.891 102.549   2
  -6  -7   1 296.460 118.350   3
 -13   7   1 207.537 113.632   2
  -7  13   1 168.455 99.7088   3
   7   6   1 101.113 102.043   1
   7   6   1 147.376 93.0606   3
   6 -13   1 205.631 106.889   3
  13  -6   1 122.595 136.527   4
  13  -6   1 377.745 139.881   1
   7   6   1 251.785 140.420   4
 -13   7   1 215.619 137.755   4
   6 -13   1 65.6989 87.5844   1
  13  -6   1-83.5475 126.348   2
 -13   7   1 243.068 73.5875   3
 -13   7   4 8226.86 353.115   3
   7   6   4 8068.70 247.318   2
   7   6   4 7420.56 352.281   3
  13  -6   4 8395.49 360.611   2
  -7  13   4 7959.51 206.929   2
 -13   7   4 7499.03 366.905   4
   6 -13   4 7918.12 273.499   1
   7   6   4 7961.86 383.464   1
 -13   7   4 7968.46 373.315   2
  13  -6   4 8296.88 234.782   3
  -6  -7   4 7695.10 352.983   3
  -7  13   4 8156.35 377.762   1
   6 -13   4 8139.82 329.486   3
  13  -6   4 7704.42 322.129   4
 -13   7   4 7909.03 348.819   1
   7   6   7 119.258 81.3323   2
   6 -13   7-58.4732 132.496   3
  13  -6   7 27.1542 132.440   2
  13  -6   7 338.655 169.237   1
  -7  13   7 0.48029 72.0637   2
  -6  -7   7 120.842 149.639   3
  13  -6   7-82.6791 97.5464   3
  13  -6   7-29.9729 97.5797   4
   7   6   7 11.1754 156.770   1
 -13   7   7 75.1437 148.676   3
   6 -13   7 41.2600 67.7545   1
 -13   7   7-115.961 116.175   1
  -7  13   7-11.4128 158.487   1
   6 -13  10 951.591 205.070   4
   6 -13  10 1065.40 228.835   3
  13  -6  10 1349.40 220.628   2
   7   6  10 985.561 154.919   2
  -7  13  10 1431.37 270.341   1
  -7  13  10 1243.94 281.831   3
  13  -6  10 1221.61 210.954   3
 -13   7  10 1488.52 223.753   1
  13  -6  10 1183.52 221.749   1
  -6  -7  10 885.025 243.881   3
 -13   7  10 1054.39 248.841   3
   7   6  10 1001.18 251.294   1
  13  -5  -9 1399.38 230.425   4
  13  -5  -6 805.061 136.463   1
   5 -13  -6 839.835 105.074   4
  13  -5  -6 913.690 208.223   2
  13  -5  -6 993.900 197.634   4
 -13   8  -3 1556.15 177.909   4
  13  -5  -3 1640.90 167.481   1
  -5  -8  -3 1750.19 102.135   2
  -5  -8  -3 1531.48 187.543   1
   5 -13  -3 1683.40 162.919   4
  -8  13  -3 1830.37 151.200   3
   5 -13  -3 1706.32 90.6951   2
   8   5  -3 2034.61 252.876   4
  13  -5  -3 1727.80 210.547   4
 -13   8  -3 1860.78 189.435   2
   8   5  -3 1909.62 244.143   2
  -5  -8  -3 1774.19 161.421   4
  -8  13  -3 1687.51 164.350   1
   8   5  -3 1777.31 176.610   3
  13  -5  -3 1700.40 217.061   2
   5 -13  -3 1758.24 198.060   1
  13  -5   0 7296.58 175.151   3
  13  -5   0 7539.31 337.033   2
   5 -13   0 8098.47 315.556   3
  -8  13   0 7844.78 324.548   1
   5 -13   0 8230.38 277.425   2
   8   5   0 7772.46 294.577   1
   8   5   0 7407.57 347.765   4
  -8  13   0 7881.08 278.275   3
 -13   8   0 7273.77 154.976   3
  -5  -8   0 8249.69 362.576   4
 -13   8   0 7970.35 324.145   2
   8   5   0 8531.05 290.213   3
  -5  -8   0 7557.59 309.612   3
   5 -13   0 7728.27 298.150   1
  -5  -8   0 8021.51 313.462   2
  13  -5   0 8158.88 361.257   4
   8   5   0 7655.10 329.847   2
 -13   8   0 7966.52 352.723   4
  13  -5   0 7595.07 351.864   1
 -13   8   3 1762.23 192.746   1
  -5  -8   3 1606.45 177.933   3
   5 -13   3 1609.81 135.431   1
  13  -5   3 1593.81 96.9840   3
  -5  -8   3 1405.50 194.458   2
  -8  13   3 1248.60 175.790   3
  -8  13   3 1536.95 115.064   2
 -13   8   3 1585.89 199.747   4
  13  -5   3 1514.38 175.358   4
 -13   8   3 1544.92 176.618   2
  -5  -8   3 1401.13 204.867   4
   5 -13   3 1415.93 157.624   3
   8   5   3 1600.77 159.244   4
 -13   8   3 1500.98 158.203   3
   8   5   3 1742.23 217.884   1
  13  -5   3 1435.25 163.002   2
  -8  13   3 1598.18 198.013   1
   8   5   3 1384.89 167.315   3
   8   5   3 1570.29 137.084   2
 -13   8   6 838.435 198.319   3
  -8  13   6 1081.80 115.821   2
   5 -13   6 856.891 98.4310   1
  13  -5   6 1032.87 151.420   4
  13  -5   6 973.290 175.918   2
   8   5   6 888.285 117.927   2
  -8  13   6 818.258 183.764   1
   8   5   6 1139.80 208.803   1
  13  -5   6 1004.24 140.464   3
  -5  -8   6 924.861 181.204   3
   5 -13   6 824.570 167.576   3
 -13   8   6 969.782 170.650   1
  13  -5   9 427.619 159.246   2
  13  -5   9 570.114 202.236   1
  -5  -8   9 189.919 175.219   3
 -13   8   9 497.549 205.435   3
  13  -5   9 508.662 162.337   3
   8   5   9 298.274 118.045   2
  13  -5   9 360.441 89.6992   4
  -8  13   9 732.383 199.984   1
 -13   8   9 335.353 146.460   1
   8   5   9 398.662 207.378   1
   5 -13   9 309.776 70.9226   1
   5 -13   9 485.261 195.435   3
  13  -4  -7 326.708 176.192   4
  13  -4  -7 147.917 168.129   2
  13  -4  -7 167.971 108.913   1
   4 -13  -7 132.179 53.1691   4
  13  -4  -4 2528.17 190.707   1
   9   4  -4 2127.57 260.378   4
  13  -4  -4 2368.75 257.159   2
   9   4  -4 2688.59 127.813   1
  -4  -9  -4 2834.41 173.538   4
  13  -4  -4 2462.80 245.706   4
 -13   9  -4 2140.54 207.250   4
  -9  13  -4 2555.05 185.141   3
   4 -13  -4 2581.30 174.223   4
   9   4  -4 2876.96 278.646   2
   4 -13  -1 1007.45 146.588   1
  -4  -9  -1 855.989 149.077   3
  -9  13  -1 985.210 153.780   1
   9   4  -1 1022.13 171.692   2
  13  -4  -1 485.547 145.314   2
   4 -13  -1 1133.57 109.328   2
 -13   9  -1 1096.99 157.149   2
   9   4  -1 752.992 194.178   4
 -13   9  -1 892.545 152.761   4
  -9  13  -1 1107.95 116.755   3
  13  -4  -1 1057.79 176.599   4
  13  -4  -1 927.681 106.578   3
  -4  -9  -1 1122.50 150.686   1
   4 -13  -1 858.473 158.411   3
  -4  -9  -1 867.673 110.885   2
  -4  -9  -1 1233.56 168.577   4
   9   4  -1 1121.47 131.063   3
  13  -4  -1 1077.23 157.494   1
  -9  13   2 3873.13 262.294   1
 -13   9   2 4113.44 265.103   1
 -13   9   2 3464.79 194.105   3
   9   4   2 4214.58 256.147   4
   9   4   2 3839.78 253.392   1
  -9  13   2 3899.64 189.693   2
  -9  13   2 4104.87 248.859   3
  13  -4   2 4188.29 254.695   2
  -9  13   2 4274.93 267.873   4
 -13   9   2 4141.57 270.231   4
   4 -13   2 4023.82 198.067   1
  -4  -9   2 3864.20 296.867   4
 -13   9   2 3842.94 238.536   2
   9   4   2 3823.32 213.126   2
   4 -13   2 4244.23 243.712   3
  13  -4   2 3836.92 250.461   4
  -4  -9   2 3763.75 278.969   2
  -4  -9   2 3988.57 247.541   3
  13  -4   2 3537.97 113.585   3
   9   4   2 3868.08 210.827   3
  13  -4   5 203.011 102.996   4
 -13   9   5 187.975 122.754   4
   9   4   5 366.370 89.5837   4
 -13   9   5 195.072 126.069   3
   9   4   5 264.794 81.9246   2
  13  -4   5 362.963 127.074   2
   9   4   5 363.437 144.431   3
  13  -4   5 172.130 80.3522   3
   9   4   5 364.659 154.657   1
  -9  13   5 145.898 77.1744   2
   4 -13   5 338.462 69.3107   1
 -13   9   5 411.075 139.818   2
  -9  13   5 283.059 135.809   1
 -13   9   5 208.877 132.048   1
  -4  -9   5 389.584 146.406   3
   4 -13   5 351.886 125.621   3
  -9  13   5 297.192 121.563   4
  13  -4   8 498.780 100.308   4
   4 -13   8 381.008 56.8594   1
   9   4   8 515.373 126.977   2
   4 -13   8 420.189 56.2551   1
   4 -13   8 435.333 175.680   3
  13  -4   8 467.762 144.441   2
  -9  13   8 486.836 119.651   2
 -13   9   8 582.657 220.247   3
  -4  -9   8 534.564 177.017   3
 -13   9   8 711.242 174.534   1
  -9  13   8 683.946 191.781   1
  13  -4   8 680.694 189.865   1
   9   4   8 930.139 240.379   1
  13  -4   8 486.062 138.851   3
  13  -4  11 283.027 198.374   1
 -13   9  11-25.3593 171.550   1
  13  -4  11 157.806 145.545   2
   4 -13  11 215.256 169.742   4
   9   4  11 342.279 228.328   3
  -9  13  11 142.931 222.804   3
  13  -4  11 407.847 167.355   3
 -13   9  11 645.624 275.052   3
  -4  -9  11-11.8462 195.059   3
  -9  13  11-66.9906 197.641   1
   4 -13  11 9.19214 182.878   3
   9   4  11 417.246 223.209   1
  13  -3  -8 1271.64 154.973   1
  13  -3  -8 2209.25 286.203   4
  10   3  -5 713.601 194.935   4
  13  -3  -5 264.428 168.406   2
  10   3  -5 205.998 184.672   2
  13  -3  -5 596.182 177.760   4
  -3 -10  -5 596.309 91.7204   4
  10   3  -5 600.965 71.5345   1
  13  -3  -5 732.842 116.817   1
 -10  13  -5 382.391 119.970   3
   3 -13  -5 732.608 105.669   4
   3 -13  -2 10369.9 208.282   2
  -3 -10  -2 10109.2 398.466   3
  13  -3  -2 10202.3 428.500   4
  -3 -10  -2 10575.9 395.804   1
 -10  13  -2 10387.5 381.460   1
  13  -3  -2 10497.3 332.033   3
  13  -3  -2 10573.0 366.137   1
   3 -13  -2 10783.7 406.624   1
  10   3  -2 10710.8 448.674   2
  10   3  -2 10807.5 469.255   4
  -3 -10  -2 9846.94 360.373   4
 -13  10  -2 11169.3 420.745   4
 -13  10  -2 10661.6 392.395   2
  13  -3  -2 10406.7 428.193   2
  10   3  -2 10252.2 346.812   3
 -10  13  -2 10948.4 289.986   3
  -3 -10  -2 10880.5 246.364   2
 -10  13   1 1410.10 145.874   3
   3 -13   1 1390.69 136.237   1
 -13  10   1 1530.91 190.186   4
 -13  10   1 1349.05 186.475   1
 -10  13   1 1263.97 178.968   4
 -10  13   1 1372.62 143.910   2
 -13  10   1 1552.80 163.500   2
 -10  13   1 1321.15 177.953   1
  10   3   1 1269.13 158.073   2
  13  -3   1 1615.09 194.140   4
  -3 -10   1 1364.15 171.348   2
  13  -3   1 1298.93 162.812   2
  -3 -10   1 1529.87 201.757   4
  10   3   1 1351.70 132.013   3
  10   3   1 1454.25 181.379   4
  -3 -10   1 1362.36 133.123   1
  13  -3   1 1458.80 88.6291   3
  -3 -10   1 1607.16 182.351   3
   3 -13   1 1291.23 164.788   3
  13  -3   4 9359.67 294.008   3
 -13  10   4 9182.18 391.564   4
 -10  13   4 9844.08 423.320   1
 -10  13   4 9504.70 372.964   4
   3 -13   4 9640.36 242.556   1
  10   3   4 9137.69 426.022   1
  10   3   4 9634.14 328.816   4
  13  -3   4 9859.35 381.238   2
  13  -3   4 9872.83 357.584   4
 -13  10   4 9120.39 371.030   2
  -3 -10   4 9147.04 397.511   3
 -13  10   4 8998.32 393.961   1
  10   3   4 9639.34 370.512   3
   3 -13   4 10040.7 389.844   3
 -10  13   4 9584.86 299.456   2
  10   3   4 9489.14 319.943   2
 -13  10   7 103.360 140.942   1
  13  -3   7 32.1669 161.581   1
  10   3   7-138.393 161.197   1
  13  -3   7 153.628 126.628   2
  10   3   7-18.0509 101.193   2
  13  -3   7-4.05183 88.2952   4
  13  -3   7-30.7382 107.799   3
 -13  10   7-59.7008 168.168   3
 -10  13   7 105.820 114.289   4
 -10  13   7 65.4694 150.816   1
  -3 -10   7 102.121 148.288   3
   3 -13   7-131.231 139.549   3
 -10  13   7-104.357 107.664   2
  13  -3  10 2485.99 285.190   3
  13  -3  10 2594.75 332.515   1
 -10  13  10 2421.26 296.725   1
  13  -3  10 2432.52 269.526   2
  10   3  10 2225.79 225.773   2
  -3 -10  10 2100.38 312.185   3
  10   3  10 2329.46 289.169   3
 -10  13  10 2248.85 359.272   3
 -13  10  10 2425.28 335.795   3
 -13  10  10 2228.48 281.657   1
   3 -13  10 2083.56 293.514   3
  10   3  10 2738.65 331.722   1
  13  -2  -9 939.444 210.837   4
  13  -2  -6 1545.36 261.267   2
  -2 -11  -6 821.843 70.6153   4
  -2 -11  -6 912.317 67.6138   4
   2 -13  -6 1117.08 100.668   4
 -11  13  -6 891.422 152.303   3
  13  -2  -6 1392.49 232.273   4
  13  -2  -6 1172.38 137.973   1
  11   2  -6 1073.82 92.1957   1
  11   2  -6 819.421 194.872   4
  13  -2  -3 755.067 181.746   2
  13  -2  -3 698.530 118.302   1
  11   2  -3 384.846 166.357   2
  11   2  -3 848.841 110.395   1
  11   2  -3 610.754 136.621   3
  13  -2  -3 513.120 158.905   4
  11   2  -3 743.861 182.818   4
 -13  11  -3 711.275 159.043   4
  -2 -11  -3 798.885 132.276   4
  13  -2  -3 496.167 122.797   3
 -13  11  -3 743.010 77.1299   3
 -11  13  -3 709.539 95.3737   3
 -13  11   0 137.745 136.222   1
 -11  13   0 25.8698 75.4261   3
  -2 -11   0 65.6537 133.739   3
  13  -2   0-14.7351 123.597   2
   2 -13   0 165.910 118.046   3
 -11  13   0 2.45687 134.870   4
 -13  11   0 0.26763 57.9698   3
 -11  13   0 116.070 136.546   1
  13  -2   0 45.3308 126.759   4
 -13  11   0-16.7113 94.1044   2
  -2 -11   0 43.6318 85.8363   1
  13  -2   0-39.4931 60.6646   3
  11   2   0 60.8992 138.424   4
 -11  13   0-10.2110 88.4922   2
  -2 -11   0 122.539 98.0221   2
 -13  11   0 262.197 124.871   4
   2 -13   0 40.8006 93.0777   1
  11   2   0-9.84933 71.9930   3
  11   2   0-25.6597 122.685   2
  11   2   3 1532.26 148.282   3
 -11  13   3 1690.17 195.160   4
 -11  13   3 1750.82 204.362   1
  11   2   3 2058.85 221.167   1
 -11  13   3 1496.27 142.543   2
  11   2   3 1751.66 171.716   2
 -13  11   3 1827.07 200.567   4
  13  -2   3 1815.02 188.529   4
 -13  11   3 1701.96 176.285   2
  -2 -11   3 1671.42 103.069   1
  11   2   3 1665.86 173.544   4
   2 -13   3 1656.74 122.569   1
 -13  11   3 1674.93 200.109   1
  13  -2   3 1870.50 126.285   3
   2 -13   3 1525.67 182.076   3
  -2 -11   3 2118.55 209.036   3
  -2 -11   3 1670.88 220.023   2
  13  -2   3 1742.80 177.343   2
 -13  11   6 1558.52 197.041   2
  13  -2   6 1450.63 217.204   1
  11   2   6 1420.35 157.930   2
 -11  13   6 1308.12 225.195   1
 -13  11   6 1023.83 170.617   4
  11   2   6 1901.13 243.340   1
   2 -13   6 1344.98 201.887   3
  11   2   6 1305.37 123.423   4
 -13  11   6 1511.13 209.455   1
 -11  13   6 1286.97 174.029   4
 -11  13   6 1336.39 156.473   2
  13  -2   6 1267.41 170.723   2
 -13  11   6 1249.25 214.903   3
  13  -2   6 1482.95 152.971   4
  -2 -11   6 1384.09 219.706   3
 -13  11   9 1075.26 196.184   1
 -13  11   9 901.867 250.281   3
  11   2   9 1086.34 262.770   1
  11   2   9 887.156 166.252   2
  13  -2   9 947.310 219.591   1
  13  -2   9 881.492 168.970   2
 -11  13   9 744.102 239.967   3
  13  -2   9 750.109 178.685   3
   2 -13   9 1230.37 232.179   3
 -11  13   9 1159.66 228.741   1
  -2 -11   9 841.465 227.200   3
  13  -1  -7 107.565 82.4652   1
  12   1  -7 26.4259 157.049   4
  13  -1  -7 213.835 159.679   4
  12   1  -7 33.9723 60.1878   1
  13  -1  -4 965.805 197.944   2
  13  -1  -4 977.872 209.741   4
 -12  13  -4 942.767 115.791   3
   1 -13  -4 834.865 122.984   4
  12   1  -4 636.309 187.313   2
  12   1  -4 1162.35 224.723   4
  -1 -12  -4 847.342 127.450   4
 -13  12  -4 905.879 110.255   3
  13  -1  -4 775.576 117.915   1
  12   1  -4 936.492 118.907   1
  -1 -12  -1 1590.07 194.532   3
   1 -13  -1 1359.86 181.973   3
 -13  12  -1 1153.74 183.367   4
 -12  13  -1 1245.80 105.635   3
  13  -1  -1 1373.82 133.529   3
 -12  13  -1 1048.91 153.214   2
  12   1  -1 1353.58 196.113   2
 -12  13  -1 1337.47 184.835   4
 -12  13  -1 1459.26 186.977   1
  -1 -12  -1 1495.22 172.798   1
   1 -13  -1 1296.52 156.060   1
  12   1  -1 1237.35 206.810   4
 -13  12  -1 1060.00 156.871   2
   1 -13  -1 1133.95 121.569   2
  13  -1  -1 1160.29 189.049   4
  13  -1  -1 1388.02 184.011   2
  12   1  -1 1323.22 131.912   3
  -1 -12  -1 1310.24 129.773   2
 -13  12  -1 820.623 166.912   1
 -13  12  -1 1301.14 88.6795   3
  12   1   2 92.0012 119.643   4
 -13  12   2-75.1279 126.091   1
  13  -1   2-19.3271 58.0546   3
   1 -13   2 0.66228 109.603   3
  12   1   2 38.1550 75.2757   3
 -13  12   2-54.4821 119.692   4
  -1 -12   2 113.952 113.447   3
 -12  13   2-53.7129 88.1201   2
  -1 -12   2-26.3224 118.613   2
  -1 -12   2 62.7807 72.7625   1
 -13  12   2 42.1754 101.123   2
  13  -1   2 78.0968 121.180   4
  13  -1   2 159.560 121.473   2
 -12  13   2 30.4214 131.162   1
  12   1   2-37.7632 106.608   2
 -12  13   2-13.2214 120.279   4
   1 -13   2-92.9988 77.7567   1
  12   1   5 513.084 166.541   1
  12   1   5 367.134 106.365   2
  13  -1   5 545.234 125.475   2
 -12  13   5 580.028 171.793   1
  13  -1   5 383.547 109.871   3
  13  -1   5 664.536 129.062   4
 -12  13   5 558.488 146.767   4
 -13  12   5 441.181 131.605   4
  12   1   5 421.885 125.624   3
  -1 -12   5 404.748 150.351   3
 -13  12   5 218.106 139.754   1
 -13  12   5 543.844 128.866   2
 -12  13   5 400.425 115.123   2
  12   1   5 582.759 125.449   4
  13  -1   5 558.776 177.286   1
   1 -13   5 308.735 133.524   3
 -12  13   8 219.678 148.814   1
 -13  12   8 120.582 154.476   1
   1 -13   8 412.810 183.357   3
  -1 -12   8-64.7495 177.380   3
  13  -1   8 68.8386 109.960   2
  12   1   8 241.544 115.508   2
  13  -1   8 111.684 162.142   1
  13  -1   8 55.6802 53.5477   4
  12   1   8 154.027 168.888   1
 -12  13   8 134.308 186.194   3
  13  -1   8-109.531 126.536   3
 -13  12   8-234.118 199.461   3
  13   0  -8 3448.10 176.915   1
  13   0  -8 5034.69 399.038   4
  13   0  -5 116.436 166.435   2
   0 -13  -5 47.9340 84.4290   4
  13   0  -5 167.879 166.084   4
   0 -13  -5 84.9897 86.1619   4
 -13  13  -5 11.1848 87.3610   3
  13   0  -5 13.2523 76.2595   1
  13   0  -2 14875.7 557.167   4
   0 -13  -2 14555.6 288.795   2
   0 -13  -2 14175.1 496.421   3
 -13  13  -2 13569.1 508.839   4
 -13  13  -2 12941.8 457.449   2
   0 -13  -2 14358.5 475.834   1
  13   0  -2 14177.7 413.897   3
  13   0  -2 14675.8 531.490   2
 -13  13  -2 14768.1 279.458   3
  13   0  -2 14303.4 427.121   1
 -13  13   1 6.15381 116.255   4
   0 -13   1 89.3067 119.989   3
 -13  13   1 45.8397 82.7749   3
 -13  13   1 20.6832 98.1074   2
  13   0   1-166.403 133.613   2
 -13  13   1-54.2078 133.566   1
  13   0   1 98.7276 69.0315   3
   0 -13   1 57.6724 82.9857   1
  13   0   1-62.7973 114.197   4
   0 -13   4 4966.98 310.397   3
  13   0   4 5437.86 257.785   3
  13   0   4 5160.61 278.984   4
 -13  13   4 4919.97 267.336   2
  13   0   4 4532.08 260.019   2
 -13  13   4 5045.60 336.713   1
   0 -13   4 4430.10 145.507   1
 -13  13   4 4788.67 303.741   4
 -13  13   7 88.0876 133.715   4
  13   0   7 256.200 184.066   1
  13   0   7-112.807 113.766   2
  13   0   7 39.7523 77.8386   4
 -13  13   7-80.2002 146.030   1
   0 -13   7 17.5751 145.521   3
  13   0  10 5712.20 462.691   1
 -13  13  10 4485.33 385.802   1
  13   0  10 5294.01 397.731   3
 -13  13  10 4834.16 466.234   3
   0 -13  10 4458.22 408.497   3
  13   0  10 5426.09 360.272   2
  14 -14  -8 203.004 140.529   4
  14 -14  -5 170.449 131.491   2
 -14   0  -5 44.7452 95.4951   4
  14 -14  -5 152.159 131.356   4
 -14   0  -5 22.2261 101.422   2
   0  14  -2 207.810 88.0585   1
 -14   0  -2 191.727 82.7754   3
  14 -14  -2 243.745 134.473   4
 -14   0  -2 277.250 134.688   4
 -14   0  -2 156.717 110.770   2
  14 -14  -2 255.094 119.149   2
 -14   0   1-13.9137 85.1363   3
   0  14   1-26.6213 108.883   1
  14 -14   1-78.4632 143.690   4
  14 -14   1-44.3706 113.471   2
  14 -14   1 91.8713 121.115   1
  14 -14   4 237.696 80.7964   3
   0  14   4 127.932 131.607   1
  14 -14   4 428.774 153.100   4
 -14   0   4 212.418 111.800   3
  14 -14   4 187.895 142.400   2
   0  14   7-24.7249 155.700   1
 -14   0   7-6.55392 149.550   3
  14 -14   7-43.8105 136.583   4
  14 -14   7-91.6375 157.110   2
  14 -14   7-16.5237 101.220   3
  14 -14  10 179.596 162.779   1
  14 -14  10 104.407 157.244   4
  14 -14  10 154.593 223.415   2
   0  14  10 496.171 243.854   1
 -14   0  10 465.795 226.832   3
  14 -14  10 108.206 139.188   3
  14 -13  -9 791.273 184.236   4
  13 -14  -9 682.342 161.774   4
  14 -13  -6-147.768 146.759   2
  13 -14  -6-72.8919 122.034   2
 -14   1  -6-79.9813 93.1779   4
 -13  -1  -6-27.6908 79.8452   4
  13 -14  -6-9.09059 117.846   4
  14 -13  -6-121.616 134.232   4
 -14   1  -3 1410.52 170.591   2
  14 -13  -3 1189.04 180.666   4
   1  13  -3 1413.41 115.437   1
 -13  -1  -3 1507.05 169.160   4
  14 -13  -3 1346.59 172.078   2
  13 -14  -3 1596.35 194.083   4
 -13  -1  -3 1412.04 161.764   2
  -1  14  -3 1580.17 131.301   1
  13 -14  -3 1375.37 167.453   2
 -14   1  -3 1249.96 164.530   4
 -13  -1   0 735.756 121.723   3
  14 -13   0 475.069 129.125   1
 -13  -1   0 590.294 134.062   2
   1  13   0 665.516 134.236   3
 -14   1   0 589.319 94.7734   3
 -13  -1   0 538.839 167.225   4
   1  13   0 531.200 128.999   1
  -1  14   0 771.604 129.100   1
  13 -14   0 578.009 147.231   1
  13 -14   0 849.662 171.828   4
  14 -13   0 673.740 163.350   4
 -14   1   0 420.803 137.158   2
  14 -13   0 641.363 142.740   2
  -1  14   0 550.172 122.277   3
 -14   1   0 607.496 158.032   4
  13 -14   0 806.484 140.045   2
   1  13   3 148.824 132.627   1
 -13  -1   3 212.525 118.430   3
  13 -14   3 145.785 81.6973   3
  14 -13   3 73.0119 60.1170   3
  -1  14   3 249.256 131.525   1
  13 -14   3 53.0433 136.322   2
  13 -14   3 39.8312 116.596   4
  13 -14   3 194.223 110.740   1
  14 -13   3-59.5029 117.424   1
  14 -13   3 89.8363 133.795   4
 -14   1   3 115.028 113.431   3
  14 -13   3 200.641 146.804   2
  14 -13   6-1.84142 127.006   4
  13 -14   6 108.297 150.232   2
   1  13   6 239.293 161.231   1
  13 -14   6-64.3282 143.992   4
  14 -13   6 37.5533 144.498   2
  -1  14   6 331.221 164.318   1
 -14   1   6 362.620 161.356   3
 -13  -1   6 254.409 162.440   3
  14 -13   6 204.439 92.0992   3
  13 -14   6 166.395 96.5556   3
  13 -14   9 1048.89 193.732   4
   1  13   9 665.610 211.210   1
  14 -13   9 308.626 178.472   2
  -1  14   9 131.168 173.552   1
  14 -13   9 570.238 164.889   1
  14 -13   9 794.148 189.808   4
  13 -14   9 535.148 177.955   3
  13 -14   9 486.905 153.147   1
 -14   1   9 395.970 194.382   3
  13 -14   9 788.709 240.182   2
 -13  -1   9 528.715 222.721   3
  14 -13   9 627.656 155.995   3
  14 -12 -10 756.947 180.473   4
  12 -14  -7 2170.56 219.342   4
  12 -14  -7 2346.27 228.347   2
  14 -12  -7 2801.34 257.487   4
  14 -12  -7 2467.41 274.271   2
 -14   2  -4 1522.81 165.742   4
  14 -12  -4 1233.90 189.879   4
 -12  -2  -4 1405.76 157.093   2
   2  12  -4 1158.24 71.2167   1
 -14   2  -4 1151.67 156.667   2
  12 -14  -4 1258.46 174.782   4
  12 -14  -4 1693.63 172.629   2
 -12  -2  -4 1571.45 161.443   4
  -2  14  -4 1565.00 120.909   1
  14 -12  -4 1197.92 181.245   2
  -2  14  -1 6094.86 268.001   1
 -12  -2  -1 6322.29 327.678   4
 -12  -2  -1 5876.41 254.009   3
 -14   2  -1 6284.89 211.367   3
  12 -14  -1 5749.97 269.563   2
 -14   2  -1 5709.92 298.336   2
  14 -12  -1 5872.30 325.900   4
 -12  -2  -1 6068.47 291.671   2
  12 -14  -1 5540.92 308.179   1
  12 -14  -1 6353.76 328.452   4
 -14   2  -1 5687.77 323.313   4
  14 -12  -1 5541.30 294.670   2
  14 -12  -1 5923.18 314.363   1
   2  12  -1 6305.75 259.303   1
   2  12  -1 4820.92 261.094   3
  -2  14  -1 5373.89 271.967   3
  14 -12   2 2841.18 241.857   1
  14 -12   2 2823.23 112.345   3
  14 -12   2 2949.52 236.164   2
  -2  14   2 2617.68 239.590   1
  12 -14   2 3085.54 251.873   4
  14 -12   2 3186.64 250.857   4
  12 -14   2 3040.49 257.808   2
 -12  -2   2 3032.39 264.567   2
   2  12   2 3039.22 236.253   1
  12 -14   2 3167.12 246.622   1
 -14   2   2 3343.36 199.323   3
 -12  -2   2 2949.59 211.030   3
  12 -14   2 3005.86 170.415   3
  12 -14   5 4482.81 292.013   1
 -14   2   5 4587.99 305.835   3
  12 -14   5 4108.95 303.971   2
  14 -12   5 4388.67 296.533   4
  14 -12   5 4315.14 307.455   2
  12 -14   5 4254.98 308.014   4
   2  12   5 4602.77 329.086   1
  -2  14   5 4239.10 319.673   1
  14 -12   5 4411.01 208.887   3
 -12  -2   5 3993.74 293.426   3
  12 -14   5 4503.58 245.065   3
  14 -12   8 879.455 155.093   3
  12 -14   8 649.989 196.724   2
  14 -12   8 820.232 205.336   2
  -2  14   8 625.213 210.523   1
 -14   2   8 787.417 209.535   3
  14 -12   8 971.970 192.732   4
  12 -14   8 1156.25 201.146   4
   2  12   8 879.574 240.386   1
 -12  -2   8 1005.11 221.861   3
  12 -14   8 685.348 152.641   3
  14 -11  -8 601.622 162.010   4
  11 -14  -8 518.154 131.610   4
 -11  -3  -5 253.246 91.0166   2
  14 -11  -5 451.641 163.546   2
  11 -14  -5 362.842 114.786   2
 -14   3  -5 183.791 92.1839   4
  14 -11  -5 293.762 145.114   4
  11 -14  -5 600.935 131.083   4
 -11  -3  -5 605.533 106.311   4
  -3  14  -2 350.510 92.1951   1
 -11  -3  -2 172.526 96.8324   3
 -11  -3  -2 180.264 115.277   4
  14 -11  -2 392.376 154.240   4
   3  11  -2 363.200 86.2563   1
 -14   3  -2 291.621 115.215   2
  11 -14  -2 323.265 127.493   1
 -14   3  -2 376.964 128.080   4
  11 -14  -2 226.049 96.4199   2
   3  11  -2 208.675 107.950   3
  14 -11  -2 359.596 141.838   2
  11 -14  -2 258.807 136.687   4
 -11  -3  -2 373.877 102.858   2
  -3  14  -2 281.000 108.483   3
  14 -11  -2 235.552 118.831   1
  11 -14   1 1319.09 136.869   3
  14 -11   1 1778.96 201.948   4
 -14   3   1 1388.98 121.664   3
 -14   3   1 1287.50 180.468   2
 -11  -3   1 1398.12 158.423   3
  11 -14   1 1146.62 166.268   1
 -14   3   1 1531.48 207.972   4
  -3  14   1 1249.40 158.481   1
  11 -14   1 1275.90 195.918   4
 -11  -3   1 1208.57 192.497   4
  14 -11   1 1540.24 187.463   2
  11 -14   1 1218.67 162.297   2
   3  11   1 1380.13 173.519   1
 -11  -3   1 1309.07 183.305   2
   3  11   1 1258.70 161.112   3
  -3  14   1 1267.80 157.957   3
  14 -11   1 1241.55 176.022   1
  11 -14   4-80.5602 90.7312   3
  14 -11   4 127.135 117.194   2
  11 -14   4 78.9025 101.426   1
  14 -11   4 45.0574 59.2029   3
  -3  14   4 218.630 138.093   1
  11 -14   4-30.2096 136.080   2
  11 -14   4 86.0240 136.575   4
  14 -11   4 292.837 125.444   4
   3  11   4-137.173 146.710   1
 -11  -3   4-106.036 116.527   3
 -14   3   4 61.5933 105.893   3
  11 -14   7 535.213 135.151   1
  -3  14   7 767.837 201.063   1
  11 -14   7 631.835 178.624   4
  11 -14   7 274.451 156.634   2
 -14   3   7 704.075 197.652   3
  14 -11   7 864.641 175.699   4
   3  11   7 762.361 196.844   1
  14 -11   7 586.910 126.881   3
 -11  -3   7 599.578 190.880   3
  11 -14   7 547.881 152.630   3
 -14   3   7 785.781 154.866   1
  14 -11   7 588.375 176.080   2
  11 -14  10 670.233 197.363   4
   3  11  10 300.416 203.559   1
  11 -14  10 532.911 225.719   2
  14 -11  10 570.084 226.586   2
  14 -11  10 556.523 155.506   4
  11 -14  10 550.267 160.767   1
  -3  14  10 163.905 203.163   1
  14 -11  10 498.761 167.210   1
 -14   3  10 550.939 246.695   3
  14 -11  10 521.883 154.321   3
 -11  -3  10 632.227 246.623   3
  11 -14  10 185.669 174.085   3
  10 -14  -9 729.672 127.350   4
  14 -10  -9 1097.68 201.861   4
  14 -10  -6 276.100 171.696   2
  10 -14  -6 81.7910 94.7933   2
 -10  -4  -6 141.197 57.6218   4
  14 -10  -6 201.118 146.226   4
 -14   4  -6 158.887 108.507   4
  10 -14  -6 44.9521 100.894   4
 -14   4  -3 5297.98 289.187   2
 -10  -4  -3 5346.26 236.970   2
  -4  14  -3 4641.15 262.971   3
  14 -10  -3 5045.45 294.284   2
 -10  -4  -3 5205.96 259.395   4
  10 -14  -3 5123.79 235.961   2
  14 -10  -3 4771.47 284.381   1
  10 -14  -3 5300.92 291.552   4
   4  10  -3 5199.88 163.226   1
 -14   4  -3 5229.31 277.502   4
  -4  14  -3 5267.53 229.535   1
 -14   4   0 335.408 67.6149   3
  10 -14   0 89.8048 104.262   1
  -4  14   0 182.734 97.7208   3
  14 -10   0 477.519 141.376   2
  14 -10   0 434.204 140.539   1
  10 -14   0 153.880 99.4267   3
  10 -14   0 367.061 117.207   2
  10 -14   0 335.379 140.150   4
 -14   4   0 481.211 144.646   4
   4  10   0 176.056 108.659   1
 -10  -4   0 129.665 117.741   4
  14 -10   0 175.428 140.633   4
 -14   4   0 324.878 123.713   2
 -10  -4   0 327.015 113.781   3
  -4  14   0 140.854 104.784   1
 -10  -4   0 363.175 121.316   2
   4  10   0 282.979 109.987   3
  10 -14   3 1703.55 209.883   4
   4  10   3 1495.42 102.575   2
  10 -14   3 1826.48 202.902   2
  -4  14   3 1524.77 188.804   1
  14 -10   3 1921.36 204.768   2
  14 -10   3 1672.38 194.372   4
   4  10   3 1676.68 200.723   1
  10 -14   3 1669.25 173.003   1
 -14   4   3 1649.58 175.062   3
  14 -10   3 1579.81 205.866   1
 -10  -4   3 1717.02 184.759   3
  14 -10   3 1466.09 75.5234   3
  10 -14   3 1880.88 153.330   3
  10 -14   6 60.5831 142.738   2
  10 -14   6 326.380 122.511   3
  10 -14   6 124.848 134.082   4
  14 -10   6-28.7072 141.031   2
  14 -10   6-89.6827 93.8460   3
  10 -14   6 14.0175 102.073   1
  -4  14   6 233.797 146.220   1
 -14   4   6 244.978 111.805   1
 -14   4   6 34.1732 139.560   3
 -10  -4   6 108.328 133.761   3
   4  10   6 262.384 155.751   1
  14 -10   6 185.840 132.558   4
  10 -14   9 1156.96 211.927   4
  14 -10   9 738.529 159.018   3
  10 -14   9 1540.98 276.797   2
  14 -10   9 1047.45 218.185   2
  14 -10   9 1060.73 169.759   4
  10 -14   9 1152.65 174.391   1
   4  10   9 1487.95 263.524   1
  10 -14   9 1245.66 223.009   3
  14 -10   9 1118.70 215.000   1
 -14   4   9 541.209 214.382   3
 -10  -4   9 865.748 240.573   3
 -14   4   9 1062.85 169.224   1
  -4  14   9 620.761 200.297   1
  14  -9 -10 527.803 165.883   4
  14  -9  -7 1825.28 226.171   4
   9 -14  -7 1459.15 161.201   4
 -14   5  -4 1284.00 160.262   4
  -9  -5  -4 1420.37 128.203   2
   9 -14  -4 1520.57 170.357   4
  -9  -5  -4 1464.51 149.190   4
  14  -9  -4 1425.82 191.145   4
  14  -9  -4 1276.62 174.072   1
   9 -14  -4 1423.06 135.728   2
  14  -9  -4 1349.58 194.521   2
  -9  -5  -1 8020.30 312.158   3
   5   9  -1 8335.97 286.124   1
 -14   5  -1 6958.79 144.058   3
   9 -14  -1 8200.50 350.969   1
 -14   5  -1 8034.67 340.147   2
  -9  -5  -1 8071.59 360.590   4
   9 -14  -1 7524.59 349.972   4
  14  -9  -1 7730.99 364.750   4
   5   9  -1 7726.06 312.684   3
 -14   5  -1 7147.74 335.642   4
   9 -14  -1 7507.32 269.492   2
  -9  -5  -1 7996.73 300.304   2
  -5  14  -1 7678.95 304.468   1
  14  -9  -1 7394.45 341.604   2
  14  -9  -1 7960.03 347.439   1
  -5  14  -1 7807.36 302.381   3
   9 -14   2 5019.14 310.966   4
  14  -9   2 5211.22 293.986   2
  -9  -5   2 4696.12 258.747   3
   9 -14   2 5236.95 277.142   2
  14  -9   2 5241.42 289.923   4
 -14   5   2 4888.58 304.251   4
   5   9   2 5230.67 293.562   1
  -5  14   2 4888.48 286.205   1
  14  -9   2 4929.57 308.756   1
  -9  -5   2 5312.53 347.118   4
   9 -14   2 4993.99 263.626   1
 -14   5   2 5300.84 230.698   3
 -14   5   2 4893.00 304.104   2
  -9  -5   2 5328.89 324.135   2
   5   9   2 4841.58 213.915   2
  -5  14   2 5122.76 293.071   3
   9 -14   2 5549.02 247.386   3
   5   9   2 4525.34 262.353   3
   5   9   5 3482.43 288.579   1
   9 -14   5 2772.19 256.443   4
  14  -9   5 3567.48 273.467   2
  14  -9   5 3041.70 240.300   4
 -14   5   5 3061.30 233.380   1
   5   9   5 2612.77 114.464   2
 -14   5   5 3499.85 266.882   3
  14  -9   5 3497.82 183.769   3
   9 -14   5 3009.47 205.022   1
  -9  -5   5 2701.54 249.930   3
  -5  14   5 3517.40 288.285   1
   9 -14   5 3537.84 233.172   3
  -9  -5   8 1195.97 243.160   3
  -5  14   8 669.284 59.4412   2
  -5  14   8 967.160 216.728   1
  -5  14   8 719.713 56.9921   2
   9 -14   8 1130.63 202.777   4
 -14   5   8 1029.54 165.367   1
  14  -9   8 1169.86 173.615   3
  14  -9   8 1294.95 215.264   2
  14  -9   8 884.644 172.210   1
   5   9   8 823.320 88.4560   2
  14  -9   8 1122.66 170.613   4
   5   9   8 1254.62 226.337   1
 -14   5   8 919.866 213.074   3
   9 -14   8 1151.05 203.164   3
   5   9   8 881.632 107.358   2
   9 -14   8 1017.79 155.619   1
   9 -14   8 955.827 148.316   1
   5   9  11 922.777 259.857   1
   9 -14  11 1310.92 312.999   2
   9 -14  11 1205.15 251.183   3
  14  -9  11 1001.50 221.583   2
   9 -14  11 1200.99 229.852   4
  -5  14  11 1628.78 302.713   1
  14  -9  11 1269.22 239.689   1
 -14   5  11 1271.81 281.191   3
  14  -9  11 1253.78 217.573   3
  -9  -5  11 1070.13 298.591   3
   8 -14  -8 847.452 115.522   4
  14  -8  -8 1068.26 205.612   4
  -8  -6  -5 1934.07 129.444   4
 -14   6  -5 2021.77 193.467   4
  14  -8  -5 1914.88 223.547   4
  14  -8  -5 2192.36 254.112   2
   8 -14  -5 2158.05 181.960   4
   8 -14  -5 2018.35 142.565   2
  14  -8  -5 1562.38 180.613   1
  -8  -6  -2 1656.25 182.594   3
   8 -14  -2 1821.87 184.080   4
  -8  -6  -2 1795.67 184.859   4
 -14   6  -2 1655.39 180.009   2
   6   8  -2 1845.49 129.356   1
  14  -8  -2 1413.62 201.337   4
   8 -14  -2 1672.65 127.141   2
  14  -8  -2 1505.27 198.624   2
  -8  -6  -2 2061.74 152.827   2
  -6  14  -2 1775.91 156.022   3
  14  -8  -2 2007.91 190.453   1
 -14   6  -2 1932.99 202.670   4
   8 -14  -2 1713.99 190.858   1
  -6  14  -2 1814.46 164.723   1
   6   8  -2 2026.47 182.759   3
  -6  14   1 4121.47 246.381   3
   8 -14   1 3939.13 226.065   3
 -14   6   1 3686.65 255.784   2
   8 -14   1 3595.44 223.862   1
  -6  14   1 3910.14 250.446   1
   8 -14   1 3743.52 276.891   4
   8 -14   1 3970.22 235.556   2
 -14   6   1 3783.37 268.202   4
  14  -8   1 3625.22 269.210   4
  14  -8   1 3726.99 252.152   2
  -8  -6   1 3960.59 288.620   4
   6   8   1 3922.15 225.278   2
  -8  -6   1 4125.87 269.196   2
 -14   6   1 3812.80 163.452   3
   6   8   1 4282.20 252.350   1
  14  -8   1 4145.03 275.751   1
  -8  -6   1 3981.69 237.570   3
   6   8   1 3643.04 225.146   3
   6   8   4 1289.26 107.915   2
   8 -14   4 1248.07 162.379   3
  -6  14   4 1051.21 68.7489   2
 -14   6   4 1331.89 182.674   1
  -8  -6   4 981.356 166.750   3
   8 -14   4 1258.07 148.172   1
  -6  14   4 1468.19 211.294   1
  14  -8   4 1506.80 178.174   4
  14  -8   4 1390.89 189.660   2
   6   8   4 1211.56 196.520   1
 -14   6   4 1301.80 178.560   3
  14  -8   4 1291.43 99.0118   3
  14  -8   7 1530.17 181.504   4
   6   8   7 1795.64 266.494   1
   8 -14   7 1435.59 207.467   4
   6   8   7 1523.52 120.470   2
  -6  14   7 1585.41 230.680   1
 -14   6   7 1928.30 251.911   3
 -14   6   7 1427.18 189.761   1
  -6  14   7 1086.69 82.3474   2
  14  -8   7 1496.74 226.620   2
  14  -8   7 1387.56 166.639   3
  -8  -6   7 1584.97 237.259   3
   8 -14   7 1199.58 140.177   1
   8 -14   7 1824.60 223.885   3
   8 -14  10-44.7822 159.842   4
 -14   6  10 459.102 162.318   1
   8 -14  10 312.880 189.067   3
  14  -8  10 230.063 150.208   1
   6   8  10 222.330 187.703   1
  14  -8  10 302.335 189.428   2
  -6  14  10-182.441 196.995   1
  -8  -6  10 156.757 189.418   3
 -14   6  10 230.264 215.751   3
  14  -8  10 187.300 126.259   3
  14  -7  -9 1842.85 251.634   4
  14  -7  -6 113.145 150.321   4
  14  -7  -6 2.06880 173.412   2
   7 -14  -6 160.879 97.1711   4
  14  -7  -6 182.027 122.155   1
  -7  -7  -6 7.70687 30.9498   4
  -7  -7  -3 3251.86 162.971   2
 -14   7  -3 3333.63 240.206   4
 -14   7  -3 3335.22 239.481   2
   7   7  -3 3365.82 145.733   1
  -7  14  -3 3215.74 213.801   1
  -7  -7  -3 3619.26 226.547   4
  14  -7  -3 3513.48 237.087   1
  -7  14  -3 3023.27 199.457   3
   7 -14  -3 3535.26 228.928   4
   7 -14  -3 3330.68 152.207   2
  14  -7  -3 3246.82 266.709   2
  14  -7  -3 3326.93 277.261   4
   7   7   0 491.633 147.135   2
   7 -14   0 513.052 159.188   4
  -7  14   0 395.310 110.346   3
  -7  -7   0 187.851 104.781   3
   7 -14   0 452.278 125.537   3
  -7  14   0 631.716 144.366   1
  14  -7   0 460.867 142.156   1
   7 -14   0 217.217 105.198   1
  14  -7   0 317.237 132.285   4
 -14   7   0 435.664 135.826   4
  -7  -7   0 480.101 126.244   2
  -7  -7   0 452.173 149.685   4
  14  -7   0 510.048 139.666   2
   7 -14   0 482.083 108.681   2
   7   7   0 441.566 110.167   1
 -14   7   0 628.584 127.671   2
   7   7   0 509.992 112.163   3
   7   7   0 311.514 142.536   4
 -14   7   0 377.700 49.2129   3
  14  -7   3 2993.54 225.173   4
  14  -7   3 2494.61 95.4848   3
  -7  14   3 3105.08 256.252   3
   7   7   3 3398.06 265.208   1
   7 -14   3 2678.03 184.079   1
   7   7   3 3056.17 170.263   2
 -14   7   3 2576.30 234.240   2
 -14   7   3 2813.29 229.137   1
  -7  14   3 3021.23 139.053   2
  14  -7   3 3214.50 241.791   2
   7 -14   3 3201.21 213.953   3
 -14   7   3 2826.64 240.972   4
  14  -7   3 2739.56 94.4311   3
   7   7   3 2794.67 224.013   3
  -7  -7   3 3182.21 237.432   3
 -14   7   3 2932.85 212.893   3
  -7  14   3 3034.40 250.490   1
 -14   7   6 67.9604 140.064   3
 -14   7   6-32.6526 121.501   1
   7 -14   6 70.9962 76.1115   1
  -7  14   6-190.057 145.317   1
  -7  14   6 87.0871 54.7868   2
  14  -7   6-45.9681 86.8870   3
   7   7   6-0.92805 65.9646   2
   7   7   6 26.5853 136.886   1
  14  -7   6-5.93282 143.762   2
   7 -14   6-192.938 139.845   3
  -7  -7   6 143.427 135.799   3
  14  -7   6 79.8501 113.334   4
  -7  14   9 1240.64 243.495   1
   7 -14   9 1260.68 226.247   4
   7   7   9 1493.99 282.385   1
  14  -7   9 1155.65 212.631   2
  -7  -7   9 1083.80 219.215   3
   7 -14   9 873.332 116.091   1
  14  -7   9 1354.47 156.598   4
  14  -7   9 913.328 181.065   3
 -14   7   9 1219.89 265.901   3
 -14   7   9 1403.29 218.532   1
   7 -14   9 1340.19 230.539   3
   7   7   9 1197.40 139.194   2
  14  -7   9 1019.99 205.377   1
  14  -6 -10 134.043 154.360   4
  14  -6  -7 1014.13 159.418   1
  14  -6  -7 1178.08 236.413   2
   6 -14  -7 1237.45 125.680   4
  14  -6  -7 1618.60 241.315   4
  14  -6  -4 977.943 199.987   2
  14  -6  -4 1224.55 151.468   1
   8   6  -4 1325.22 83.9175   1
  -6  -8  -4 1293.10 92.8688   2
   6 -14  -4 1458.72 155.144   4
 -14   8  -4 1426.83 174.911   4
  14  -6  -4 1267.12 197.477   4
  -6  -8  -4 1413.61 142.651   4
   8   6  -4 1616.88 227.325   4
   8   6  -4 1245.84 79.0342   1
  -8  14  -4 1538.54 163.414   3
   6 -14  -4 1258.45 83.0263   2
  -6  -8  -1 3550.58 236.058   3
  -8  14  -1 3684.66 232.344   1
  -6  -8  -1 3885.52 266.228   4
   8   6  -1 3882.11 281.617   2
   6 -14  -1 3637.00 245.730   3
  14  -6  -1 3629.89 247.782   1
   6 -14  -1 3774.20 180.919   2
  14  -6  -1 3436.95 267.875   4
  -8  14  -1 3754.49 201.561   3
 -14   8  -1 3469.89 244.287   2
 -14   8  -1 3728.43 257.039   4
   8   6  -1 3877.34 209.102   1
  14  -6  -1 3322.52 256.409   2
   6 -14  -1 3465.35 252.504   4
   8   6  -1 3227.24 272.353   4
  -6  -8  -1 3755.87 201.911   2
   6 -14  -1 3426.67 232.547   1
   8   6  -1 3734.98 214.114   3
   8   6   2 1822.29 203.639   1
  -6  -8   2 1746.04 181.525   3
 -14   8   2 1988.20 213.974   4
  -8  14   2 1642.30 130.694   2
  14  -6   2 1996.50 199.243   2
  14  -6   2 1828.53 197.098   4
 -14   8   2 2245.02 225.286   1
 -14   8   2 1814.97 189.153   2
   8   6   2 1575.80 180.325   4
  -8  14   2 1600.35 180.064   3
  -8  14   2 2076.53 208.689   1
 -14   8   2 1845.07 155.659   3
   8   6   2 1651.74 154.491   2
  -6  -8   2 2028.84 241.561   4
   6 -14   2 1497.45 145.721   1
  -6  -8   2 1884.76 210.435   2
   6 -14   2 1312.41 162.905   3
   8   6   2 1633.57 159.779   3
  14  -6   5 1841.95 203.906   2
 -14   8   5 2158.52 226.285   3
  -8  14   5 1881.01 120.202   2
  -8  14   5 1820.56 225.923   1
  14  -6   5 2054.37 186.606   4
   6 -14   5 1932.61 144.011   1
   8   6   5 1909.21 241.165   1
   8   6   5 1955.72 141.255   2
 -14   8   5 1872.79 201.251   1
  14  -6   5 2010.00 151.352   3
  -6  -8   5 1839.91 221.217   3
   6 -14   5 2011.63 213.215   3
  14  -6   8 866.468 142.353   4
   6 -14   8 838.535 106.332   1
  -8  14   8 841.475 121.759   2
  -6  -8   8 1001.52 225.271   3
 -14   8   8 1245.60 239.442   3
  -8  14   8 1051.42 226.560   1
   6 -14   8 1070.93 201.722   3
   8   6   8 1000.42 132.657   2
  14  -6   8 1004.89 184.851   2
  14  -6   8 1159.62 184.230   3
 -14   8   8 1004.59 181.216   1
   6 -14   8 781.315 98.5615   1
   8   6   8 941.599 219.254   1
  14  -6   8 1518.58 245.810   1
   8   6  11 615.197 230.224   1
   8   6  11 326.865 205.384   3
 -14   8  11 756.663 203.164   1
   6 -14  11 631.640 194.902   4
  -6  -8  11 388.013 246.624   3
  14  -6  11 494.366 192.545   1
  -8  14  11 734.971 269.801   3
  14  -6  11 725.931 208.699   2
  -8  14  11 549.740 224.944   1
 -14   8  11 1169.44 293.007   3
  14  -6  11 914.940 215.310   3
   6 -14  11 906.187 243.608   3
  14  -5  -8 1157.69 225.400   4
  14  -5  -5 2541.91 202.299   1
  14  -5  -5 2592.06 269.984   4
   5 -14  -5 2859.60 186.955   4
  -5  -9  -5 2673.61 152.502   4
  -9  14  -5 2460.13 207.966   3
  14  -5  -5 2421.46 271.503   2
   9   5  -5 2802.08 295.137   4
   9   5  -2 4661.73 252.992   3
  -5  -9  -2 4800.29 290.021   3
  -9  14  -2 4764.29 267.549   1
   5 -14  -2 4899.57 286.605   4
  -5  -9  -2 5064.07 287.313   1
 -14   9  -2 4261.86 265.425   2
  14  -5  -2 4706.10 317.370   4
  -5  -9  -2 4608.26 265.396   4
  -5  -9  -2 5089.51 197.153   2
   9   5  -2 4450.90 314.448   4
  14  -5  -2 4867.10 312.657   2
   5 -14  -2 4534.48 160.536   2
  -9  14  -2 4794.79 220.174   3
   9   5  -2 4844.23 325.130   2
 -14   9  -2 5212.13 296.543   4
  14  -5  -2 4861.91 267.255   1
   5 -14  -2 5263.90 288.981   1
   9   5   1 7668.93 283.659   3
   9   5   1 7887.94 336.923   1
 -14   9   1 7423.73 353.154   4
 -14   9   1 7452.82 357.711   1
  14  -5   1 7774.38 368.535   4
  -9  14   1 6988.07 327.888   1
 -14   9   1 7718.95 227.613   3
 -14   9   1 7362.19 323.917   2
  14  -5   1 6891.33 321.841   2
  -5  -9   1 7444.71 381.661   4
  -5  -9   1 8037.02 360.001   2
   9   5   1 7377.62 313.775   2
   5 -14   1 7247.24 284.612   1
  -9  14   1 7800.78 279.661   2
   9   5   1 7673.46 360.285   4
  -9  14   1 7848.53 318.410   3
  -5  -9   1 6695.84 304.913   3
   5 -14   1 8380.11 325.815   3
   5 -14   4 1249.37 118.302   1
 -14   9   4 1097.74 179.676   4
  14  -5   4 1137.21 110.660   3
   9   5   4 1464.97 139.628   2
   9   5   4 1423.15 201.612   1
   9   5   4 1321.56 146.479   4
   9   5   4 1176.84 162.528   3
  -9  14   4 1233.09 113.085   2
 -14   9   4 1322.55 183.598   1
  -9  14   4 1275.71 176.970   4
  14  -5   4 1250.27 164.141   4
  14  -5   4 1461.11 185.676   2
 -14   9   4 1309.24 178.766   2
  14  -5   4 1453.44 114.967   3
 -14   9   4 1527.20 179.048   3
  -9  14   4 1094.55 182.408   1
  -5  -9   4 1060.74 171.583   3
   5 -14   4 993.180 158.250   3
  -9  14   7 1555.91 236.182   1
   5 -14   7 1355.99 105.258   1
   5 -14   7 1056.92 97.4454   1
   9   5   7 1757.30 265.402   1
  14  -5   7 1827.66 212.061   2
  14  -5   7 1706.17 251.332   1
   9   5   7 1677.72 159.972   2
  14  -5   7 1981.77 200.580   3
 -14   9   7 1610.17 249.558   3
 -14   9   7 1494.59 207.734   1
  -5  -9   7 1945.11 248.201   3
   5 -14   7 1859.60 234.580   3
  14  -5   7 1970.93 182.966   4
  -9  14   7 1627.07 149.394   2
  14  -5  10 524.605 164.238   2
  14  -5  10 567.672 207.750   1
   9   5  10 112.815 117.924   2
  -9  14  10 260.156 185.861   1
   5 -14  10 694.457 210.727   3
  -9  14  10 466.439 238.703   3
 -14   9  10 716.075 232.384   3
  14  -5  10 428.566 171.982   3
 -14   9  10 233.491 170.901   1
   9   5  10 694.744 240.867   1
  -5  -9  10 546.854 220.108   3
  14  -4  -9 1110.69 235.464   4
  10   4  -6 30.8490 153.531   4
  14  -4  -6-75.7072 175.785   2
  -4 -10  -6 72.5350 38.6966   4
   4 -14  -6 112.954 73.1388   4
  14  -4  -6 145.285 104.041   1
  -4 -10  -6 91.6990 39.8123   4
  14  -4  -6 59.3909 158.155   4
   4 -14  -3 1747.18 74.3557   2
   4 -14  -3 2152.28 184.602   4
 -14  10  -3 2071.02 216.261   4
  -4 -10  -3 2137.76 188.686   4
  10   4  -3 2071.62 146.114   1
  14  -4  -3 2101.78 186.510   3
  14  -4  -3 2088.14 246.837   4
  14  -4  -3 2051.85 183.692   1
  10   4  -3 2174.55 199.929   3
  14  -4  -3 2056.38 238.046   2
 -10  14  -3 2077.08 155.381   3
  -4 -10  -3 1957.73 98.0513   2
 -10  14  -3 2317.64 206.532   1
  10   4  -3 2177.93 249.553   2
  10   4  -3 2092.11 258.098   4
  10   4   0 231.075 124.646   2
  14  -4   0 319.402 140.569   4
  -4 -10   0 354.006 120.916   2
 -14  10   0 214.472 124.767   4
   4 -14   0 332.735 106.782   1
  -4 -10   0 227.029 124.645   3
 -14  10   0 228.097 108.027   2
   4 -14   0 246.553 124.589   3
 -14  10   0 370.112 154.931   1
  14  -4   0 532.569 149.926   1
 -10  14   0 128.036 134.382   1
  -4 -10   0 457.901 115.300   1
  10   4   0 325.915 166.876   4
 -10  14   0 287.724 104.801   2
 -14  10   0 306.996 62.3446   3
 -10  14   0 269.276 83.4873   3
  -4 -10   0 385.894 141.708   4
  10   4   0 308.774 95.1760   3
  14  -4   0 304.794 68.9549   3
  14  -4   0 192.981 119.407   2
   4 -14   3 5311.26 280.231   3
 -10  14   3 4983.91 300.312   3
 -14  10   3 5581.41 319.232   1
 -10  14   3 5124.75 295.738   4
  10   4   3 5795.86 334.091   1
 -10  14   3 5140.21 220.435   2
 -14  10   3 4730.35 297.336   4
  10   4   3 5198.33 248.084   2
  14  -4   3 5028.60 286.817   4
  10   4   3 5427.63 286.167   4
 -10  14   3 4883.51 303.049   1
 -14  10   3 4817.51 280.110   2
  14  -4   3 5493.24 295.922   2
 -14  10   3 4753.70 253.856   3
   4 -14   3 4979.38 210.137   1
  -4 -10   3 4864.67 292.290   3
  10   4   3 5155.43 259.519   3
  14  -4   3 5050.21 165.201   3
 -10  14   6-3.52575 78.2225   2
  14  -4   6 78.4146 96.2794   3
 -10  14   6-63.3604 107.065   4
  10   4   6-33.6348 155.067   1
 -10  14   6 101.058 155.157   1
  10   4   6-77.8585 83.3561   2
  14  -4   6 49.2753 106.304   4
   4 -14   6 54.3917 48.1027   1
 -14  10   6-54.2607 148.324   3
  14  -4   6 26.7960 110.243   2
 -14  10   6 335.320 157.484   1
  -4 -10   6 115.559 139.772   3
   4 -14   6 137.357 130.203   3
  14  -4   9 1087.64 245.031   1
 -10  14   9 541.048 197.329   1
 -14  10   9 805.623 257.472   3
 -14  10   9 759.697 203.562   1
  10   4   9 1075.39 166.101   2
  14  -4   9 1302.76 201.102   3
  10   4   9 1251.57 245.306   1
  -4 -10   9 1010.66 233.220   3
   4 -14   9 963.747 210.787   3
  14  -4   9 1120.41 197.372   2
  14  -3  -7 450.093 214.647   2
   3 -14  -7 296.323 60.7117   4
  11   3  -7 327.046 40.4409   1
  14  -3  -7 465.490 184.712   4
  14  -3  -7 604.064 120.552   1
 -14  11  -4-11.6488 113.633   4
  14  -3  -4 62.1288 154.920   2
  11   3  -4 189.924 181.536   2
   3 -14  -4 89.4549 87.6641   4
  14  -3  -4 118.753 100.606   1
  14  -3  -4 155.219 145.964   4
  -3 -11  -4 92.4744 90.5530   4
  11   3  -4-76.0008 171.287   4
  11   3  -4 92.5569 72.4926   1
 -11  14  -4-17.8662 81.8562   3
 -11  14  -1 1211.53 175.279   1
 -14  11  -1 1377.75 173.366   2
  11   3  -1 1210.57 191.976   2
  -3 -11  -1 1286.57 172.405   3
  14  -3  -1 1150.73 168.598   1
  14  -3  -1 1057.98 171.009   2
  14  -3  -1 1435.24 200.220   4
  11   3  -1 1434.97 219.190   4
   3 -14  -1 1367.37 172.670   1
   3 -14  -1 1158.29 171.142   3
  -3 -11  -1 1389.33 178.752   4
 -14  11  -1 1350.19 187.072   4
  14  -3  -1 1429.58 131.190   3
  -3 -11  -1 1154.90 130.091   2
  11   3  -1 1183.21 132.940   3
 -14  11  -1 963.575 55.7989   3
 -11  14  -1 1225.01 116.355   3
  -3 -11  -1 996.090 150.782   1
  -3 -11   2 101.773 125.354   3
   3 -14   2 334.495 119.154   3
  11   3   2 141.186 76.0565   3
 -14  11   2 238.493 98.1442   2
   3 -14   2 303.319 95.7685   1
  -3 -11   2 381.974 132.728   2
  11   3   2 395.422 142.195   1
 -11  14   2 350.441 120.745   3
 -11  14   2 97.5940 138.506   1
 -14  11   2 277.488 135.912   4
  -3 -11   2 320.190 81.9498   1
  14  -3   2 338.297 117.716   2
 -11  14   2 149.561 133.972   4
  14  -3   2 237.880 57.8871   3
  11   3   2 470.348 148.313   4
  -3 -11   2 176.905 137.660   4
  14  -3   2 347.369 137.602   4
 -14  11   2 204.931 139.672   1
  11   3   2 284.029 113.629   2
 -11  14   2 253.367 92.6999   2
   3 -14   5 310.963 62.8388   1
 -11  14   5 513.537 163.546   1
  11   3   5 339.216 102.979   4
  11   3   5 475.604 164.990   1
  11   3   5 307.142 126.368   3
 -14  11   5 487.176 143.190   2
  14  -3   5 275.587 99.6448   3
  14  -3   5 443.412 133.871   2
 -11  14   5 270.654 119.255   4
  14  -3   5 278.365 111.136   4
 -11  14   5 282.338 103.666   2
 -14  11   5 417.885 158.342   3
  11   3   5 270.838 92.9388   2
   3 -14   5 499.643 152.766   3
 -14  11   5 508.332 171.134   1
  -3 -11   5 286.003 138.954   3
  14  -3   8 470.253 153.967   2
 -14  11   8 680.304 180.364   1
  14  -3   8 585.205 161.040   3
 -11  14   8 377.814 142.089   4
 -11  14   8 544.764 141.943   2
  14  -3   8 444.411 184.565   1
   3 -14   8 373.234 163.017   3
  14  -3   8 493.120 101.299   4
  11   3   8 424.706 192.645   1
 -14  11   8 141.393 170.975   3
  11   3   8 540.956 140.368   2
  -3 -11   8 537.644 200.891   3
 -11  14   8 555.426 174.932   1
  12   2  -8 375.057 54.2479   1
  14  -2  -8 602.645 125.791   1
  14  -2  -5 3749.12 220.122   1
  12   2  -5 3975.20 183.571   1
  12   2  -5 3832.59 336.179   4
   2 -14  -5 3430.09 195.720   4
  14  -2  -5 4028.15 338.371   4
  -2 -12  -5 3698.36 199.638   4
  14  -2  -5 3563.71 334.223   2
 -12  14  -5 3852.26 230.850   3
  12   2  -5 3910.01 363.139   2
   2 -14  -2 2991.21 256.234   3
   2 -14  -2 2998.75 239.545   1
  14  -2  -2 2998.68 291.538   4
 -14  12  -2 2941.80 251.069   4
  12   2  -2 2809.01 270.274   2
   2 -14  -2 3197.23 131.087   2
  -2 -12  -2 2800.18 245.947   3
   2 -14  -2 3056.09 145.801   2
  14  -2  -2 3161.71 222.340   1
  12   2  -2 3079.43 295.017   4
 -12  14  -2 2894.48 235.086   1
  -2 -12  -2 2596.47 217.403   4
  -2 -12  -2 2887.32 142.913   2
  14  -2  -2 3143.92 206.730   3
 -14  12  -2 2527.04 99.8615   3
  12   2  -2 2808.51 209.781   3
  14  -2  -2 2779.13 260.349   2
 -12  14  -2 3094.06 158.286   3
  -2 -12  -2 2827.28 243.790   1
 -12  14   1 5742.55 264.096   3
  14  -2   1 5443.01 303.778   2
 -14  12   1 5340.26 222.178   3
 -14  12   1 5535.92 325.862   1
  -2 -12   1 5368.78 294.592   2
 -14  12   1 4839.16 303.814   4
  -2 -12   1 5342.07 242.422   1
  12   2   1 5936.53 337.267   4
  14  -2   1 4831.53 298.400   4
 -12  14   1 5513.49 264.778   2
  12   2   1 5429.44 291.231   2
 -14  12   1 5090.10 274.717   2
  -2 -12   1 5269.26 327.122   4
 -12  14   1 5325.93 320.030   1
  14  -2   1 5594.72 182.579   3
  12   2   1 5450.56 225.688   3
 -12  14   1 5406.28 319.281   4
  -2 -12   1 5149.45 292.612   3
   2 -14   1 5272.73 289.052   3
   2 -14   1 5497.06 250.615   1
   2 -14   4 1019.38 178.305   3
  14  -2   4 1280.14 168.353   4
  12   2   4 1411.14 164.215   3
  14  -2   4 1195.07 125.241   3
 -14  12   4 1277.94 179.988   2
 -14  12   4 1256.82 186.508   1
  12   2   4 1376.29 200.714   1
 -12  14   4 1124.25 174.346   4
 -12  14   4 1611.98 208.475   1
  14  -2   4 1523.21 191.077   2
  12   2   4 1603.24 175.263   4
  12   2   4 1124.63 154.071   2
   2 -14   4 1252.75 102.665   1
 -14  12   4 1179.21 185.793   4
  -2 -12   4 1229.52 189.991   3
 -12  14   4 1243.17 144.445   2
  12   2   7 2850.58 218.784   2
 -12  14   7 2473.55 238.384   4
  12   2   7 2652.65 307.580   1
  14  -2   7 2389.06 182.196   4
 -12  14   7 2592.38 274.080   1
  14  -2   7 2282.97 288.331   1
  -2 -12   7 2450.50 278.858   3
 -14  12   7 2565.90 268.134   1
  12   2   7 2191.06 138.311   4
   2 -14   7 2665.69 278.848   3
  14  -2   7 2891.46 245.181   2
 -12  14   7 2262.17 206.563   2
 -14  12   7 2477.46 290.690   3
 -12  14  10 824.554 224.650   1
 -14  12  10 821.665 215.274   1
  14  -2  10 644.668 184.542   2
  12   2  10 520.932 163.683   2
  14  -2  10 894.468 238.606   1
  12   2  10 527.928 164.564   3
  -2 -12  10 776.873 252.671   3
 -12  14  10 997.959 285.872   3
  14  -2  10 832.435 215.990   3
 -14  12  10 795.536 250.678   3
  12   2  10 766.112 240.873   1
   2 -14  10 818.740 228.433   3
  14  -1  -9 983.493 228.936   4
  13   1  -6 181.241 226.080   2
  -1 -13  -6 44.4354 55.1995   4
  14  -1  -6 259.229 93.8587   1
  14  -1  -6-1.77747 174.005   4
   1 -14  -6 42.5289 75.0060   4
 -13  14  -6 168.305 102.581   3
  -1 -13  -6 75.5040 69.4221   4
  13   1  -6 42.4090 70.2738   1
   1 -14  -6 107.862 72.7668   4
  13   1  -6 289.097 174.746   4
  14  -1  -6 201.310 184.797   2
  14  -1  -3 195.250 170.913   2
  13   1  -3 18.2896 157.669   2
  13   1  -3 76.4705 88.8049   1
 -14  13  -3 251.152 65.1366   3
 -13  14  -3 249.564 77.7835   3
  13   1  -3 86.9144 109.748   3
  13   1  -3 19.8179 152.481   4
  14  -1  -3 28.3672 150.652   4
  14  -1  -3 91.4018 90.0695   1
  14  -1  -3 198.953 112.521   3
 -13  14   0 570.862 95.2318   3
  -1 -13   0 308.960 123.814   3
 -14  13   0 386.710 151.619   1
   1 -14   0 486.151 148.194   3
 -14  13   0 651.377 159.446   4
 -13  14   0 591.012 150.761   4
 -14  13   0 454.243 122.720   2
 -13  14   0 763.933 137.281   2
  13   1   0 575.821 103.660   3
 -13  14   0 507.720 156.986   1
  14  -1   0 672.065 176.696   4
  13   1   0 648.349 164.478   4
  -1 -13   0 529.162 123.016   1
  -1 -13   0 646.300 137.663   2
 -14  13   0 620.795 93.6879   3
   1 -14   0 617.196 135.927   1
  14  -1   0 608.602 170.913   2
  14  -1   0 556.623 88.9889   3
  13   1   0 577.450 160.556   2
  -1 -13   3 1304.82 177.820   3
  13   1   3 1344.31 177.526   4
 -14  13   3 1130.02 172.492   4
  14  -1   3 1561.48 181.447   2
 -13  14   3 1493.58 193.216   4
 -13  14   3 1266.92 148.467   2
   1 -14   3 1377.43 121.569   1
  14  -1   3 1340.72 179.879   4
  13   1   3 1334.21 165.566   2
 -13  14   3 1447.11 196.872   1
 -14  13   3 1402.58 196.313   1
 -14  13   3 1251.73 164.430   2
   1 -14   3 1407.34 187.197   3
  14  -1   3 1324.85 120.633   3
  -1 -13   3 1342.58 109.549   1
  13   1   3 1452.32 143.603   3
  13   1   6 51.0002 90.0965   2
  14  -1   6 11.6438 106.085   3
 -13  14   6-48.5264 137.468   1
  14  -1   6-153.667 132.516   1
 -13  14   6-4.34980 125.433   4
  14  -1   6 113.289 98.6080   4
  14  -1   6 106.993 110.486   2
  13   1   6 79.7977 92.6310   4
 -13  14   6 95.4075 107.929   2
 -14  13   6 234.903 160.856   1
  13   1   6-150.211 165.906   1
  -1 -13   6-178.588 150.344   3
   1 -14   6-39.9885 131.115   3
 -13  14   9 712.988 222.640   1
  14  -1   9 931.965 197.489   3
 -14  13   9 685.006 212.123   1
  13   1   9 995.333 205.186   3
  14  -1   9 908.942 225.134   1
 -13  14   9 1094.99 271.698   3
  14  -1   9 850.550 167.289   2
  13   1   9 848.643 169.743   2
  13   1   9 813.713 238.546   1
 -14  13   9 697.895 222.897   3
  -1 -13   9 636.404 216.806   3
   1 -14   9 515.644 185.867   3
  14   0  -7 151.836 85.0977   1
  14   0  -7 79.9943 185.030   4
   0 -14  -7 47.8879 37.4873   4
 -14  14  -4 315.206 91.8691   3
  14   0  -4 393.179 190.904   2
  14   0  -4 225.777 100.738   1
  14   0  -4 266.765 190.260   4
   0 -14  -1 13.4643 85.3461   2
   0 -14  -1 200.923 143.266   3
  14   0  -1 190.659 157.773   4
   0 -14  -1-73.5009 115.273   1
 -14  14  -1 20.7806 57.2067   3
 -14  14  -1-53.1063 107.465   2
 -14  14  -1-3.93015 133.338   1
  14   0  -1-79.7023 87.1916   3
  14   0  -1 8.71520 134.389   2
  14   0   2 230.561 77.0022   3
   0 -14   2 41.6114 123.295   3
  14   0   2 212.049 125.796   4
 -14  14   2 246.138 140.598   1
 -14  14   2 175.752 99.4365   2
   0 -14   2 136.924 85.3499   1
  14   0   2 28.5877 114.956   2
  14   0   5-111.658 114.120   2
  14   0   5 29.0421 106.122   4
  14   0   5 54.8594 103.084   3
  14   0   5 291.742 159.879   1
 -14  14   5 111.803 137.362   1
   0 -14   5 281.060 154.073   3
 -14  14   5 171.736 116.031   2
 -14  14   8-170.193 186.622   3
 -14  14   8 428.524 187.928   1
  14   0   8 27.3031 110.676   2
  14   0   8 43.1474 57.3124   4
  14   0   8-50.9776 161.235   1
   0 -14   8 54.1649 161.343   3
  15 -15  -9 26.3584 150.896   4
  15 -15  -6 231.248 150.468   2
  15 -15  -6 514.993 164.808   4
 -15   0  -6 446.712 121.697   4
   0  15  -3-7.93967 72.4753   1
  15 -15  -3 219.606 142.619   4
 -15   0  -3 116.057 110.931   4
 -15   0  -3-64.3548 107.687   2
  15 -15  -3-26.5395 109.311   2
  15 -15   0 1675.51 218.164   4
  15 -15   0 1770.65 191.511   2
   0  15   0 1568.40 180.856   1
 -15   0   0 1863.13 158.413   3
  15 -15   3-35.7839 65.2375   3
   0  15   3 43.0839 135.299   1
  15 -15   3 9.64684 136.369   2
  15 -15   3 77.6537 136.263   4
 -15   0   3 68.4220 110.920   3
   0  15   6 759.904 197.573   1
  15 -15   6 274.667 156.369   4
  15 -15   6 517.410 176.344   2
 -15   0   6 454.539 171.867   3
  15 -15   6 443.567 117.960   3
  15 -15   9-66.7024 182.841   2
   0  15   9 104.268 174.913   1
 -15   0   9 301.739 195.016   3
  15 -15   9-213.686 161.772   4
  15 -15   9-78.1686 115.884   3
  15 -14 -10 1174.90 207.916   4
 -15   1  -7 2492.83 179.568   4
 -14  -1  -7 2499.51 162.742   4
  14 -15  -7 2543.48 245.158   4
  15 -14  -7 3001.22 276.625   4
  14 -15  -7 2997.36 274.391   2
  14 -15  -4 2119.26 225.471   4
  -1  15  -4 2254.19 141.996   1
 -14  -1  -4 2111.73 196.315   2
  15 -14  -4 2072.94 212.041   2
 -15   1  -4 2050.44 194.520   4
 -14  -1  -4 2152.41 193.951   4
   1  14  -4 2195.21 121.164   1
  15 -14  -4 1971.88 222.269   4
  14 -15  -4 1691.10 194.722   2
 -14  -1  -1 2643.93 180.307   3
 -15   1  -1 2592.04 164.618   3
 -15   1  -1 2753.02 226.069   2
  15 -14  -1 2549.48 211.560   2
  14 -15  -1 2688.73 249.676   4
  15 -14  -1 2717.55 253.068   4
 -15   1  -1 2949.74 257.173   4
  14 -15  -1 3065.92 230.006   2
 -14  -1  -1 2741.53 220.159   2
   1  14  -1 3238.63 209.342   1
 -14  -1  -1 2910.46 253.096   4
  -1  15  -1 2832.73 198.941   1
  14 -15   2 1622.25 132.865   3
  15 -14   2 1520.35 106.517   3
  14 -15   2 1367.93 182.941   2
  14 -15   2 1835.15 230.989   4
   1  14   2 1840.12 206.922   1
  15 -14   2 1374.47 205.703   4
  -1  15   2 1790.81 206.790   1
 -15   1   2 1543.20 157.898   3
 -14  -1   2 1557.13 166.308   3
  15 -14   2 1590.52 206.385   2
  14 -15   5 8182.78 435.004   2
  14 -15   5 7842.34 306.572   3
  15 -14   5 8393.08 417.759   4
  15 -14   5 7401.13 417.593   2
   1  14   5 8317.14 447.906   1
  -1  15   5 7773.49 436.454   1
  14 -15   5 7469.87 400.302   4
 -14  -1   5 8234.55 409.682   3
 -15   1   5 8061.15 405.356   3
  15 -14   5 8349.52 288.475   3
  15 -14   8 1416.34 172.060   3
   1  14   8 1728.50 278.392   1
  14 -15   8 1464.05 250.569   2
  -1  15   8 1476.08 260.362   1
  15 -14   8 1574.06 230.507   4
  14 -15   8 1596.62 228.410   4
  15 -14   8 1242.58 250.530   2
 -14  -1   8 1366.43 247.748   3
  14 -15   8 1263.90 187.412   3
 -15   1   8 1311.80 242.456   3
  15 -13  -8 8.19578 152.962   2
  13 -15  -8-12.7203 118.605   4
  15 -13  -8 202.571 145.250   4
  13 -15  -5 53.4464 110.131   2
 -13  -2  -5 280.142 110.883   2
 -15   2  -5 261.298 110.110   4
  15 -13  -5 570.051 167.064   2
  15 -13  -5 199.364 137.461   4
  13 -15  -5 456.731 152.493   4
 -13  -2  -5 278.663 101.334   4
 -13  -2  -2 923.584 161.657   4
 -15   2  -2 889.195 167.757   4
 -13  -2  -2 1146.18 153.142   3
  -2  15  -2 958.249 130.653   1
   2  13  -2 1065.91 118.640   1
  15 -13  -2 847.179 167.371   4
 -15   2  -2 1009.01 160.607   2
  15 -13  -2 909.377 160.989   2
  13 -15  -2 816.408 131.899   2
 -13  -2  -2 958.237 140.317   2
  13 -15  -2 867.562 161.850   4
 -13  -2   1 491.333 113.945   3
   2  13   1 539.007 143.429   1
  -2  15   1 598.841 141.348   1
  15 -13   1 612.542 142.218   2
  13 -15   1 539.136 103.757   3
 -13  -2   1 530.708 136.854   2
  15 -13   1 394.936 153.148   4
  13 -15   1 573.498 153.320   2
  13 -15   1 600.398 145.424   1
 -15   2   1 537.320 94.5860   3
  13 -15   1 61.2349 127.632   4
  15 -13   4 54.8920 63.4957   3
  13 -15   4 87.5572 85.7296   3
  13 -15   4 171.255 115.292   1
  -2  15   4 174.611 151.481   1
 -13  -2   4-52.1798 121.494   3
  15 -13   4-214.081 140.144   2
  15 -13   4 102.767 126.214   4
  13 -15   4 248.221 139.114   2
 -15   2   4-63.4344 128.086   3
  13 -15   4 177.140 145.830   4
   2  13   4-173.735 156.530   1
   2  13   7 437.189 194.413   1
  13 -15   7 834.573 213.082   2
  -2  15   7 613.507 210.125   1
  15 -13   7 473.210 166.606   4
  15 -13   7 853.581 202.408   2
 -15   2   7 411.314 170.743   3
 -13  -2   7 495.545 174.423   3
  15 -13   7 578.485 117.869   3
  13 -15   7 597.330 147.567   3
  13 -15   7 463.428 159.736   4
  15 -13  10-171.417 162.080   4
  -2  15  10 372.588 214.072   1
  13 -15  10 322.522 182.187   4
  15 -13  10 192.176 158.577   1
  13 -15  10-185.433 156.658   1
  13 -15  10 115.020 190.531   2
   2  13  10-185.041 222.025   1
 -13  -2  10-27.7708 192.780   3
  15 -13  10-153.469 176.757   2
 -15   2  10 34.7562 201.138   3
  15 -13  10-64.5259 123.457   3
  13 -15  10 335.474 159.899   3
  12 -15  -9-16.6484 117.230   4
  15 -12  -9 76.7571 141.697   4
  15 -12  -6 1546.04 225.018   2
 -15   3  -6 1412.32 164.046   4
  12 -15  -6 1853.26 208.000   4
 -12  -3  -6 1441.52 132.809   4
  15 -12  -6 1696.30 225.741   4
  12 -15  -6 1543.61 176.778   2
 -15   3  -3 1284.40 171.111   4
 -15   3  -3 1229.14 166.606   2
 -12  -3  -3 1252.08 161.097   4
  15 -12  -3 1388.65 191.759   4
 -12  -3  -3 971.237 132.100   2
  12 -15  -3 1342.14 152.110   2
  12 -15  -3 1131.93 169.606   4
  15 -12  -3 1340.73 183.084   2
  -3  15  -3 1338.14 136.076   1
   3  12  -3 1184.36 104.310   1
  12 -15   0 516.798 142.799   1
  -3  15   0 350.475 129.039   3
 -12  -3   0 423.317 106.688   3
 -15   3   0 466.950 88.9447   3
  12 -15   0 509.452 162.912   4
  -3  15   0 393.388 119.209   1
 -15   3   0 307.357 124.834   2
  15 -12   0 382.927 144.279   4
 -15   3   0 529.560 149.201   4
  15 -12   0 429.751 139.812   2
  12 -15   0 418.761 120.145   2
 -12  -3   0 350.303 157.955   4
 -12  -3   0 500.529 133.283   2
   3  12   0 283.936 110.511   3
  15 -12   0 372.995 136.081   1
   3  12   0 612.472 124.794   1
  12 -15   3-25.1418 87.0827   3
  15 -12   3 141.908 136.758   4
  15 -12   3 146.002 46.4864   3
  12 -15   3 104.423 136.425   4
  -3  15   3 135.385 127.000   1
  15 -12   3 333.685 165.560   2
  12 -15   3 119.040 109.211   1
 -15   3   3 133.550 94.9020   3
   3  12   3 139.691 145.445   1
  12 -15   3-5.46675 125.174   2
 -12  -3   3 127.020 124.128   3
  12 -15   6 795.105 193.742   2
  12 -15   6 711.332 168.155   4
  12 -15   6 650.940 146.774   1
  -3  15   6 695.504 183.793   1
  15 -12   6 676.303 184.481   2
  15 -12   6 820.707 169.213   4
 -15   3   6 722.720 184.139   3
 -12  -3   6 650.430 196.814   3
  15 -12   6 496.573 108.530   3
  12 -15   6 561.265 135.008   3
   3  12   6 918.113 200.482   1
   3  12   9 528.110 218.167   1
  12 -15   9 591.082 184.044   4
  12 -15   9 547.826 228.487   2
  -3  15   9 514.853 212.255   1
  12 -15   9 531.187 165.675   1
  15 -12   9 240.025 166.332   1
  15 -12   9 115.739 172.070   2
 -15   3   9 173.622 118.324   1
 -15   3   9 283.462 191.077   3
  15 -12   9 305.890 137.395   3
 -12  -3   9 416.052 217.839   3
  12 -15   9 277.805 144.605   3
  15 -12   9 624.662 160.640   4
  15 -11 -10 809.492 193.352   4
  15 -11  -7 2736.94 291.859   2
  15 -11  -7 2837.15 272.292   4
  11 -15  -7 2490.74 214.375   4
  15 -11  -4 4262.91 303.570   4
 -11  -4  -4 4469.84 227.077   2
  11 -15  -4 4326.45 266.803   4
  -4  15  -4 4772.98 216.567   1
  11 -15  -4 4298.20 235.708   2
  15 -11  -4 4362.96 306.555   2
 -11  -4  -4 4534.40 242.384   4
 -15   4  -4 4268.59 260.782   4
   4  11  -1 11240.2 344.823   1
 -11  -4  -1 10972.7 369.865   3
  11 -15  -1 10734.2 422.136   1
 -15   4  -1 10833.6 229.662   3
 -15   4  -1 11016.1 411.313   2
  -4  15  -1 11281.9 368.407   1
  11 -15  -1 10995.9 430.156   4
 -15   4  -1 10874.7 424.619   4
 -11  -4  -1 11156.3 379.869   2
  11 -15  -1 10391.9 342.998   2
  15 -11  -1 10270.3 417.639   1
  15 -11  -1 10726.9 447.934   4
  15 -11  -1 10666.8 402.725   2
 -11  -4  -1 11338.4 439.554   4
   4  11  -1 9731.25 366.838   3
  -4  15  -1 10504.0 369.470   3
  11 -15   2 1523.55 194.080   2
  15 -11   2 1475.95 192.537   1
   4  11   2 1543.14 197.127   1
  11 -15   2 1837.51 220.943   4
  15 -11   2 1765.16 205.262   4
  15 -11   2 1357.04 181.959   2
  11 -15   2 1809.56 185.639   1
 -15   4   2 1490.33 139.273   3
  -4  15   2 1588.65 202.554   1
 -11  -4   2 1598.11 164.204   3
  11 -15   2 1731.61 146.535   3
 -15   4   5 4634.62 282.878   1
  11 -15   5 5175.04 278.100   3
  11 -15   5 5096.74 338.725   4
  11 -15   5 5348.90 345.035   2
  15 -11   5 4846.12 334.813   2
  15 -11   5 4832.12 302.352   4
   4  11   5 5096.34 363.547   1
  15 -11   5 5493.32 217.088   3
  -4  15   5 4549.27 337.148   1
 -15   4   5 4514.07 310.185   3
 -11  -4   5 4589.04 322.679   3
  11 -15   5 4561.39 276.194   1
  15 -11   8 278.730 141.554   4
  11 -15   8 126.152 180.940   2
  -4  15   8 628.481 202.780   1
  15 -11   8 498.116 180.933   2
 -15   4   8 124.582 165.306   3
 -15   4   8 247.261 119.837   1
  11 -15   8 181.857 159.680   4
   4  11   8 247.183 204.659   1
  15 -11   8 246.651 121.824   3
 -11  -4   8 269.943 181.790   3
  11 -15   8 128.890 128.789   3
  15 -10  -8 311.728 183.101   4
  15 -10  -8 65.4563 179.049   2
  10 -15  -8 249.422 111.750   4
  15 -10  -5 1280.92 202.722   2
 -10  -5  -5 686.957 105.662   2
 -10  -5  -5 941.861 115.810   4
 -15   5  -5 1161.98 153.828   4
  10 -15  -5 1101.58 159.364   4
  15 -10  -5 1204.31 186.794   4
  10 -15  -5 1039.13 132.925   2
 -10  -5  -2 2604.58 221.229   3
 -15   5  -2 2471.93 213.510   2
  10 -15  -2 2760.79 232.192   4
 -15   5  -2 2317.40 215.669   4
  15 -10  -2 2545.60 245.395   4
  10 -15  -2 2502.92 166.425   2
 -10  -5  -2 2210.97 202.764   4
  15 -10  -2 2410.84 217.752   1
  15 -10  -2 2290.32 227.079   2
  -5  15  -2 2499.82 184.948   1
   5  10  -2 2593.44 157.350   1
 -10  -5  -2 2487.25 181.397   2
  -5  15  -2 2473.90 198.619   3
 -15   5   1 869.657 164.144   4
 -10  -5   1 901.871 138.143   3
   5  10   1 930.506 145.212   3
 -15   5   1 937.545 157.511   2
  10 -15   1 818.362 124.472   3
  10 -15   1 698.120 165.414   4
  10 -15   1 1129.66 153.622   1
  15 -10   1 999.289 175.696   4
   5  10   1 942.297 136.933   2
  10 -15   1 865.442 146.423   2
  15 -10   1 903.694 169.398   1
  15 -10   1 949.948 161.812   2
 -10  -5   1 995.800 178.087   2
  -5  15   1 999.985 169.946   1
   5  10   1 955.744 153.723   1
 -15   5   1 1081.57 100.876   3
 -10  -5   1 1051.09 192.308   4
  -5  15   1 891.415 155.040   3
 -10  -5   4 673.812 158.129   3
 -15   5   4 759.990 152.483   1
  10 -15   4 686.475 155.852   4
  10 -15   4 675.328 130.682   3
  15 -10   4 608.025 158.058   4
  10 -15   4 712.452 176.051   2
  -5  15   4 841.915 186.647   1
  15 -10   4 752.187 175.418   2
   5  10   4 330.684 140.806   1
  10 -15   4 660.953 133.478   1
  15 -10   4 643.150 73.1002   3
 -15   5   4 593.055 139.183   3
   5  10   4 592.443 71.7012   2
 -15   5   7 1298.88 242.043   3
  10 -15   7 1950.14 250.237   4
  10 -15   7 1905.51 252.111   2
 -15   5   7 1613.29 194.862   1
  15 -10   7 1630.21 201.980   4
   5  10   7 1063.08 77.1670   2
   5  10   7 2069.06 276.260   1
  10 -15   7 1468.12 204.727   3
  15 -10   7 1531.38 226.502   2
  15 -10   7 1767.90 177.055   3
 -10  -5   7 1491.75 248.595   3
  -5  15   7 1495.59 241.335   1
  10 -15   7 1309.23 166.369   1
 -15   5  10 774.213 167.450   1
  -5  15  10 1159.28 257.178   1
  15 -10  10 778.335 207.585   2
  15 -10  10 386.090 183.775   1
  10 -15  10 989.807 216.864   4
 -15   5  10 1319.73 283.227   3
  10 -15  10 881.946 264.417   2
  15 -10  10 370.739 139.652   3
   5  10  10 1194.46 254.160   1
 -10  -5  10 762.012 233.426   3
  10 -15  10 686.682 201.155   3
   9 -15  -9 375.283 87.1046   4
  15  -9  -9 502.806 189.353   4
  15  -9  -6 1082.77 215.888   2
  15  -9  -6 628.624 159.002   4
 -15   6  -6 961.997 157.095   4
  -9  -6  -6 832.328 83.9971   4
   9 -15  -6 900.037 137.793   4
   6   9  -3 1558.92 108.273   1
  -6  15  -3 1549.06 151.541   1
  -9  -6  -3 1549.86 135.679   2
  15  -9  -3 1211.71 173.736   1
  15  -9  -3 937.971 180.741   4
 -15   6  -3 1408.18 180.302   4
  15  -9  -3 1587.23 205.692   2
  -9  -6  -3 1487.67 166.990   4
  -6  15  -3 1453.28 159.947   3
   9 -15  -3 1521.62 182.913   4
   9 -15  -3 1767.71 139.206   2
   9 -15   0 1568.49 166.132   3
  15  -9   0 1544.49 195.559   1
 -15   6   0 1655.90 199.088   4
  -9  -6   0 1934.76 219.876   4
  -6  15   0 1674.73 175.585   1
   9 -15   0 1571.68 157.428   2
   6   9   0 1843.38 185.480   1
   9 -15   0 1481.12 205.008   4
  15  -9   0 1604.08 196.420   4
  -6  15   0 1320.48 156.021   3
  15  -9   0 1457.72 184.869   2
  -9  -6   0 1648.60 177.951   2
   9 -15   0 1667.28 193.538   1
   6   9   0 1699.72 172.514   3
   6   9   0 1652.99 200.249   2
 -15   6   0 1417.23 177.292   2
  -9  -6   0 1600.02 170.298   3
 -15   6   0 1631.88 92.5380   3
  -9  -6   3 2158.35 200.743   3
   9 -15   3 2144.46 185.305   1
   6   9   3 2237.60 225.013   1
   9 -15   3 2302.99 221.391   2
  15  -9   3 2216.91 221.318   4
  -6  15   3 2214.62 228.636   1
  15  -9   3 2180.21 212.558   2
   6   9   3 2192.28 207.713   3
 -15   6   3 2034.03 205.364   1
 -15   6   3 2347.38 193.517   3
   9 -15   3 2423.41 236.565   4
   6   9   3 2215.26 146.458   2
   9 -15   3 2408.72 189.019   3
   9 -15   6 579.603 176.680   4
 -15   6   6 225.574 124.616   1
  -6  15   6 434.933 155.758   1
 -15   6   6 228.571 174.119   3
   9 -15   6 469.350 111.486   1
   6   9   6 251.865 170.537   1
   6   9   6 383.760 63.1190   2
  15  -9   6 285.361 93.4528   3
  15  -9   6 513.490 132.326   4
  15  -9   6 413.033 172.207   2
  -9  -6   6 277.484 170.292   3
   9 -15   6 466.843 150.877   3
   9 -15   9 283.034 183.099   4
  15  -9   9 259.647 138.676   4
  15  -9   9 30.4327 135.868   1
  15  -9   9 321.587 178.536   2
  -6  15   9 40.9493 193.545   1
   9 -15   9-46.9959 107.100   1
 -15   6   9 105.571 173.826   3
  15  -9   9 171.024 119.403   3
  -9  -6   9-25.1247 195.832   3
   9 -15   9 173.783 167.762   3
 -15   6   9 123.762 138.600   1
   6   9   9 271.628 199.406   1
  15  -8 -10 334.594 181.931   4
   8 -15  -7 1093.82 136.810   4
  15  -8  -7 1287.34 240.982   2
  15  -8  -7 1072.00 215.714   4
 -15   7  -4 2258.81 207.538   4
  -8  -7  -4 2318.97 142.705   2
  15  -8  -4 2299.44 213.292   1
   7   8  -4 2140.43 95.5862   1
   8 -15  -4 2314.05 198.339   4
  -8  -7  -4 2574.95 186.736   4
  15  -8  -4 2375.49 250.900   4
   7   8  -4 2083.27 84.0786   1
   8 -15  -4 2817.57 151.617   2
  -7  15  -4 2316.72 197.797   3
  15  -8  -4 2261.10 255.311   2
   8 -15  -1 7947.85 346.661   3
   7   8  -1 8675.30 305.988   1
  15  -8  -1 8332.87 369.407   2
 -15   7  -1 8364.85 373.341   4
  -7  15  -1 7986.59 325.756   1
 -15   7  -1 7962.64 350.448   2
   7   8  -1 7583.37 311.685   3
  15  -8  -1 7647.70 374.872   4
  -8  -7  -1 8532.49 387.161   4
  -8  -7  -1 8226.51 305.366   2
  -7  15  -1 7634.43 298.820   3
   8 -15  -1 7690.96 269.401   2
   8 -15  -1 7430.90 336.645   1
  -8  -7  -1 8246.87 339.294   3
   8 -15  -1 7713.21 363.867   4
   7   8  -1 8363.39 386.616   2
  15  -8  -1 8092.03 360.480   1
  -7  15   2 1563.67 201.937   1
   8 -15   2 1472.81 153.257   1
  15  -8   2 1531.41 196.767   2
 -15   7   2 1186.72 173.884   2
   8 -15   2 1080.33 198.471   4
  15  -8   2 1431.15 204.150   1
   8 -15   2 1411.72 178.612   2
  15  -8   2 1274.24 175.861   4
 -15   7   2 1521.40 142.714   3
 -15   7   2 1020.95 181.753   4
   7   8   2 1695.39 201.418   1
   7   8   2 1304.99 161.464   3
 -15   7   2 1463.61 194.053   1
  -8  -7   2 1700.69 212.426   2
   7   8   2 1304.57 147.200   2
  -8  -7   2 1389.86 169.669   3
   8 -15   2 1503.55 159.720   3
  -7  15   2 1471.64 177.060   3
 -15   7   5 3631.02 266.204   1
  -7  15   5 3074.78 116.245   2
  15  -8   5 4094.17 289.829   2
  15  -8   5 3863.58 265.006   4
   8 -15   5 3444.05 211.857   1
  -7  15   5 3860.12 310.592   1
   7   8   5 3586.41 169.319   2
   8 -15   5 3710.21 261.291   3
   7   8   5 3835.12 306.036   1
 -15   7   5 3737.25 286.874   3
  15  -8   5 3760.37 180.529   3
  -8  -7   5 3331.33 283.989   3
   8 -15   8 278.501 179.179   4
 -15   7   8 275.674 136.932   1
   7   8   8 201.091 81.7557   2
   8 -15   8 295.001 108.653   1
  15  -8   8 86.1593 148.288   1
  15  -8   8 169.099 113.923   4
  -7  15   8 253.304 180.393   1
  15  -8   8 168.839 155.857   2
 -15   7   8 254.323 178.567   3
  15  -8   8 156.017 118.202   3
   7   8   8 330.988 182.471   1
  -8  -7   8 38.8201 171.400   3
   8 -15   8 332.386 152.789   3
   7 -15  -8 416.432 92.9437   4
  15  -7  -8 615.506 200.032   4
  15  -7  -5 3844.44 256.725   1
  -7  -8  -5 3921.42 187.833   4
   7 -15  -5 3966.63 228.232   4
  15  -7  -5 3388.81 289.642   4
  15  -7  -5 3321.23 315.583   2
 -15   8  -5 3582.29 258.142   4
  -7  -8  -2 2155.34 217.835   3
   8   7  -2 1784.61 232.016   4
   8   7  -2 1612.27 228.019   2
   7 -15  -2 2111.66 198.337   4
 -15   8  -2 1642.23 188.643   2
   7 -15  -2 1831.97 125.610   2
  -8  15  -2 1770.06 187.546   1
  15  -7  -2 1987.65 239.715   4
  -7  -8  -2 1798.23 194.975   4
  -7  -8  -2 1768.07 142.225   2
 -15   8  -2 1908.50 199.289   4
   7 -15  -2 1863.67 195.752   1
  15  -7  -2 1797.95 189.511   1
   8   7  -2 1840.66 184.098   3
   8   7  -2 1858.36 141.917   1
  15  -7  -2 1672.24 202.076   2
  -8  15  -2 1778.33 161.335   3
  -8  15   1 8760.15 344.493   3
   7 -15   1 8571.85 335.157   2
   7 -15   1 8178.68 322.084   1
  -8  15   1 8207.06 364.493   1
  15  -7   1 8510.16 379.322   4
 -15   8   1 7625.89 345.967   2
  15  -7   1 8454.08 363.672   2
   7 -15   1 8127.86 323.633   3
  -7  -8   1 9060.29 425.748   4
   8   7   1 8332.65 376.501   4
  15  -7   1 8169.80 400.947   1
 -15   8   1 8252.99 385.778   4
 -15   8   1 8583.00 237.754   3
  -7  -8   1 8333.84 380.826   2
   8   7   1 8978.33 348.371   2
   8   7   1 8570.79 361.281   1
   8   7   1 8155.80 319.503   3
  -7  -8   1 8984.79 350.215   3
  -8  15   4 2480.65 246.953   1
 -15   8   4 2713.06 229.219   3
 -15   8   4 2300.24 216.655   1
   7 -15   4 2335.46 172.540   1
  -8  15   4 2323.76 126.146   2
  15  -7   4 2640.21 224.930   4
  -7  -8   4 2647.56 232.413   3
   8   7   4 2757.58 167.604   2
  15  -7   4 2709.88 129.831   3
   8   7   4 2336.92 244.339   1
  15  -7   4 2714.30 245.139   2
   7 -15   4 2360.25 216.308   3
  -8  15   7 1075.61 224.066   1
 -15   8   7 1044.99 185.003   1
  15  -7   7 802.521 170.230   2
  -8  15   7 1043.60 100.218   2
  15  -7   7 1236.17 167.811   4
   8   7   7 1034.74 123.544   2
   8   7   7 1549.52 253.541   1
   7 -15   7 1079.64 128.186   1
 -15   8   7 1140.69 220.693   3
  -7  -8   7 934.146 204.560   3
   7 -15   7 902.455 185.769   3
  15  -7   7 1141.71 151.136   3
   8   7  10 772.212 246.479   1
 -15   8  10 775.437 189.523   1
   7 -15  10 361.980 196.388   4
  15  -7  10 769.542 221.199   1
  15  -7  10 601.295 181.493   2
  -8  15  10 760.549 232.621   1
 -15   8  10 1081.72 272.072   3
  15  -7  10 494.656 165.296   3
  -7  -8  10 177.410 184.684   3
   7 -15  10 579.838 198.798   3
  15  -6  -9 53.2393 173.779   4
   6 -15  -6 541.669 113.965   4
  -6  -9  -6 319.343 56.2899   4
  15  -6  -6 281.292 174.301   2
  15  -6  -6 557.780 142.075   1
  15  -6  -6 532.571 190.613   4
  -9  15  -3 2441.35 207.478   1
   6 -15  -3 2583.77 121.560   2
  15  -6  -3 2344.76 244.427   4
   6 -15  -3 2419.89 206.411   4
   9   6  -3 2570.45 144.400   1
   9   6  -3 2491.63 267.367   4
  -6  -9  -3 2791.74 139.397   2
  15  -6  -3 2470.75 206.848   1
  -6  -9  -3 2756.36 212.805   4
  -9  15  -3 2627.89 184.969   3
   9   6  -3 2523.48 274.300   2
  15  -6  -3 2132.37 234.039   2
 -15   9  -3 2705.07 233.290   4
 -15   9   0 1301.46 171.495   2
   6 -15   0 1592.14 154.584   2
   9   6   0 1538.66 164.992   1
 -15   9   0 1859.74 205.763   4
  -9  15   0 1366.11 171.882   1
  15  -6   0 1300.66 177.602   1
  15  -6   0 1314.38 202.795   4
  -6  -9   0 1540.45 193.204   4
   9   6   0 1654.19 163.762   3
   9   6   0 1255.66 199.857   4
 -15   9   0 1373.98 76.0370   3
  -6  -9   0 1421.83 168.288   2
   6 -15   0 1462.36 163.887   1
   9   6   0 1513.39 189.539   2
  15  -6   0 2014.28 200.698   2
  -9  15   0 1533.15 154.073   3
  -6  -9   0 1628.72 190.420   3
   6 -15   0 1537.71 184.169   3
   9   6   3 1221.72 166.477   3
  -9  15   3 1386.01 203.860   1
 -15   9   3 1681.01 201.184   1
   9   6   3 1764.54 225.488   1
  -9  15   3 1400.30 121.388   2
  15  -6   3 1856.24 200.688   4
   6 -15   3 1441.22 169.350   3
   9   6   3 1448.93 170.145   4
   6 -15   3 1494.95 143.937   1
 -15   9   3 1734.77 197.521   2
  15  -6   3 1627.27 193.599   2
   9   6   3 1543.54 151.834   2
  15  -6   3 1368.25 75.7541   3
 -15   9   3 1399.31 155.079   3
  -6  -9   3 1406.62 179.488   3
  15  -6   3 1272.12 72.1807   3
 -15   9   6 578.980 150.954   1
   6 -15   6 871.862 108.026   1
  15  -6   6 1040.59 163.885   4
 -15   9   6 1113.85 205.193   3
  -9  15   6 708.724 95.4556   2
  15  -6   6 874.411 176.316   2
   9   6   6 1000.21 213.767   1
  15  -6   6 1197.22 146.330   3
  -9  15   6 960.039 195.946   1
  -6  -9   6 617.523 181.573   3
   6 -15   6 933.149 172.304   3
   9   6   6 878.760 118.923   2
  15  -6   9 560.691 167.894   2
 -15   9   9 664.990 233.672   3
   9   6   9 867.409 145.020   2
  15  -6   9 605.912 119.523   4
  15  -6   9 473.642 183.548   1
   9   6   9 838.954 237.508   1
  -9  15   9 750.451 225.804   1
  15  -6   9 596.160 157.444   3
  -6  -9   9 638.706 216.866   3
   6 -15   9 471.591 196.902   3
 -15   9   9 566.406 172.284   1
  15  -5 -10 591.999 202.265   4
  15  -5  -7 1483.54 276.306   2
   5 -15  -7 1338.00 123.331   4
  15  -5  -7 1357.74 174.943   1
  15  -5  -7 1178.38 214.569   4
  15  -5  -4 783.707 184.068   2
  15  -5  -4 726.157 135.763   1
  -5 -10  -4 803.804 133.309   4
  10   5  -4 388.291 186.247   2
   5 -15  -4 699.740 124.157   4
  15  -5  -4 855.263 202.101   4
  10   5  -4 712.142 91.1498   1
  10   5  -4 747.091 184.053   4
  -5 -10  -4 599.825 58.2983   2
 -15  10  -4 665.260 152.831   4
 -10  15  -4 681.661 118.936   3
  15  -5  -1 1059.20 165.916   1
  10   5  -1 965.479 186.491   2
  -5 -10  -1 910.676 142.316   1
  10   5  -1 853.063 131.645   3
  -5 -10  -1 764.816 157.483   3
 -10  15  -1 831.170 148.948   1
 -15  10  -1 646.726 154.139   4
   5 -15  -1 1127.16 176.140   3
  15  -5  -1 953.785 201.561   4
 -15  10  -1 754.528 147.929   2
   5 -15  -1 1005.92 162.945   1
  -5 -10  -1 1160.44 183.399   4
  10   5  -1 1039.43 203.190   4
  15  -5  -1 1004.24 109.008   3
   5 -15  -1 997.866 115.216   2
  15  -5  -1 796.097 178.154   2
 -10  15  -1 914.229 120.545   3
  -5 -10  -1 763.537 115.091   2
 -10  15   2 2551.69 220.376   3
  10   5   2 2468.48 180.936   3
 -15  10   2 2174.06 235.292   4
 -10  15   2 2514.66 171.420   2
  10   5   2 2463.03 229.643   1
 -15  10   2 2895.23 258.933   1
 -10  15   2 2349.33 235.506   1
  15  -5   2 2594.22 239.445   4
 -15  10   2 2283.20 216.243   2
  10   5   2 2566.16 229.170   4
  15  -5   2 2740.96 234.527   2
 -15  10   2 2453.51 172.931   3
   5 -15   2 2576.49 177.185   1
  15  -5   2 2294.68 81.4142   3
  10   5   2 2606.21 199.765   2
  -5 -10   2 2544.38 245.856   2
  -5 -10   2 2692.94 220.692   3
   5 -15   2 2464.89 210.164   3
  10   5   5 870.769 130.605   4
  15  -5   5 1100.52 166.715   4
 -10  15   5 921.713 165.746   4
 -15  10   5 712.668 173.227   1
  -5 -10   5 785.687 175.625   3
 -10  15   5 878.335 111.002   2
  10   5   5 929.562 125.580   2
  15  -5   5 875.185 164.145   2
  10   5   5 964.905 192.414   1
  15  -5   5 983.223 121.389   3
 -15  10   5 549.052 155.441   3
 -10  15   5 885.254 183.483   1
   5 -15   5 776.969 100.007   1
   5 -15   5 704.585 155.130   3
 -15  10   8 18.0203 164.930   3
  15  -5   8 194.424 163.537   1
  15  -5   8 125.726 123.505   2
  10   5   8 241.006 104.322   2
   5 -15   8 67.1124 39.6684   1
  10   5   8 87.5949 197.361   1
  15  -5   8 297.511 132.204   3
  15  -5   8 357.877 119.790   4
 -10  15   8 291.907 189.047   1
 -15  10   8 401.398 171.801   1
  -5 -10   8 82.9594 165.169   3
   5 -15   8 253.592 167.940   3
  15  -4  -8 237.938 194.950   4
  11   4  -5 4402.54 377.366   2
  15  -4  -5 4474.20 259.599   1
  11   4  -5 4753.35 171.264   1
  -4 -11  -5 4869.22 226.701   4
   4 -15  -5 4806.91 241.078   4
  15  -4  -5 4627.79 353.032   4
  11   4  -5 4434.52 377.893   4
 -11  15  -5 4775.33 271.295   3
  15  -4  -5 4439.30 360.619   2
  15  -4  -2 1863.89 194.592   1
  -4 -11  -2 1800.26 214.147   3
  15  -4  -2 1661.84 219.427   2
 -15  11  -2 1926.48 219.224   4
 -11  15  -2 1936.58 211.533   1
  15  -4  -2 1785.13 224.895   4
  11   4  -2 1752.25 171.523   3
  -4 -11  -2 1618.65 195.253   1
  -4 -11  -2 1883.37 129.992   2
  11   4  -2 1977.43 243.932   2
  15  -4  -2 1867.98 161.947   3
 -11  15  -2 1926.46 147.533   3
   4 -15  -2 1817.10 111.258   2
  11   4  -2 1434.48 240.984   4
  -4 -11  -2 1860.41 190.523   4
 -11  15   1 10931.8 372.355   3
 -15  11   1 9613.57 425.954   4
  11   4   1 11126.9 413.741   1
  -4 -11   1 10808.5 338.049   1
 -15  11   1 11558.1 456.188   1
 -15  11   1 10550.5 394.217   2
  11   4   1 10985.7 436.155   4
  15  -4   1 10619.9 411.672   2
  -4 -11   1 11055.9 470.098   4
   4 -15   1 10695.5 356.436   1
  11   4   1 10596.9 394.217   2
  15  -4   1 10539.6 211.881   3
  15  -4   1 10857.9 438.431   4
 -11  15   1 10041.7 340.907   2
 -11  15   1 9537.74 422.657   4
  -4 -11   1 10975.5 423.800   2
 -11  15   1 10087.9 420.587   1
  11   4   1 10539.4 335.456   3
  -4 -11   1 10207.3 395.205   3
   4 -15   1 10606.7 390.491   3
  11   4   4 4231.73 259.444   3
  15  -4   4 4842.48 295.130   2
 -11  15   4 4351.06 290.848   4
 -11  15   4 4811.61 330.788   1
  15  -4   4 4532.55 275.138   4
 -11  15   4 4695.96 221.999   2
  15  -4   4 4618.13 198.130   3
 -15  11   4 4242.77 281.214   2
  11   4   4 4569.46 257.869   4
  11   4   4 5116.23 338.207   1
  11   4   4 4805.55 250.516   2
 -15  11   4 4814.60 294.220   3
   4 -15   4 4667.82 198.878   1
  -4 -11   4 4425.88 302.714   3
 -15  11   4 5039.82 319.770   1
   4 -15   4 4642.84 308.827   3
  15  -4   7 2726.52 253.970   2
 -11  15   7 2331.87 238.540   4
 -11  15   7 2770.05 288.942   1
  15  -4   7 2630.21 286.603   1
  11   4   7 2669.29 304.739   1
  15  -4   7 2754.82 211.520   4
 -11  15   7 2304.95 180.967   2
  11   4   7 2484.30 199.119   2
  15  -4   7 2735.16 227.668   3
 -15  11   7 2467.85 295.242   3
 -15  11   7 2592.50 280.056   1
  -4 -11   7 3036.64 300.544   3
   4 -15   7 2506.24 265.442   3
  15  -4  10 474.534 219.680   1
 -11  15  10 624.932 207.644   1
   4 -15  10 928.012 240.871   3
 -11  15  10 982.286 278.155   3
  -4 -11  10 1096.22 255.013   3
  15  -4  10 847.784 188.589   3
  11   4  10 904.445 264.535   1
 -15  11  10 655.343 211.901   1
 -15  11  10 1071.40 279.821   3
  15  -4  10 835.933 183.426   2
  11   4  10 526.391 153.342   2
  15  -3  -9 574.044 215.339   4
  15  -3  -6 1000.31 228.237   4
  15  -3  -6 967.265 234.727   2
  -3 -12  -6 790.902 89.2053   4
   3 -15  -6 722.023 108.339   4
  15  -3  -6 815.154 139.490   1
  -3 -12  -6 625.594 84.1780   4
  12   3  -6 669.384 216.248   4
  12   3  -6 584.832 71.9043   1
  15  -3  -3 219.319 159.963   2
  15  -3  -3-57.2640 105.026   1
  12   3  -3 26.2033 150.752   2
   3 -15  -3 277.455 119.297   4
  -3 -12  -3 88.0768 39.0373   2
  12   3  -3 198.449 172.643   4
  15  -3  -3 375.089 160.463   4
  15  -3  -3 78.8649 110.253   3
  -3 -12  -3 66.5164 96.9529   4
 -12  15  -3 167.061 82.0258   3
  12   3  -3 188.750 91.3971   1
  -3 -12   0 271.087 112.407   2
 -15  12   0 462.591 129.253   2
 -12  15   0 401.066 99.3748   3
  -3 -12   0 321.555 140.626   3
 -12  15   0 63.1729 122.182   1
   3 -15   0 381.410 138.779   3
 -15  12   0 199.551 154.387   1
 -12  15   0 118.226 140.750   4
 -12  15   0 223.248 104.096   2
 -15  12   0 373.408 138.732   4
  12   3   0 220.329 141.720   4
  15  -3   0 276.014 166.044   4
  12   3   0 382.265 140.215   2
  -3 -12   0 326.320 133.992   4
  -3 -12   0 183.945 96.3940   1
 -15  12   0 306.684 68.6114   3
  15  -3   0 383.709 76.6377   3
  15  -3   0 354.992 145.657   2
  12   3   0 364.916 98.5089   3
   3 -15   0 235.396 102.219   1
   3 -15   3 1218.72 168.691   3
 -15  12   3 1350.31 169.266   2
  -3 -12   3 1250.40 179.932   3
 -12  15   3 1156.79 190.909   1
 -12  15   3 1036.10 177.972   4
  12   3   3 1154.95 203.266   1
  15  -3   3 1367.48 181.965   4
  12   3   3 1188.67 176.794   4
  15  -3   3 1233.11 183.541   2
  12   3   3 1330.73 145.455   3
  12   3   3 1297.51 163.268   2
 -15  12   3 1404.36 193.826   1
   3 -15   3 1255.75 123.281   1
 -12  15   3 995.332 129.544   2
  15  -3   3 1107.76 98.4402   3
  15  -3   6 1454.39 172.350   3
  12   3   6 1989.26 163.839   4
  15  -3   6 1539.54 201.437   2
  12   3   6 1799.11 252.819   1
 -12  15   6 1489.45 197.324   4
 -12  15   6 1483.56 226.410   1
  15  -3   6 1409.69 224.469   1
  15  -3   6 1667.36 178.260   4
 -12  15   6 1368.79 152.269   2
  -3 -12   6 1644.72 231.191   3
  12   3   6 1514.84 161.588   2
   3 -15   6 1059.04 68.2233   1
   3 -15   6 1660.01 238.188   3
 -15  12   6 1666.21 226.600   3
 -15  12   6 1400.37 204.947   1
  15  -3   9 225.762 145.663   2
 -12  15   9 540.072 207.666   1
  12   3   9 381.000 125.945   2
  15  -3   9 133.010 171.381   1
 -15  12   9 116.844 157.643   1
 -12  15   9 176.720 186.434   3
  12   3   9 442.158 213.023   1
  15  -3   9 166.961 156.440   3
 -15  12   9 213.724 191.641   3
  -3 -12   9 4.99335 172.797   3
   3 -15   9 15.6788 168.160   3
  15  -2  -7 454.604 179.443   4
   2 -15  -7 361.928 67.8975   4
  15  -2  -7 258.173 104.731   1
  15  -2  -7 386.852 228.296   2
  13   2  -7 597.464 210.002   4
   2 -15  -7 351.971 80.7937   4
  13   2  -7 252.244 59.5340   1
  15  -2  -4-14.8783 167.607   2
  13   2  -4-347.952 200.777   2
   2 -15  -4-36.6603 106.963   4
  15  -2  -4 15.0803 91.3034   1
  13   2  -4 28.6437 179.055   4
  -2 -13  -4-66.1517 95.4747   4
 -13  15  -4 177.047 86.1589   3
  15  -2  -4-239.407 182.357   4
  13   2  -4 19.7396 76.7046   1
 -13  15  -1 366.916 148.665   1
 -13  15  -1 460.068 90.5606   3
  13   2  -1 612.886 162.415   2
  -2 -13  -1 574.303 107.180   2
  -2 -13  -1 551.546 153.925   3
   2 -15  -1 262.794 136.705   3
  -2 -13  -1 367.992 132.656   4
  15  -2  -1 668.737 146.869   1
 -13  15  -1 427.751 130.749   2
  -2 -13  -1 433.186 140.798   1
  13   2  -1 515.051 166.629   4
   2 -15  -1 690.767 141.886   1
  15  -2  -1 514.195 98.9335   3
  13   2  -1 555.978 118.382   3
 -15  13  -1 459.737 60.8705   3
  15  -2  -1 436.543 177.277   4
 -15  13  -1 231.542 148.496   1
  15  -2  -1 676.291 166.433   2
 -15  13   2 944.663 144.852   2
  -2 -13   2 1025.02 152.683   3
  -2 -13   2 897.477 179.514   2
   2 -15   2 983.081 171.847   3
 -13  15   2 914.523 179.477   4
  13   2   2 963.333 163.113   4
 -13  15   2 828.199 149.267   3
  15  -2   2 1333.73 192.522   4
   2 -15   2 1042.88 126.810   1
 -15  13   2 805.743 162.021   1
  -2 -13   2 799.952 110.213   1
  15  -2   2 910.466 163.767   2
 -13  15   2 763.143 175.893   1
  13   2   2 1227.99 169.835   2
  15  -2   2 895.924 94.5367   3
  13   2   2 982.861 120.271   3
 -13  15   2 946.162 143.042   2
  13   2   5 332.447 152.383   1
  -2 -13   5 253.298 146.692   3
  13   2   5 230.773 130.920   3
  15  -2   5 303.731 98.3528   3
 -13  15   5 557.392 176.023   1
 -13  15   5-21.8547 130.551   4
  15  -2   5 231.519 118.361   4
 -13  15   5 341.886 116.221   2
  15  -2   5 272.034 117.181   2
  13   2   5 441.901 126.437   2
  13   2   5 193.123 113.468   4
 -15  13   5 366.665 137.778   1
   2 -15   5 221.207 51.1581   1
   2 -15   5 189.440 132.156   3
 -15  13   8 161.973 186.120   3
 -13  15   8 90.7585 152.065   1
  13   2   8 187.539 170.856   1
  15  -2   8-180.199 182.757   1
  15  -2   8-110.200 123.466   2
 -15  13   8 49.0249 161.787   1
  15  -2   8-2.16607 85.3133   4
  13   2   8 55.0582 106.357   2
  15  -2   8-115.093 140.715   3
  -2 -13   8-61.8533 160.879   3
   2 -15   8-125.282 150.325   3
  15  -1  -8 880.326 232.188   4
  14   1  -8 1596.29 275.374   4
  -1 -14  -5 7991.40 304.718   4
   1 -15  -5 8044.82 313.246   4
  14   1  -5 7316.67 280.501   1
  14   1  -5 7766.44 471.708   4
 -14  15  -5 7211.11 300.710   3
  15  -1  -5 8113.67 485.740   4
  -1 -14  -5 7166.64 301.922   4
  15  -1  -5 7048.50 465.139   2
  15  -1  -5 7143.80 298.876   1
  14   1  -5 7771.87 485.370   2
  15  -1  -2 1912.15 249.689   4
  -1 -14  -2 1814.80 214.605   3
  14   1  -2 1570.74 170.161   3
   1 -15  -2 1288.09 198.311   3
  14   1  -2 1379.87 231.864   4
 -14  15  -2 1440.69 206.586   1
  15  -1  -2 1995.05 183.084   3
  14   1  -2 1819.56 190.779   1
  -1 -14  -2 1914.82 131.996   2
  15  -1  -2 1835.08 248.506   2
  14   1  -2 1922.66 250.718   2
 -14  15  -2 1989.45 125.359   3
   1 -15  -2 1658.74 122.857   2
 -15  14  -2 1598.28 96.0050   3
  15  -1  -2 1571.25 180.736   1
 -14  15   1 2790.01 191.843   3
 -15  14   1 2914.17 264.862   1
 -14  15   1 2502.81 260.259   1
  15  -1   1 3159.21 163.037   3
  -1 -14   1 2937.66 200.563   1
 -15  14   1 2739.55 219.011   2
 -15  14   1 2941.02 188.777   3
  15  -1   1 2676.73 247.701   4
   1 -15   1 3125.26 212.722   1
  15  -1   1 3012.67 239.612   2
  14   1   1 2606.35 259.022   4
  14   1   1 2946.81 245.833   2
 -14  15   1 2511.39 204.275   2
  14   1   1 2986.84 176.676   3
   1 -15   1 2876.10 233.795   3
  -1 -14   1 3078.27 244.053   2
  -1 -14   1 2575.97 228.152   3
  15  -1   4 2280.95 215.737   2
  14   1   4 2105.31 183.058   3
  14   1   4 2603.01 269.746   1
  -1 -14   4 1997.10 110.153   1
   1 -15   4 2151.68 127.007   1
 -14  15   4 2069.45 188.542   2
 -15  14   4 1831.52 196.753   2
  14   1   4 2262.95 213.477   4
 -14  15   4 1966.41 229.494   1
 -15  14   4 2004.28 240.059   1
  15  -1   4 1924.16 196.607   4
  15  -1   4 2213.51 167.815   3
  14   1   4 2259.60 205.143   2
  -1 -14   4 1949.01 214.415   3
   1 -15   4 2133.61 234.389   3
 -14  15   7 2619.72 289.761   1
  14   1   7 2770.50 233.190   2
  15  -1   7 2686.76 242.470   2
  15  -1   7 3061.21 320.687   1
  15  -1   7 3018.14 205.750   4
  14   1   7 2588.76 179.855   4
 -15  14   7 3151.99 306.204   1
 -15  14   7 2423.41 290.692   3
  14   1   7 3045.88 317.389   1
  -1 -14   7 2515.32 285.618   3
   1 -15   7 2622.60 284.849   3
  14   1  10 1364.36 243.070   3
 -14  15  10 1111.55 253.552   1
  14   1  10 1382.55 211.856   2
 -15  14  10 1476.01 266.815   1
  15  -1  10 1450.69 221.531   2
  15  -1  10 1516.42 309.995   1
 -14  15  10 1843.78 339.149   3
  15  -1  10 1155.15 230.055   3
 -15  14  10 1650.61 336.010   3
  14   1  10 679.467 246.855   1
  -1 -14  10 1512.73 291.037   3
   1 -15  10 1627.18 289.365   3
   0 -15  -6 345.400 87.5038   4
  15   0  -6 291.169 218.719   2
   0 -15  -6 436.713 109.311   4
  15   0  -6 337.602 182.963   4
  15   0  -6 554.573 122.161   1
  15   0  -3 155.785 158.945   2
   0 -15  -3-29.7448 23.9654   2
 -15  15  -3 75.7389 60.1708   3
  15   0  -3 130.394 169.571   4
  15   0  -3 85.6504 108.674   1
   0 -15   0 1947.29 211.036   3
 -15  15   0 1909.11 200.526   2
 -15  15   0 1891.11 232.973   1
  15   0   0 1797.51 235.115   4
  15   0   0 1958.46 218.466   2
   0 -15   0 1883.66 188.013   1
  15   0   0 1953.51 151.594   3
   0 -15   0 1870.66 189.027   2
 -15  15   0 2160.94 146.508   3
   0 -15   3-77.1944 125.299   3
  15   0   3-70.3710 75.2255   3
 -15  15   3 35.0408 101.621   2
   0 -15   3 37.7815 75.2285   1
  15   0   3 69.2507 134.754   4
  15   0   3-42.7720 129.137   2
 -15  15   3 193.225 138.470   1
 -15  15   6 355.864 179.424   1
  15   0   6 498.503 130.761   4
  15   0   6 377.993 197.326   1
  15   0   6 366.041 138.270   2
   0 -15   6 182.723 156.908   3
 -15  15   9 158.685 178.386   1
  15   0   9 27.5467 120.040   2
  15   0   9 74.0504 201.608   1
  15   0   9 35.0883 134.029   3
 -15  15   9 112.743 212.333   3
   0 -15   9 115.186 190.905   3
  16 -16  -7 146.448 166.658   2
 -16   0  -7 36.9956 98.4192   4
  16 -16  -7 79.2079 146.238   4
 -16   0  -4 6937.80 344.245   4
  16 -16  -4 7723.87 381.823   2
   0  16  -4 7593.03 244.595   1
  16 -16  -4 7304.84 408.096   4
 -16   0  -1-37.0578 85.7269   3
  16 -16  -1 93.8202 147.375   4
   0  16  -1-83.1976 102.447   1
  16 -16  -1-11.5339 121.155   2
  16 -16   2 10128.2 275.768   3
  16 -16   2 10288.3 448.058   2
  16 -16   2 9570.04 461.632   4
   0  16   2 10319.8 448.657   1
 -16   0   2 10661.8 375.396   3
  16 -16   5 147.271 95.0854   3
   0  16   5 216.866 159.160   1
  16 -16   5-105.589 160.008   2
  16 -16   5 152.364 137.024   4
 -16   0   5 125.244 132.805   3
  16 -16   8 2784.11 292.956   4
  16 -16   8 2695.21 317.458   2
  16 -16   8 3065.91 246.141   3
   0  16   8 2646.64 320.583   1
 -16   0   8 2284.01 303.192   3
  15 -16  -8 136.820 141.752   4
  16 -15  -8 282.064 159.698   4
  16 -15  -8 27.7148 161.545   2
  15 -16  -5 302.348 145.761   2
  16 -15  -5 116.719 157.290   2
  15 -16  -5 218.279 152.325   4
 -15  -1  -5 72.0330 101.564   4
 -16   1  -5 4.44386 100.622   4
  16 -15  -5 395.831 168.000   4
 -15  -1  -2 63.1717 97.6487   3
 -16   1  -2 55.5096 79.3919   3
  16 -15  -2 78.4485 133.812   4
 -15  -1  -2 21.9344 119.948   4
 -16   1  -2-100.109 118.370   4
   1  15  -2-5.86503 86.9568   1
 -15  -1  -2 43.3275 114.516   2
  16 -15  -2-127.938 117.869   2
  15 -16  -2 13.4041 127.176   4
  15 -16  -2-95.9433 108.475   2
  -1  16  -2 56.5020 83.9884   1
 -15  -1   1 169.249 99.9594   3
  15 -16   1 290.415 153.547   4
  15 -16   1 163.209 129.395   2
   1  15   1 362.486 130.197   1
  -1  16   1 206.527 137.451   1
  16 -15   1 260.912 128.537   2
  16 -15   1 263.880 157.527   4
 -16   1   1 151.343 86.6057   3
  16 -15   4 12.5092 71.3967   3
  15 -16   4 7.69021 79.2520   3
   1  15   4 28.6908 136.059   1
  -1  16   4-128.265 139.387   1
 -15  -1   4 20.9423 120.953   3
  15 -16   4-1.01278 131.004   2
  16 -15   4 244.238 151.107   2
  16 -15   4 228.150 147.068   4
  15 -16   4-34.4627 135.895   4
 -16   1   4 179.979 129.897   3
   1  15   7 540.787 199.686   1
  -1  16   7 489.359 192.032   1
  15 -16   7 853.336 206.354   4
  15 -16   7 474.362 195.945   2
 -15  -1   7 417.303 180.502   3
  16 -15   7 553.938 171.858   4
  16 -15   7 791.373 202.040   2
 -16   1   7 435.010 175.634   3
  15 -16   7 291.336 118.119   3
  16 -15   7 504.333 121.853   3
  16 -15  10-102.352 163.361   4
  16 -15  10 56.9203 155.842   1
  15 -16  10 11.7644 155.782   1
   1  15  10 8.98042 215.209   1
  15 -16  10 254.243 173.805   4
  -1  16  10-253.259 215.172   1
  16 -15  10-6.09349 193.746   2
  15 -16  10 260.485 211.671   2
 -16   1  10 30.6697 194.693   3
 -15  -1  10 275.832 225.512   3
  16 -15  10 108.130 138.525   3
  15 -16  10 27.4351 136.408   3
  16 -14  -9 491.854 178.768   4
  14 -16  -9 350.518 142.930   4
  14 -16  -6 732.558 161.670   2
 -14  -2  -6 864.289 130.994   4
 -16   2  -6 1075.98 159.148   4
  14 -16  -6 1032.78 189.139   4
  16 -14  -6 1030.44 193.654   4
  16 -14  -6 995.803 207.549   2
 -16   2  -3 185.734 128.537   4
  16 -14  -3 152.264 146.825   4
  -2  16  -3-7.01951 86.1138   1
  14 -16  -3 292.833 138.835   4
  14 -16  -3-53.5697 102.104   2
 -14  -2  -3 74.8000 101.364   2
   2  14  -3 175.038 72.5666   1
  16 -14  -3 143.579 129.376   2
 -14  -2  -3 199.140 111.895   4
  14 -16   0 1004.38 161.541   2
  14 -16   0 1297.29 198.645   4
  16 -14   0 975.798 186.694   4
 -14  -2   0 1101.67 169.234   2
  16 -14   0 1006.06 165.860   2
   2  14   0 1180.89 163.464   1
  -2  16   0 1287.37 165.116   1
 -16   2   0 1273.44 125.661   3
 -14  -2   0 1171.29 147.695   3
   2  14   3-24.5272 143.069   1
  14 -16   3 408.014 151.179   2
  14 -16   3 157.124 87.1569   3
  16 -14   3 237.067 61.8847   3
  -2  16   3 209.768 137.844   1
  16 -14   3 303.293 150.187   2
  14 -16   3 30.3307 147.197   4
 -16   2   3 452.085 129.403   3
  16 -14   3 146.500 150.271   4
 -14  -2   3 200.025 108.704   3
  16 -14   6 38.8293 133.989   4
  -2  16   6 326.747 195.804   1
  14 -16   6 107.328 149.433   4
  16 -14   6 356.293 166.892   2
   2  14   6-35.4973 157.965   1
 -14  -2   6 218.802 167.341   3
  14 -16   6 50.2029 152.017   2
 -16   2   6-37.5541 143.168   3
  16 -14   6 160.634 90.5855   3
  14 -16   6 244.789 112.173   3
 -16   2   9 8.16382 195.284   3
   2  14   9 52.9591 184.115   1
  14 -16   9-229.674 202.105   2
  16 -14   9 338.861 166.051   1
  16 -14   9 254.153 164.335   4
  -2  16   9 248.363 205.087   1
  14 -16   9-36.5000 152.422   4
  16 -14   9 104.253 177.251   2
  16 -14   9 76.4387 110.031   3
 -14  -2   9-311.730 197.902   3
  14 -16   9 347.528 165.397   3
  16 -13 -10 2770.09 292.239   4
  16 -13  -7 177.266 140.247   4
  16 -13  -7-102.890 181.205   2
  13 -16  -7 114.937 120.488   2
 -16   3  -7 40.5084 100.687   4
 -13  -3  -7 127.810 67.7587   4
  13 -16  -7 52.6542 126.469   4
  16 -13  -4 9586.35 450.083   4
  -3  16  -4 9732.52 304.338   1
 -13  -3  -4 8823.60 343.860   2
 -16   3  -4 8762.57 373.184   4
   3  13  -4 8445.08 197.931   1
 -13  -3  -4 8869.46 351.239   4
  13 -16  -4 9468.86 369.488   2
  16 -13  -4 9140.23 423.607   2
  13 -16  -4 9156.32 407.000   4
  16 -13  -1 233.871 147.056   4
   3  13  -1 87.4778 92.0050   1
 -13  -3  -1 3.94521 95.1136   3
 -16   3  -1 251.760 75.3172   3
  13 -16  -1 245.756 109.086   2
  13 -16  -1-33.0081 133.881   4
  -3  16  -1 125.817 106.075   1
 -16   3  -1 382.753 148.277   4
 -13  -3  -1-123.812 135.465   4
 -13  -3  -1 224.820 114.817   2
  16 -13  -1 181.925 120.682   2
  13 -16   2 6394.40 265.166   3
  16 -13   2 6813.25 367.547   4
  13 -16   2 6487.16 376.150   4
  16 -13   2 6664.96 354.301   2
  13 -16   2 5526.42 325.266   1
  13 -16   2 5966.02 330.743   2
 -16   3   2 6394.06 270.658   3
  -3  16   2 6987.78 356.438   1
   3  13   2 6730.98 354.652   1
 -13  -3   2 6366.57 296.912   3
  13 -16   5 659.328 128.891   3
  16 -13   5 606.021 164.113   4
  13 -16   5 734.498 182.755   2
  -3  16   5 531.144 171.259   1
  13 -16   5 728.317 180.140   4
  16 -13   5 596.789 185.822   2
 -16   3   5 570.486 163.193   3
  16 -13   5 802.413 105.451   3
 -13  -3   5 486.114 156.741   3
   3  13   5 405.110 165.322   1
  13 -16   8 3848.15 330.809   4
  13 -16   8 3841.23 362.083   2
  16 -13   8 3466.45 340.508   2
  16 -13   8 4232.34 316.761   4
   3  13   8 4030.94 390.824   1
 -16   3   8 3769.68 359.402   3
 -13  -3   8 3070.08 333.645   3
  16 -13   8 3710.90 255.290   3
  -3  16   8 4045.21 374.307   1
  13 -16   8 4175.47 304.784   3
  12 -16  -8 252.055 131.531   4
  16 -12  -8 72.2221 148.072   4
  12 -16  -5-145.128 116.053   2
  16 -12  -5 334.159 162.121   2
  12 -16  -5-44.9885 110.275   4
 -12  -4  -5-4.75972 84.4421   4
 -12  -4  -5 100.055 84.7257   2
  16 -12  -5-45.0717 137.013   4
 -16   4  -5-15.4573 101.169   4
 -12  -4  -2 1403.42 175.382   3
 -12  -4  -2 1039.56 146.472   2
 -12  -4  -2 1062.78 168.859   4
 -16   4  -2 949.419 166.779   4
  16 -12  -2 1118.38 201.460   4
  16 -12  -2 1227.62 180.874   2
   4  12  -2 1146.65 124.723   1
  -4  16  -2 1189.37 148.112   1
  12 -16  -2 1065.79 139.709   2
  12 -16  -2 1345.95 194.827   4
 -12  -4   1 738.713 136.351   3
  12 -16   1 460.153 172.843   4
  12 -16   1 610.219 142.750   1
  12 -16   1 443.680 112.147   3
  16 -12   1 441.759 150.398   4
  -4  16   1 565.552 148.003   1
  12 -16   1 595.316 137.416   2
  16 -12   1 702.756 157.793   2
   4  12   1 568.695 139.823   1
 -12  -4   1 691.053 161.141   2
 -16   4   1 420.302 89.4001   3
  12 -16   4 416.421 116.469   3
  16 -12   4 515.430 151.312   2
  12 -16   4 423.030 155.531   2
  -4  16   4 293.378 150.129   1
  12 -16   4 516.661 151.723   4
   4  12   4 532.026 162.903   1
  12 -16   4 450.802 132.971   1
 -16   4   4 372.277 119.946   3
  16 -12   4 474.550 65.5377   3
  16 -12   4 501.234 156.918   4
 -12  -4   4 477.542 143.944   3
  12 -16   7 917.919 208.323   4
  16 -12   7 1198.97 196.613   4
 -16   4   7 972.644 167.522   1
  12 -16   7 982.630 219.179   2
  -4  16   7 929.047 208.970   1
  16 -12   7 662.829 196.332   2
  16 -12   7 1063.01 148.367   3
 -16   4   7 640.127 198.650   3
 -12  -4   7 888.638 222.213   3
  12 -16   7 951.414 166.376   3
   4  12   7 756.410 211.679   1
   4  12  10 974.695 253.167   1
  16 -12  10 803.506 240.631   2
  16 -12  10 158.217 167.276   1
  12 -16  10 382.380 179.912   3
  12 -16  10 345.787 172.148   4
  16 -12  10 246.558 139.771   3
  12 -16  10 501.807 264.793   2
  -4  16  10 475.028 222.129   1
 -16   4  10 483.554 233.734   3
 -12  -4  10 456.765 227.193   3
  16 -11  -9 372.771 186.172   4
  11 -16  -9 62.3292 99.7252   4
 -11  -5  -6 2097.23 147.700   4
  11 -16  -6 2293.81 217.095   4
  16 -11  -6 2368.30 260.169   4
 -16   5  -6 2233.74 205.591   4
  16 -11  -6 2454.58 284.310   2
  11 -16  -6 2530.83 194.457   2
   5  11  -3 61.4348 63.7930   1
  -5  16  -3 68.6994 98.0602   1
  11 -16  -3 104.812 129.814   4
  16 -11  -3-118.150 158.429   4
 -11  -5  -3-1.26618 97.3829   4
 -16   5  -3-90.1451 110.456   4
  11 -16  -3 57.1487 85.8699   2
 -11  -5  -3 9.98066 82.9344   2
  16 -11  -3 46.6891 134.082   2
  11 -16   0 2506.75 223.651   1
   5  11   0 2675.89 200.372   1
  -5  16   0 2469.59 214.618   1
  11 -16   0 2445.76 196.080   3
  11 -16   0 2631.30 250.252   4
  11 -16   0 2734.78 205.716   2
 -11  -5   0 2599.09 218.752   2
 -16   5   0 2309.28 228.443   4
 -11  -5   0 2410.96 242.087   4
  16 -11   0 2586.53 252.020   4
  16 -11   0 2656.40 232.986   2
 -16   5   0 2702.82 134.841   3
   5  11   0 2326.29 210.686   3
  -5  16   0 2343.90 207.401   3
 -11  -5   0 2710.10 205.689   3
  11 -16   3 367.824 109.093   3
   5  11   3 273.555 83.0158   2
  11 -16   3 298.020 168.648   4
  11 -16   3 288.301 124.162   1
  -5  16   3 272.107 145.972   1
  16 -11   3 221.006 138.916   4
  11 -16   3 274.837 144.006   2
  16 -11   3 83.3420 127.770   2
   5  11   3 310.708 152.799   1
 -16   5   3 85.3597 99.7951   3
 -11  -5   3 193.471 117.960   3
  11 -16   6 503.392 170.823   2
 -16   5   6 377.725 134.267   1
  -5  16   6 400.069 164.261   1
  16 -11   6 370.967 173.334   2
  11 -16   6 316.915 164.015   4
  16 -11   6 330.271 145.546   4
 -16   5   6 698.053 176.326   3
  16 -11   6 435.759 104.835   3
   5  11   6 396.487 168.248   1
  11 -16   6 446.395 132.475   1
 -11  -5   6 294.202 154.487   3
  11 -16   6 657.662 147.138   3
   5  11   9 231.048 214.849   1
  11 -16   9 426.877 194.573   4
  16 -11   9 345.459 152.900   4
  16 -11   9 106.151 126.104   1
  -5  16   9-5.81423 197.970   1
  11 -16   9 135.871 118.938   1
 -16   5   9 310.886 131.629   1
 -16   5   9 527.004 223.329   3
  11 -16   9 109.076 192.465   2
  16 -11   9 130.500 118.148   3
 -11  -5   9 488.885 203.964   3
  11 -16   9 279.431 152.333   3
  16 -11   9 351.438 199.964   2
  16 -10 -10 2954.12 310.896   4
  16 -10  -7-46.5744 152.463   4
  16 -10  -7 6.27247 155.569   2
  10 -16  -7 115.764 108.161   4
 -10  -6  -4 7874.98 276.752   2
  16 -10  -4 7520.65 401.739   4
  10 -16  -4 7971.58 284.263   2
 -16   6  -4 7506.12 356.494   4
  10 -16  -4 7703.46 355.449   4
 -10  -6  -4 7980.92 321.551   4
  16 -10  -4 7522.56 409.319   2
  -6  16  -4 7851.29 309.309   1
   6  10  -4 6874.06 151.645   1
 -10  -6  -1 2457.94 209.855   3
 -10  -6  -1 2450.07 227.722   4
   6  10  -1 2558.73 181.999   1
  -6  16  -1 2548.27 207.128   1
  16 -10  -1 2449.94 232.363   2
  16 -10  -1 2542.06 254.156   4
 -10  -6  -1 2554.32 194.335   2
  10 -16  -1 2309.56 172.109   2
  10 -16  -1 2678.55 246.164   4
 -16   6  -1 2271.02 222.584   4
  16 -10  -1 2436.95 229.589   1
   6  10  -1 2052.00 188.679   3
  -6  16  -1 2209.39 191.125   3
  10 -16   2 9599.23 436.311   4
 -10  -6   2 9936.66 380.321   3
  10 -16   2 8860.13 363.060   1
  10 -16   2 9488.77 391.384   2
  16 -10   2 10208.6 426.062   4
   6  10   2 9458.91 401.404   1
  16 -10   2 9421.97 405.543   2
 -16   6   2 9318.13 304.049   3
   6  10   2 9593.95 320.176   2
  10 -16   2 10098.8 349.854   3
  -6  16   2 10019.4 419.542   1
 -16   6   5 449.671 153.828   1
  10 -16   5 106.218 154.278   4
  16 -10   5 92.1653 118.002   4
   6  10   5 186.303 52.6960   2
  10 -16   5 91.8899 98.1722   1
  -6  16   5 148.245 162.684   1
   6  10   5 336.522 157.936   1
 -16   6   5 230.562 149.842   3
  10 -16   5 52.1211 141.099   2
  16 -10   5 285.764 151.436   2
  16 -10   5 189.395 74.5385   3
 -10  -6   5 176.416 138.860   3
  10 -16   5 206.024 115.296   3
 -16   6   8 2775.92 252.967   1
  10 -16   8 2923.05 303.319   4
  16 -10   8 3405.12 328.814   2
  16 -10   8 2913.00 258.994   4
 -16   6   8 2958.97 332.937   3
   6  10   8 3236.30 359.307   1
  16 -10   8 2854.76 234.321   3
 -10  -6   8 2521.41 308.500   3
  10 -16   8 2779.05 270.472   3
  10 -16   8 2702.60 335.653   2
  -6  16   8 2786.23 314.074   1
  16  -9  -8 805.556 244.420   2
  16  -9  -8 715.543 192.121   4
   9 -16  -8 629.350 120.320   4
  16  -9  -5 411.129 171.741   2
   9 -16  -5 247.204 82.0240   2
   9 -16  -5 435.541 123.323   4
 -16   7  -5 389.845 134.800   4
  -9  -7  -5 366.711 86.5666   2
  -9  -7  -5 424.307 100.849   4
  16  -9  -5 199.648 141.253   4
  -9  -7  -2 3514.59 255.684   3
   7   9  -2 3590.67 188.287   1
 -16   7  -2 3162.52 247.496   4
   9 -16  -2 3431.03 256.858   4
   9 -16  -2 3371.19 185.536   2
  -9  -7  -2 3922.32 271.300   4
  16  -9  -2 3272.45 261.729   2
  16  -9  -2 3607.43 283.802   4
  16  -9  -2 3583.93 254.523   1
  -7  16  -2 3265.43 225.094   1
  -9  -7  -2 3373.67 203.183   2
  -7  16  -2 3333.71 220.258   3
   9 -16   1 2268.19 200.647   3
   9 -16   1 2140.46 189.595   2
  -7  16   1 2015.90 222.607   1
  16  -9   1 2243.91 222.387   2
   9 -16   1 2668.96 263.547   4
   7   9   1 2335.15 212.601   1
  16  -9   1 2427.25 228.003   4
   9 -16   1 2354.88 205.765   1
  -9  -7   1 2204.92 248.781   4
   7   9   1 2086.11 187.729   3
  -9  -7   1 2549.19 231.956   2
 -16   7   1 2268.70 134.212   3
  -9  -7   1 2376.16 201.101   3
   7   9   1 2192.35 198.268   2
  -7  16   1 2123.09 199.182   3
   9 -16   4 4544.81 328.780   4
   9 -16   4 4957.85 268.733   1
  16  -9   4 5078.32 309.529   4
  16  -9   4 5153.40 319.657   2
   7   9   4 4690.20 322.108   1
 -16   7   4 5159.72 296.640   3
  -7  16   4 4900.75 339.953   1
 -16   7   4 4958.38 322.784   1
   7   9   4 4822.10 201.559   2
  16  -9   4 4840.13 147.943   3
  -9  -7   4 5041.40 308.286   3
   9 -16   4 5077.55 284.255   3
   9 -16   7 323.423 161.476   4
  16  -9   7 147.894 121.068   4
  16  -9   7 280.007 154.612   2
   9 -16   7 248.568 105.386   1
  -7  16   7 106.127 154.736   1
 -16   7   7 46.3300 135.427   1
   7   9   7 72.3247 49.6259   2
 -16   7   7-42.0483 150.681   3
  16  -9   7 211.496 99.3081   3
   7   9   7 199.454 188.606   1
  -9  -7   7 748.676 198.528   3
   9 -16   7 148.703 131.180   3
  -7  16  10 1302.91 275.848   1
   9 -16  10 1016.47 224.136   4
  16  -9  10 912.492 229.430   2
  16  -9  10 825.681 220.428   1
   7   9  10 844.058 257.440   1
   9 -16  10 605.608 254.656   2
 -16   7  10 789.512 184.981   1
 -16   7  10 489.959 238.045   3
  16  -9  10 937.026 192.552   3
  -9  -7  10 726.308 249.315   3
   9 -16  10 530.631 203.288   3
  16  -8  -9 6.71131 169.735   4
  16  -8  -6 1469.22 251.575   2
   8 -16  -6 1662.18 167.549   4
  -8  -8  -6 1177.57 100.089   4
  16  -8  -6 1581.26 234.147   4
  -8  16  -3 372.075 119.422   1
 -16   8  -3 145.035 113.388   4
  16  -8  -3 190.351 167.152   4
  -8  -8  -3 205.467 84.8430   2
  -8  -8  -3 252.062 116.232   4
   8   8  -3 291.786 77.1775   1
   8 -16  -3 105.351 110.201   4
  16  -8  -3 196.065 129.013   1
   8 -16  -3 252.272 75.9985   2
  -8  16  -3 336.442 110.690   3
  16  -8  -3 67.9650 141.849   2
   8   8   0 50.2624 95.5160   3
  16  -8   0 32.9187 121.383   1
  -8  16   0-28.3466 104.453   3
  -8  -8   0 67.6189 112.305   3
   8   8   0-37.9960 121.749   2
   8   8   0 22.2543 98.6484   1
   8 -16   0 43.4405 113.652   3
  16  -8   0 26.4060 126.158   4
  -8  16   0 14.0235 113.653   1
   8 -16   0 15.0306 132.597   4
   8 -16   0-52.5063 95.7658   2
 -16   8   0 130.491 113.830   2
   8 -16   0-52.1397 104.772   1
  -8  -8   0-7.41841 138.716   4
   8   8   0 60.8744 146.652   4
  16  -8   0-56.3362 135.079   2
 -16   8   0 77.3463 125.523   4
 -16   8   0 3.25942 34.7673   3
  -8  -8   0-82.0869 107.900   2
   8   8   3 85.2580 90.8037   2
 -16   8   3 440.602 160.377   1
   8 -16   3 283.834 107.579   3
   8   8   3 225.551 114.819   3
  16  -8   3 153.756 117.510   4
  -8  -8   3 173.012 131.430   3
   8   8   3 93.9042 142.763   1
  -8  16   3 505.998 166.892   1
 -16   8   3 113.685 103.692   3
   8 -16   3 286.830 98.7028   1
  16  -8   3 389.332 138.855   2
 -16   8   6 1762.09 211.160   1
   8   8   6 1391.97 120.156   2
  -8  16   6 1207.21 83.8788   2
  16  -8   6 1518.07 215.047   2
   8 -16   6 1224.26 137.771   1
  16  -8   6 1453.51 145.823   3
   8   8   6 1302.87 224.693   1
 -16   8   6 1363.12 210.804   3
   8 -16   6 1361.50 198.483   3
  -8  -8   6 1405.71 216.935   3
  16  -8   6 1311.38 190.076   4
  -8  16   6 1955.08 255.867   1
  16  -8   9 247.744 135.152   4
   8 -16   9 145.406 181.636   4
  16  -8   9-30.7140 164.233   1
 -16   8   9-90.0453 132.926   1
  16  -8   9-207.229 164.697   2
   8 -16   9 94.1944 89.5403   1
  -8  16   9-207.249 168.527   1
   8   8   9 88.4949 88.2282   2
 -16   8   9 299.981 218.339   3
  16  -8   9 290.346 142.305   3
   8   8   9 427.427 235.689   1
  -8  -8   9-4.84964 173.176   3
   8 -16   9 41.6679 173.502   3
  16  -7 -10 1009.72 237.224   4
  16  -7  -7 372.314 197.599   2
   7 -16  -7 132.495 90.0415   4
  16  -7  -7-17.4144 153.358   4
  16  -7  -4 4355.06 279.549   1
   9   7  -4 4527.01 166.972   1
 -16   9  -4 4837.74 306.963   4
   7 -16  -4 4875.46 267.152   4
  -7  -9  -4 4711.63 173.909   2
   9   7  -4 4859.30 163.699   1
  16  -7  -4 4471.72 337.651   4
  -7  -9  -4 4491.29 251.576   4
   7 -16  -4 4297.70 153.560   2
  -9  16  -4 4582.97 265.457   3
  16  -7  -4 4509.25 340.368   2
  -7  -9  -1 2322.16 214.763   3
  -7  -9  -1 2376.43 183.044   2
  16  -7  -1 2324.10 219.554   1
   7 -16  -1 2297.91 219.886   3
   7 -16  -1 2282.83 221.215   4
 -16   9  -1 2135.04 221.506   4
   7 -16  -1 2401.83 163.738   2
  -7  -9  -1 2342.12 230.242   4
  16  -7  -1 2266.67 238.913   2
   9   7  -1 2311.64 181.544   1
   7 -16  -1 2332.31 210.386   1
  -9  16  -1 2227.81 203.972   1
   9   7  -1 2096.08 184.184   3
  16  -7  -1 2001.30 232.718   4
   9   7  -1 2408.69 248.809   2
  -9  16  -1 2231.29 175.815   3
   9   7  -1 2532.11 270.311   4
  16  -7   2 3784.10 272.607   2
  -9  16   2 3829.04 282.486   1
  16  -7   2 3532.55 273.508   4
   9   7   2 3565.33 254.678   4
 -16   9   2 3951.90 292.453   1
  -9  16   2 3700.30 260.206   3
 -16   9   2 3554.84 202.231   3
   9   7   2 3646.85 227.981   2
  -7  -9   2 3291.76 273.342   2
   9   7   2 3763.70 272.010   1
  -7  -9   2 3262.78 239.713   3
   7 -16   2 3341.79 212.917   1
   9   7   2 3263.24 226.039   3
   7 -16   2 3053.90 224.093   3
  -9  16   5 273.699 161.545   1
 -16   9   5 260.092 134.036   3
  -9  16   5 223.760 65.3534   2
  16  -7   5 299.879 122.318   4
  16  -7   5 230.736 130.180   2
 -16   9   5 273.421 140.822   1
  16  -7   5 251.417 77.3783   3
   9   7   5 335.390 91.4755   2
   7 -16   5 477.255 107.587   1
  -7  -9   5 320.062 156.006   3
   9   7   5 441.015 172.638   1
   7 -16   5 366.409 139.526   3
  16  -7   8 809.887 159.469   4
 -16   9   8 667.518 182.721   1
  16  -7   8 481.805 196.285   1
   7 -16   8 618.323 102.423   1
  16  -7   8 797.952 201.099   2
   9   7   8 799.231 123.023   2
  -9  16   8 834.822 219.631   1
  16  -7   8 809.866 159.515   3
   9   7   8 977.680 239.924   1
 -16   9   8 592.239 186.741   3
  -7  -9   8 935.377 228.040   3
   7 -16   8 942.241 204.256   3
  16  -6  -8 3159.09 361.776   2
  16  -6  -8 2782.19 315.718   4
   6 -16  -8 2182.19 137.726   4
  16  -6  -5 168.133 168.854   2
   6 -16  -5 268.896 105.922   4
  -6 -10  -5 196.929 88.5507   4
  16  -6  -5 137.470 147.905   4
  10   6  -5 127.797 38.4588   1
  16  -6  -5 129.336 107.481   1
  10   6  -5 95.7636 33.7745   1
  -6 -10  -2 9136.03 404.801   3
 -10  16  -2 9860.52 387.617   1
   6 -16  -2 9806.77 257.032   2
   6 -16  -2 9498.89 394.422   4
  10   6  -2 9547.92 312.827   1
 -16  10  -2 9176.36 414.445   4
  16  -6  -2 9978.82 451.106   4
  -6 -10  -2 9606.60 404.543   4
  -6 -10  -2 10153.4 300.468   2
  10   6  -2 9999.82 480.929   4
  16  -6  -2 9470.06 427.525   2
  10   6  -2 9434.84 364.874   3
 -10  16  -2 9952.36 332.606   3
  10   6  -2 9463.84 463.781   2
  16  -6  -2 9499.35 393.425   1
   6 -16   1 2469.21 218.921   3
 -10  16   1 2176.26 190.017   3
  16  -6   1 2332.19 244.578   4
 -16  10   1 2587.86 245.414   1
 -10  16   1 2653.73 230.132   1
  -6 -10   1 2232.14 219.293   3
   6 -16   1 2518.21 194.697   1
  10   6   1 2346.11 240.716   4
 -16  10   1 2417.61 141.619   3
  10   6   1 2287.75 214.715   2
  10   6   1 2434.19 214.631   1
  -6 -10   1 2538.16 228.536   2
 -16  10   1 2358.24 216.794   2
  16  -6   1 2398.80 231.956   2
  10   6   1 2493.21 188.369   3
  16  -6   4 7561.13 219.870   3
  10   6   4 8333.41 430.059   1
 -16  10   4 7765.63 392.851   1
 -10  16   4 7791.28 406.480   1
  16  -6   4 7949.24 383.239   2
 -10  16   4 7491.15 251.674   2
  16  -6   4 8041.21 373.041   4
  10   6   4 7902.16 326.615   4
  10   6   4 7349.79 291.839   2
  16  -6   4 7538.08 212.980   3
 -16  10   4 7902.73 359.082   3
  -6 -10   4 8041.84 393.395   3
   6 -16   4 8167.36 371.877   3
   6 -16   4 7593.98 277.815   1
 -16  10   7-139.975 151.335   1
  16  -6   7 83.5273 121.381   4
  16  -6   7 67.2850 127.381   2
 -10  16   7 59.8062 79.7646   2
  10   6   7-2.04210 86.0580   2
  10   6   7 39.7252 181.090   1
   6 -16   7 74.5109 68.8555   1
 -16  10   7 104.887 168.790   3
  16  -6   7 98.6189 108.668   3
 -10  16   7 324.396 170.290   1
   6 -16   7-38.2486 148.787   3
  -6 -10   7 249.358 173.530   3
 -10  16  10 2655.18 332.232   1
   6 -16  10 2966.04 340.171   4
  16  -6  10 2661.26 301.043   2
 -16  10  10 2657.18 362.532   3
  10   6  10 3465.20 400.998   1
  16  -6  10 3303.10 370.832   1
  16  -6  10 2924.74 289.676   3
  -6 -10  10 2781.17 367.829   3
   6 -16  10 3217.91 342.484   3
 -16  10  10 2449.68 280.533   1
  16  -5  -9 3.68318 176.297   4
  16  -5  -6 437.322 191.346   2
  16  -5  -6 354.674 185.785   4
  16  -5  -6 246.825 122.421   1
  -5 -11  -6 537.616 82.7840   4
   5 -16  -6 583.468 117.067   4
  11   5  -3-10.5523 159.122   2
 -11  16  -3 286.401 136.785   1
   5 -16  -3 198.937 124.791   4
  -5 -11  -3 170.759 60.6459   2
  16  -5  -3 331.766 171.918   4
  11   5  -3 457.611 184.110   4
   5 -16  -3 216.633 48.4601   2
  16  -5  -3 50.0447 97.9237   1
 -11  16  -3 355.894 103.477   3
  -5 -11  -3 272.462 123.199   4
  16  -5  -3 65.2646 144.829   2
   5 -16   0 2725.17 235.642   3
 -16  11   0 2331.43 110.972   3
  16  -5   0 2923.96 249.157   2
  11   5   0 2530.67 214.046   1
  -5 -11   0 2352.07 193.957   1
  16  -5   0 2357.87 246.906   4
  -5 -11   0 2586.37 257.127   4
  11   5   0 2748.47 270.074   4
   5 -16   0 2389.19 208.432   1
  16  -5   0 2375.66 233.354   1
 -16  11   0 2190.25 102.876   3
  16  -5   0 2436.80 126.451   3
 -11  16   0 2357.70 225.908   1
  -5 -11   0 2735.37 221.821   2
  11   5   0 2776.61 241.183   2
  11   5   0 2505.68 189.492   3
 -16  11   0 1955.20 227.493   1
 -11  16   0 2219.95 181.745   3
  -5 -11   0 2344.33 223.601   3
  -5 -11   3-16.4753 122.307   3
   5 -16   3 74.6572 111.310   3
  16  -5   3 15.4576 44.3990   3
 -11  16   3 45.0322 137.927   1
  11   5   3-59.6804 94.3887   3
  16  -5   3 70.6329 115.620   2
  11   5   3 147.008 150.480   1
 -11  16   3 37.1604 122.386   4
   5 -16   3 103.107 85.0667   1
  16  -5   3 69.5880 122.679   4
 -11  16   3-2.76019 79.3469   2
  11   5   3 153.716 133.728   4
 -16  11   3-12.3557 156.169   1
 -16  11   3 180.804 105.713   3
  11   5   3 65.3624 108.539   2
 -11  16   6 2153.84 254.459   1
  -5 -11   6 2143.02 264.162   3
  11   5   6 2500.40 278.166   1
  16  -5   6 2305.23 238.435   2
  11   5   6 2377.16 185.366   2
  16  -5   6 2275.19 213.633   4
  16  -5   6 2444.74 185.386   3
 -16  11   6 2156.59 251.812   3
 -11  16   6 2025.65 163.612   2
   5 -16   6 2015.67 130.867   1
   5 -16   6 2490.23 250.579   3
 -16  11   6 2285.76 249.739   1
  11   5   9 105.740 114.342   2
  16  -5   9 291.303 202.879   1
  16  -5   9 12.2849 131.331   2
 -16  11   9 114.549 155.982   1
 -16  11   9 147.433 214.467   3
  16  -5   9 417.798 164.617   3
  11   5   9 658.234 226.280   1
  -5 -11   9-137.228 181.041   3
 -11  16   9 165.416 188.457   1
   5 -16   9 306.211 165.644   3
  16  -4 -10 232.594 179.066   4
  16  -4  -7 1313.95 269.919   2
  16  -4  -7 758.623 149.586   1
   4 -16  -7 821.511 105.401   4
  16  -4  -7 925.243 217.467   4
  16  -4  -4 306.769 183.159   2
  12   4  -4 506.148 204.866   2
  12   4  -4 432.476 95.9536   1
  16  -4  -4 522.260 127.404   1
  12   4  -4 510.449 193.089   4
  16  -4  -4 747.611 205.348   4
   4 -16  -4 541.874 130.095   4
 -12  16  -4 503.034 114.610   3
  -4 -12  -4 771.436 140.845   4
 -12  16  -1 554.472 107.021   3
  12   4  -1 705.218 184.990   2
  -4 -12  -1 527.515 149.000   3
   4 -16  -1 546.651 158.439   3
   4 -16  -1 779.588 111.230   2
  16  -4  -1 1002.24 206.236   4
 -12  16  -1 435.252 141.315   1
  -4 -12  -1 481.980 159.647   4
  -4 -12  -1 628.311 144.111   1
  16  -4  -1 529.891 98.8781   3
  16  -4  -1 703.937 155.574   1
  16  -4  -1 638.561 176.168   2
  12   4  -1 673.061 122.101   3
  12   4  -1 519.568 179.716   4
   4 -16  -1 540.682 138.741   1
  -4 -12  -1 478.046 104.833   2
  -4 -12   2 1113.81 172.796   3
  -4 -12   2 1229.00 202.485   2
 -12  16   2 1346.51 203.811   1
 -12  16   2 939.547 153.810   3
 -12  16   2 1156.04 139.191   2
  -4 -12   2 1069.43 121.757   1
 -16  12   2 1132.18 200.306   1
  16  -4   2 1151.36 185.064   4
   4 -16   2 1290.19 142.267   1
  16  -4   2 1180.83 83.7514   3
 -16  12   2 1141.36 169.557   2
  12   4   2 1141.01 184.256   4
  12   4   2 1267.68 169.740   2
 -12  16   2 1183.27 198.632   4
  16  -4   2 1191.16 177.311   2
  12   4   2 1438.49 193.379   1
  12   4   2 1325.32 146.151   3
   4 -16   2 1245.65 174.229   3
 -16  12   5-6.99051 139.431   1
 -12  16   5 197.053 146.881   1
   4 -16   5 134.049 69.2766   1
   4 -16   5-134.131 129.130   3
  12   4   5-0.24977 102.432   4
  16  -4   5-13.4506 79.0028   3
  16  -4   5-50.5183 113.186   4
  12   4   5-203.573 158.970   1
 -12  16   5 16.9642 85.4893   2
 -12  16   5 66.7948 127.858   4
  16  -4   5-108.749 121.896   2
 -16  12   5-29.3944 129.283   3
  12   4   5 62.9227 102.516   2
  -4 -12   5 67.8128 130.662   3
  16  -4   8-86.0428 159.934   1
  16  -4   8 318.424 155.150   2
 -16  12   8 245.642 184.485   3
  16  -4   8 248.241 118.055   4
  12   4   8 423.063 129.379   2
  12   4   8 110.360 180.659   1
  16  -4   8 475.775 149.659   3
 -12  16   8 487.488 211.162   1
 -16  12   8 343.635 172.045   1
  -4 -12   8 181.026 179.155   3
   4 -16   8 670.829 199.736   3
  16  -3  -8 4180.63 387.961   4
  16  -3  -5 644.441 138.407   1
  16  -3  -5 652.231 208.212   2
  13   3  -5 657.244 100.582   1
  13   3  -5 452.367 190.638   2
   3 -16  -5 625.215 115.477   4
  16  -3  -5 934.351 226.337   4
  -3 -13  -5 752.095 138.151   4
  13   3  -5 774.405 209.049   4
 -13  16  -5 727.363 139.014   3
  -3 -13  -2 5962.37 348.973   3
   3 -16  -2 6457.33 366.395   3
  16  -3  -2 6053.84 320.085   1
   3 -16  -2 7028.54 208.203   2
  16  -3  -2 6654.82 391.295   4
 -13  16  -2 6513.58 361.505   1
  13   3  -2 6318.60 410.758   4
  -3 -13  -2 6305.17 335.652   4
  -3 -13  -2 6760.21 231.120   2
  16  -3  -2 6181.99 280.752   3
  16  -3  -2 5635.13 358.250   2
  13   3  -2 5767.75 297.018   3
  13   3  -2 6859.14 403.156   2
 -13  16  -2 6427.81 242.014   3
  -3 -13   1 120.906 127.473   3
  -3 -13   1 178.319 128.831   2
   3 -16   1 168.727 122.500   3
 -13  16   1 219.996 106.397   3
  13   3   1 194.967 129.402   2
 -16  13   1-42.3775 148.906   1
 -16  13   1 132.297 78.8348   3
 -13  16   1 147.027 101.870   2
  -3 -13   1 148.080 95.9464   1
 -16  13   1 183.109 114.637   2
  16  -3   1 282.248 150.222   4
  13   3   1 208.222 137.785   4
  16  -3   1 232.606 131.951   2
  16  -3   1 176.361 61.2945   3
 -13  16   1 183.510 136.126   1
   3 -16   1 112.438 97.0868   1
  13   3   1 143.421 84.9485   3
  16  -3   4 8856.97 278.711   3
  13   3   4 8808.70 358.550   3
 -13  16   4 9106.05 446.666   1
  13   3   4 8837.12 358.433   2
  13   3   4 9491.08 467.999   1
 -13  16   4 8768.52 325.360   2
  16  -3   4 9054.56 397.114   4
  16  -3   4 10026.7 425.319   2
   3 -16   4 8829.00 273.535   1
  13   3   4 9891.46 400.742   4
 -16  13   4 8895.04 431.389   1
  -3 -13   4 9104.81 421.704   3
   3 -16   4 8802.33 411.145   3
 -13  16   7 76.7983 175.683   1
  13   3   7-0.27315 172.683   1
  16  -3   7-117.513 164.622   1
   3 -16   7-33.3944 153.386   3
  13   3   7 56.0820 93.9717   2
  16  -3   7 72.4098 126.866   2
 -13  16   7 143.538 121.781   2
  16  -3   7 31.5739 113.810   3
 -16  13   7-273.498 186.826   3
  16  -3   7-57.9025 109.544   4
 -16  13   7 359.154 167.950   1
  -3 -13   7-51.1260 159.628   3
  13   3  10 2355.27 242.278   2
 -13  16  10 2138.58 317.577   1
  16  -3  10 2543.59 343.822   1
  16  -3  10 2621.89 290.430   2
  13   3  10 2846.89 363.916   1
  16  -3  10 3041.86 308.106   3
 -16  13  10 2336.67 307.671   1
  13   3  10 2255.24 294.836   3
 -13  16  10 2297.44 371.673   3
 -16  13  10 2483.00 366.813   3
  -3 -13  10 2697.06 351.827   3
   3 -16  10 2158.65 312.479   3
  16  -2  -9 94.0569 196.198   4
  16  -2  -6 254.337 194.228   2
  14   2  -6 490.765 257.024   2
  16  -2  -6 145.977 113.979   1
   2 -16  -6 245.937 92.4882   4
  16  -2  -6 216.702 170.541   4
  14   2  -6 223.648 81.5790   1
  -2 -14  -6 240.057 100.720   4
  14   2  -6-282.928 202.652   4
  -2 -14  -6 246.198 84.4961   4
 -14  16  -6 288.012 118.638   3
  16  -2  -3 105.122 152.421   2
  14   2  -3 557.549 201.930   2
 -16  14  -3 351.296 61.0838   3
  14   2  -3 228.811 99.4502   1
  16  -2  -3 369.389 128.157   1
  -2 -14  -3 310.353 126.654   4
  14   2  -3 276.723 175.507   4
  16  -2  -3 542.557 196.412   4
  -2 -14  -3 192.097 43.5691   2
  16  -2  -3 341.715 117.178   3
 -14  16  -3 371.112 83.9159   3
   2 -16  -3 116.991 29.6825   2
  -2 -14   0 1553.54 198.548   3
 -14  16   0 1188.26 215.560   1
  -2 -14   0 967.971 140.718   1
   2 -16   0 998.667 172.023   3
 -14  16   0 1176.75 161.904   2
   2 -16   0 1062.82 163.621   1
  16  -2   0 1154.91 195.744   4
  14   2   0 1277.83 222.650   4
 -16  14   0 938.112 185.521   1
  16  -2   0 1398.62 127.363   3
  14   2   0 1192.45 130.429   3
  -2 -14   0 1223.88 169.152   2
  16  -2   0 1157.26 185.914   2
 -14  16   0 1067.70 128.494   3
  14   2   0 1028.61 184.654   2
 -16  14   0 1139.18 105.124   3
  -2 -14   3 176.575 135.141   3
   2 -16   3 147.825 133.523   3
  16  -2   3 3.02188 66.7675   3
  14   2   3-22.7226 80.5251   3
 -16  14   3 86.7268 113.387   2
 -16  14   3 54.0535 138.358   1
 -14  16   3 81.4035 115.263   3
  14   2   3-63.5948 129.991   1
  -2 -14   3 102.969 74.4521   1
  16  -2   3 15.5466 122.602   4
  16  -2   3-151.386 127.286   2
  14   2   3 297.086 126.141   2
 -14  16   3-139.225 147.128   1
 -14  16   3 77.3292 93.3144   2
  14   2   3 132.580 133.837   4
   2 -16   3-16.3486 81.2994   1
  16  -2   6 832.359 158.065   4
  16  -2   6 665.423 142.024   3
 -14  16   6 1037.51 211.883   1
  14   2   6 877.006 143.366   4
  16  -2   6 884.114 214.274   1
  16  -2   6 1033.77 178.435   2
  14   2   6 634.468 135.447   2
 -16  14   6 1108.43 218.775   3
 -16  14   6 659.608 194.420   1
  14   2   6 987.087 225.384   1
  -2 -14   6 865.035 203.317   3
   2 -16   6 645.949 185.863   3
 -14  16   6 638.574 134.402   2
 -14  16   9 367.484 213.186   1
  16  -2   9 319.795 218.174   1
  16  -2   9 420.439 152.437   2
 -16  14   9 505.542 197.650   1
  14   2   9 364.232 226.000   1
 -14  16   9 76.8318 214.384   3
  16  -2   9 290.696 150.664   3
  14   2   9 251.941 127.283   2
 -16  14   9 369.158 226.453   3
  -2 -14   9 347.154 213.689   3
   2 -16   9 505.641 210.658   3
  -1 -15  -7 438.966 67.0154   4
  15   1  -7 518.103 96.5586   1
  16  -1  -7 474.242 261.050   2
  16  -1  -7 493.491 118.105   1
  15   1  -7 523.715 208.530   4
   1 -16  -7 411.014 86.8630   4
   1 -16  -7 422.157 75.2038   4
  16  -1  -7 631.329 212.493   4
  -1 -15  -7 191.654 60.9190   4
  15   1  -4 121.007 94.8629   1
  16  -1  -4 173.202 163.270   2
  15   1  -4-111.351 182.875   2
  16  -1  -4-47.9359 164.825   4
  15   1  -4 197.971 185.829   4
  -1 -15  -4 244.674 117.643   4
 -16  15  -4-7.87175 64.2927   3
 -15  16  -4 119.182 81.1433   3
  16  -1  -4-81.8566 110.234   1
 -16  15  -1 278.325 65.8025   3
  15   1  -1 150.746 162.281   2
 -15  16  -1 328.841 81.1280   3
  -1 -15  -1 331.286 104.069   2
   1 -16  -1 223.458 102.302   2
  -1 -15  -1-18.3436 132.476   3
   1 -16  -1 452.615 160.835   3
  16  -1  -1 74.7585 146.058   4
 -15  16  -1 405.527 159.746   1
  16  -1  -1 229.825 161.232   2
  15   1  -1 627.102 192.154   4
 -16  15  -1 544.532 174.887   1
  16  -1  -1 219.904 103.465   3
  15   1  -1 167.229 87.5453   3
 -15  16   2-27.5358 145.686   1
  15   1   2 27.9099 76.5762   3
 -15  16   2-10.1652 93.0851   2
  -1 -15   2-66.4801 129.331   3
   1 -16   2 103.270 124.123   3
 -15  16   2-32.6033 104.920   3
 -16  15   2 147.955 109.569   3
 -16  15   2 34.0444 153.371   1
  16  -1   2 96.1918 128.297   4
  15   1   2 319.599 150.495   4
  -1 -15   2 159.397 89.8725   1
   1 -16   2 133.124 92.9066   1
  16  -1   2 90.5420 115.874   2
  15   1   2-85.6534 120.942   2
 -16  15   2 40.4743 106.420   2
  16  -1   2 26.4566 68.6667   3
   1 -16   5 164.575 133.973   3
  15   1   5 58.8703 113.182   3
  16  -1   5 19.0208 94.2582   3
 -15  16   5 319.818 167.910   1
  15   1   5 298.306 165.809   1
  16  -1   5-35.9228 147.113   1
  15   1   5 126.107 121.523   4
  16  -1   5 284.498 149.351   2
  15   1   5 22.8236 111.006   2
 -16  15   5 65.3308 137.699   1
 -15  16   5 129.459 106.552   2
  16  -1   5 228.376 119.853   4
   1 -16   5 44.7055 41.6732   1
  -1 -15   5 399.858 163.230   3
  -1 -15   8 137.512 181.872   3
 -15  16   8-14.5603 164.994   1
 -15  16   8-426.034 217.914   3
 -16  15   8 124.941 155.102   1
  16  -1   8-33.5954 93.1107   4
  16  -1   8 37.1945 115.977   2
  15   1   8 9.14668 180.632   1
  15   1   8 99.8189 74.6037   4
 -16  15   8-334.281 207.398   3
   1 -16   8-236.274 163.693   3
  16  -1   8-7.17883 174.088   1
  15   1   8 50.2549 107.896   2
  16   0  -8 3134.78 368.864   4
  16   0  -5-174.328 180.937   2
  16   0  -5 36.7576 94.6648   1
   0 -16  -5-42.8295 104.551   4
   0 -16  -5-146.381 113.235   4
 -16  16  -5-36.4756 82.2644   3
  16   0  -5 254.498 192.532   4
  16   0  -2 9310.84 400.195   1
  16   0  -2 10007.6 503.534   4
  16   0  -2 9843.69 384.746   3
  16   0  -2 9561.77 485.686   2
   0 -16  -2 10229.8 293.151   2
 -16  16  -2 10064.4 249.420   3
   0 -16   1-59.8826 128.452   3
 -16  16   1 59.7495 83.9243   3
  16   0   1-84.6749 139.146   4
   0 -16   1-21.2736 127.479   2
 -16  16   1 38.8833 139.974   1
  16   0   1 6.00958 133.409   2
   0 -16   1-52.0633 103.246   1
  16   0   1-2.43471 75.7862   3
  16   0   4 9008.74 406.940   2
  16   0   4 8109.74 306.677   3
   0 -16   4 8074.10 244.089   1
 -16  16   4 7393.27 349.666   2
  16   0   4 8434.55 397.757   4
 -16  16   4 8042.50 445.641   1
   0 -16   4 7439.47 403.411   3
  16   0   7 9.36808 163.555   1
 -16  16   7 237.309 167.533   1
  16   0   7-47.7298 105.978   4
  16   0   7 46.2668 121.230   2
   0 -16   7-6.65516 170.438   3
  16   0  10 2531.09 346.454   1
  16   0  10 2272.75 267.223   2
   0 -16  10 2273.50 346.953   3
 -16  16  10 2173.75 337.668   1
  16   0  10 2484.29 293.677   3
 -16  16  10 2234.52 351.487   3
  17 -17  -8 43.6349 161.524   2
  17 -17  -8 267.718 157.095   4
  17 -17  -5 122.533 145.121   4
 -17   0  -5 19.3457 107.708   4
  17 -17  -5-134.865 143.244   2
 -17   0  -2 895.557 128.019   3
  17 -17  -2 681.881 157.991   2
  17 -17  -2 721.232 174.440   4
   0  17  -2 950.071 132.440   1
 -17   0   1-115.538 90.0220   3
   0  17   1 122.139 124.697   1
  17 -17   1 143.564 158.915   4
  17 -17   1 108.952 138.782   2
  17 -17   4 472.497 178.777   4
  17 -17   4 531.659 101.769   3
   0  17   4 499.934 174.251   1
  17 -17   4 407.827 173.782   2
 -17   0   4 554.186 147.906   3
   0  17   7 198.968 203.072   1
  17 -17   7-67.8098 169.493   2
  17 -17   7 58.5009 148.815   4
 -17   0   7-438.551 199.688   3
  17 -17   7 57.7027 100.073   3
  17 -17  10-18.8966 154.664   1
  17 -17  10 162.979 145.317   3
  16 -17  -9 119.072 152.385   4
  17 -16  -9 174.962 159.548   4
  17 -16  -6 18.8981 146.617   4
  16 -17  -6-72.7291 154.341   2
 -17   1  -6-95.6446 109.907   4
  16 -17  -6 133.500 140.081   4
  17 -16  -6 5.30433 152.341   2
 -16  -1  -6-13.5228 101.661   4
  16 -17  -3 199.340 149.073   4
  17 -16  -3 70.5918 139.928   4
  -1  17  -3 84.8119 80.6204   1
  16 -17  -3-14.6989 128.637   2
  17 -16  -3 388.451 135.124   2
   1  16  -3 323.428 100.645   1
 -17   1   0 154.931 96.6704   3
 -16  -1   0 13.6361 90.8419   3
  -1  17   0 48.3988 117.488   1
   1  16   0 259.448 117.668   1
  17 -16   0-11.0455 135.186   4
  16 -17   0 268.039 158.370   4
  17 -16   0 322.537 135.855   2
  16 -17   0 247.354 143.126   2
  17 -16   3 694.867 92.4317   3
   1  16   3 661.263 181.267   1
  16 -17   3 625.966 105.888   3
  -1  17   3 784.755 188.217   1
  16 -17   3 661.856 192.667   4
 -16  -1   3 755.346 143.467   3
  16 -17   3 704.095 179.282   2
  17 -16   3 651.817 176.732   2
 -17   1   3 539.897 125.173   3
  17 -16   3 769.659 183.039   4
  16 -17   6 21.7941 96.8303   3
   1  16   6 134.005 155.788   1
  -1  17   6 36.7748 174.908   1
  17 -16   6 59.4601 150.431   4
  16 -17   6 76.2907 154.845   4
  16 -17   6 192.136 151.821   2
  17 -16   6 14.8840 86.1531   3
 -17   1   6 217.130 161.406   3
 -16  -1   6 277.732 167.037   3
  17 -16   6 139.780 154.027   2
  16 -17   9-253.286 169.549   4
   1  16   9-193.955 194.297   1
  -1  17   9-74.0603 203.545   1
  17 -16   9 391.986 191.826   4
  16 -17   9 113.785 183.638   2
  17 -16   9 55.7209 188.899   2
 -17   1   9-123.849 186.037   3
 -16  -1   9 14.9871 186.271   3
  17 -16   9 115.803 118.515   3
  16 -17   9 248.839 147.594   3
  17 -15 -10 144.449 166.754   4
 -17   2  -7 2059.67 196.959   4
 -15  -2  -7 1806.52 160.072   4
  15 -17  -7 2722.55 270.575   4
  17 -15  -7 1955.08 258.458   4
  17 -15  -7 2451.89 291.103   2
  15 -17  -7 2282.23 242.003   2
  -2  17  -4 854.708 117.008   1
 -17   2  -4 891.868 165.309   4
  15 -17  -4 749.327 167.128   4
 -15  -2  -4 770.413 154.540   2
  17 -15  -4 978.517 193.168   2
  17 -15  -4 999.767 203.952   4
 -15  -2  -4 810.969 153.801   4
  15 -17  -4 927.676 163.870   2
   2  15  -4 724.516 85.7317   1
 -15  -2  -1 3431.88 223.876   3
 -17   2  -1 3829.27 197.509   3
  -2  17  -1 4089.09 253.377   1
  15 -17  -1 3771.73 294.092   4
  17 -15  -1 4124.63 311.527   4
  17 -15  -1 3755.50 277.608   2
   2  15  -1 3841.23 237.881   1
  15 -17  -1 3917.64 253.936   2
  15 -17   2 1964.38 159.673   3
  15 -17   2 1806.04 241.502   4
  17 -15   2 2183.70 243.909   4
  17 -15   2 2050.87 226.534   2
   2  15   2 2242.72 238.708   1
  -2  17   2 1904.45 220.819   1
 -17   2   2 1942.77 168.635   3
 -15  -2   2 1968.76 191.705   3
  15 -17   2 1619.02 209.278   2
  -2  17   5 2541.17 287.569   1
  15 -17   5 2450.03 266.419   4
  15 -17   5 2807.78 282.379   2
  17 -15   5 2810.14 279.651   4
 -17   2   5 2535.67 260.209   3
 -15  -2   5 2339.73 244.339   3
   2  15   5 2761.29 296.777   1
  17 -15   5 2634.26 164.308   3
  15 -17   5 2548.17 202.305   3
  17 -15   5 2725.22 287.852   2
  15 -17   8 1218.09 229.408   4
   2  15   8 628.984 216.556   1
  -2  17   8 1178.40 263.300   1
  15 -17   8 544.028 214.961   2
 -17   2   8 820.505 229.053   3
  17 -15   8 855.912 199.264   4
 -15  -2   8 696.015 215.189   3
  17 -15   8 974.911 152.980   3
  15 -17   8 997.100 182.294   3
  17 -15   8 711.027 240.243   2
  17 -14  -8 22.5525 178.988   2
  17 -14  -8 126.175 148.710   4
  14 -17  -8-16.2641 133.704   4
  14 -17  -5 46.7361 123.016   2
  17 -14  -5 243.208 158.767   4
 -14  -3  -5-43.3151 95.9471   2
  17 -14  -5-84.4931 150.532   2
 -17   3  -5-84.3660 111.535   4
 -14  -3  -5 13.7035 98.5317   4
  14 -17  -5-97.2856 133.324   4
  14 -17  -2 56.4100 118.825   4
  -3  17  -2 37.5407 92.2431   1
 -14  -3  -2 0.13762 107.122   3
  17 -14  -2 178.611 139.063   4
 -14  -3  -2 107.017 120.516   4
 -14  -3  -2 348.240 123.429   2
  14 -17  -2 306.447 110.782   2
   3  14  -2 61.3487 77.4728   1
  17 -14  -2 105.177 124.016   2
  14 -17   1 956.652 133.997   3
 -14  -3   1 1028.38 151.616   3
  14 -17   1 1217.39 180.808   2
  14 -17   1 1271.82 211.367   4
  17 -14   1 859.929 172.264   2
  -3  17   1 1163.08 182.582   1
   3  14   1 1084.20 177.996   1
 -17   3   1 1006.27 118.407   3
  17 -14   1 1228.98 191.005   4
  14 -17   4 61.8289 97.0291   3
  17 -14   4 64.7898 53.7841   3
  -3  17   4 180.397 153.312   1
  14 -17   4-60.8003 143.955   4
  17 -14   4-171.371 134.227   4
  14 -17   4 175.463 135.866   2
 -17   3   4-105.086 125.501   3
  17 -14   4-73.8294 162.217   2
   3  14   4-39.9834 161.461   1
 -14  -3   4 63.0091 117.037   3
   3  14   7 18.5870 173.440   1
  17 -14   7-71.2245 149.624   4
  14 -17   7 198.355 173.334   4
  17 -14   7-191.690 180.838   2
  -3  17   7 174.673 176.021   1
 -17   3   7 182.174 169.976   3
 -14  -3   7-84.0042 174.795   3
  14 -17   7 40.9119 155.681   2
  17 -14   7 160.420 101.225   3
  14 -17   7 160.157 132.716   3
  14 -17  10 118.730 157.329   1
   3  14  10 194.011 218.984   1
  14 -17  10 345.047 193.315   4
  17 -14  10 358.739 219.753   2
  14 -17  10 205.476 220.194   2
  -3  17  10 237.581 246.090   1
  17 -14  10 352.867 167.618   4
 -14  -3  10 372.725 225.500   3
 -17   3  10 420.776 212.130   3
  17 -14  10 183.663 163.057   1
  17 -14  10 163.585 137.176   3
  14 -17  10 226.608 169.467   3
  17 -13  -9 322.941 172.440   4
  13 -17  -9 358.269 146.404   4
  17 -13  -6 239.010 176.239   2
  13 -17  -6 455.368 150.231   2
 -17   4  -6 107.243 117.783   4
 -13  -4  -6 153.578 90.5706   4
  17 -13  -6 160.022 147.964   4
  13 -17  -6 201.606 131.062   4
  13 -17  -3 542.604 152.306   4
 -17   4  -3 466.133 136.825   4
  17 -13  -3 360.035 155.738   4
 -13  -4  -3 418.207 129.202   4
   4  13  -3 442.224 83.9297   1
 -13  -4  -3 524.301 132.560   2
  13 -17  -3 435.666 119.476   2
  -4  17  -3 493.251 108.535   1
  17 -13  -3 671.911 176.196   2
  -4  17   0 1660.87 186.502   1
  17 -13   0 1369.70 210.010   4
  13 -17   0 1721.94 228.917   4
  13 -17   0 1725.73 193.715   2
 -13  -4   0 1548.82 188.978   2
  17 -13   0 1749.75 208.153   2
   4  13   0 1888.41 183.551   1
 -17   4   0 1686.13 126.823   3
 -13  -4   0 1562.41 163.506   3
  17 -13   3 382.968 148.901   2
  13 -17   3 677.887 168.102   2
  13 -17   3 829.204 130.821   3
  17 -13   3 789.078 174.225   4
  13 -17   3 313.456 140.338   4
  -4  17   3 545.196 157.946   1
 -17   4   3 564.073 120.420   3
   4  13   3 803.232 172.912   1
 -13  -4   3 836.889 157.480   3
  -4  17   6 196.654 161.569   1
  17 -13   6 296.749 179.557   2
  13 -17   6 464.286 177.834   4
  13 -17   6 513.948 177.652   2
  17 -13   6 336.641 157.906   4
 -17   4   6 325.073 152.373   3
 -13  -4   6 131.955 160.590   3
  17 -13   6 261.052 96.0162   3
   4  13   6 235.471 202.081   1
  13 -17   6 373.984 138.293   3
  17 -13   9-240.422 200.535   2
  13 -17   9 173.622 173.040   4
  13 -17   9-166.139 196.779   2
  17 -13   9 129.518 134.539   1
  17 -13   9-82.5275 154.215   4
  -4  17   9 180.712 198.983   1
   4  13   9 121.903 207.143   1
 -17   4   9 452.425 221.754   3
  17 -13   9 475.881 130.108   3
 -13  -4   9-61.1592 179.046   3
  13 -17   9 66.5615 150.711   3
  17 -12 -10 619.100 198.236   4
  17 -12  -7 1814.51 267.905   2
 -12  -5  -7 1228.28 100.166   4
  12 -17  -7 1687.31 206.156   4
  17 -12  -7 1491.37 227.672   4
  12 -17  -4 894.144 138.677   2
   5  12  -4 886.836 73.5553   1
 -12  -5  -4 1064.44 155.091   4
 -17   5  -4 910.125 163.566   4
 -12  -5  -4 902.364 120.426   2
  17 -12  -4 1137.35 221.209   2
  12 -17  -4 984.084 168.313   4
  -5  17  -4 1155.17 144.428   1
  17 -12  -4 793.172 187.235   4
 -12  -5  -1 6127.82 301.702   3
 -17   5  -1 5656.42 168.416   3
  -5  17  -1 6330.48 305.303   1
  17 -12  -1 5734.78 347.109   4
  12 -17  -1 5895.74 278.764   2
 -12  -5  -1 5516.69 350.540   4
   5  12  -1 6310.94 288.359   1
 -12  -5  -1 5928.45 299.991   2
  12 -17  -1 5847.13 357.185   4
  17 -12  -1 5940.85 336.326   2
  12 -17   2 1696.44 168.241   3
  12 -17   2 1444.11 216.966   4
   5  12   2 1729.62 213.488   1
  12 -17   2 1414.89 190.804   2
  17 -12   2 1645.97 213.145   4
  17 -12   2 1397.39 200.342   2
  12 -17   2 1135.55 175.607   1
 -17   5   2 1574.86 147.324   3
 -12  -5   2 1727.86 190.485   3
  -5  17   2 1415.67 195.413   1
  12 -17   5 4166.81 332.544   4
  12 -17   5 3934.92 332.343   2
  17 -12   5 4691.78 320.664   4
   5  12   5 4340.11 363.100   1
  12 -17   5 3838.72 266.622   1
  17 -12   5 4261.30 330.283   2
 -17   5   5 4226.96 308.173   3
 -12  -5   5 4169.24 313.166   3
  17 -12   5 4622.27 187.936   3
  -5  17   5 4502.33 352.021   1
  12 -17   5 3976.55 256.284   3
  12 -17   8 1771.17 276.287   2
 -17   5   8 1525.25 206.983   1
  17 -12   8 1428.28 209.669   4
   5  12   8 1978.42 293.253   1
 -17   5   8 1952.52 279.465   3
  17 -12   8 1651.15 262.515   2
  -5  17   8 1346.70 262.347   1
  17 -12   8 1714.04 184.794   3
  12 -17   8 1678.70 220.055   3
  12 -17   8 1830.32 260.331   4
 -12  -5   8 1561.30 259.689   3
  11 -17  -8 33.8673 112.258   4
  17 -11  -8 94.9238 194.864   2
  17 -11  -8 70.1656 155.525   4
  11 -17  -5 898.844 133.379   2
  17 -11  -5 1133.01 229.716   2
 -11  -6  -5 764.325 117.758   2
 -11  -6  -5 951.212 134.287   4
  11 -17  -5 762.326 155.854   4
  17 -11  -5 580.587 185.571   4
 -17   6  -5 881.025 163.587   4
 -11  -6  -2 231.352 135.273   3
  11 -17  -2 39.1120 129.980   4
  17 -11  -2 286.930 163.545   4
 -11  -6  -2 112.098 121.955   4
 -11  -6  -2 115.051 93.5226   2
  11 -17  -2 65.9202 82.4467   2
  -6  17  -2 201.650 108.148   1
  17 -11  -2 77.6919 144.419   2
   6  11  -2 252.420 91.7726   1
  11 -17   1 2757.70 211.792   3
  -6  17   1 2835.39 244.411   1
  11 -17   1 2677.00 227.873   1
  11 -17   1 2288.42 250.507   4
  17 -11   1 2730.64 260.688   4
   6  11   1 2791.17 234.043   1
  17 -11   1 2393.85 235.436   2
 -11  -6   1 2585.05 245.705   2
 -17   6   1 2694.19 147.727   3
  11 -17   1 2725.38 224.747   2
 -11  -6   1 3068.23 229.884   3
   6  11   1 2788.39 214.394   2
  11 -17   4 346.129 121.776   3
  17 -11   4 388.489 51.4337   3
   6  11   4 314.059 70.0580   2
  11 -17   4 295.785 136.695   4
  17 -11   4 255.576 149.732   2
  17 -11   4 356.283 142.746   4
  11 -17   4 526.573 165.600   2
  11 -17   4 320.095 124.903   1
  -6  17   4 456.124 170.322   1
   6  11   4 512.018 162.232   1
 -17   6   4 439.102 134.456   3
 -11  -6   4 401.843 138.884   3
   6  11   7 1748.68 283.316   1
  11 -17   7 1799.89 269.779   2
  11 -17   7 1516.76 254.525   4
  17 -11   7 1941.11 228.715   4
  17 -11   7 1523.96 232.629   2
  11 -17   7 1381.03 183.545   1
 -17   6   7 1777.37 265.886   3
  17 -11   7 1422.44 158.819   3
 -11  -6   7 1684.84 250.863   3
  11 -17   7 1527.13 208.831   3
 -17   6   7 1303.19 196.688   1
  -6  17   7 2116.74 278.570   1
   6  11  10 171.416 207.078   1
  11 -17  10-173.884 197.822   2
  17 -11  10 96.1813 156.406   1
  11 -17  10 200.696 180.407   4
  -6  17  10 169.669 185.180   1
  17 -11  10 489.093 215.302   2
 -17   6  10 411.391 222.897   3
  17 -11  10 51.5834 124.172   3
 -11  -6  10-281.489 214.557   3
  11 -17  10 183.198 182.003   3
  17 -10  -9 429.031 214.851   4
  10 -17  -9 448.542 116.565   4
 -17   7  -6 512.484 146.075   4
  17 -10  -6 595.892 224.812   2
  10 -17  -6 634.724 103.101   2
 -10  -7  -6 655.833 99.7719   4
  17 -10  -6 737.183 196.024   4
  10 -17  -6 651.931 147.807   4
  10 -17  -3 509.422 138.689   4
 -17   7  -3 497.921 142.566   4
  17 -10  -3 535.779 177.413   4
  -7  17  -3 657.980 130.282   1
 -10  -7  -3 587.754 146.761   4
 -10  -7  -3 597.203 108.463   2
  10 -17  -3 493.721 98.5284   2
   7  10  -3 550.975 87.1419   1
  17 -10  -3 543.388 159.654   2
  -7  17   0 141.770 124.663   1
  -7  17   0 167.338 109.072   3
 -10  -7   0 141.689 114.221   3
   7  10   0 165.205 125.248   2
  10 -17   0 48.9140 118.226   3
  10 -17   0 297.119 157.476   4
  10 -17   0 103.760 103.759   2
  17 -10   0 409.469 156.413   4
  10 -17   0 191.552 120.985   1
  17 -10   0 121.861 135.660   2
   7  10   0 148.955 106.769   1
 -10  -7   0 317.660 122.557   2
 -17   7   0 232.909 51.0526   3
  -7  17   3 1582.05 213.778   1
  17 -10   3 1171.92 184.141   4
  10 -17   3 1301.06 169.877   1
  10 -17   3 1200.93 194.321   2
  10 -17   3 1287.54 221.129   4
 -17   7   3 1220.16 154.584   3
   7  10   3 1217.15 202.808   1
   7  10   3 1156.34 130.936   2
  10 -17   3 1032.70 144.934   3
 -10  -7   3 1034.82 161.334   3
  17 -10   3 1024.69 171.856   2
  10 -17   6 52.2682 99.3220   1
  10 -17   6 172.703 157.660   2
  10 -17   6 369.884 158.932   3
  17 -10   6 320.877 142.374   4
  17 -10   6 386.018 161.193   2
 -17   7   6 282.562 147.970   1
  -7  17   6 183.950 166.844   1
  10 -17   6 238.944 152.322   4
 -17   7   6-72.4129 141.543   3
   7  10   6 448.527 176.917   1
  17 -10   6 218.473 89.4218   3
 -10  -7   6 265.964 157.217   3
   7  10   6 122.646 58.4228   2
 -17   7   9 351.301 162.344   1
  17 -10   9 367.209 173.814   1
  10 -17   9 158.586 109.315   1
  17 -10   9 421.573 147.883   4
  10 -17   9 599.318 207.388   4
  10 -17   9 486.716 226.134   2
  -7  17   9 413.693 212.297   1
 -17   7   9 639.492 242.963   3
  17 -10   9 337.921 130.020   3
  17 -10   9 431.752 195.539   2
 -10  -7   9 859.808 248.682   3
  10 -17   9 377.162 172.779   3
   7  10   9 524.780 239.760   1
  17  -9 -10 303.515 184.379   4
  17  -9  -7 1620.11 277.174   2
   9 -17  -7 1340.38 165.653   4
  17  -9  -7 1522.99 258.109   4
  -9  -8  -4 683.421 134.499   4
  17  -9  -4 533.087 179.960   2
  -8  17  -4 803.282 151.241   1
   9 -17  -4 908.037 150.158   4
  -9  -8  -4 603.088 96.5583   2
   8   9  -4 707.314 70.4315   1
  17  -9  -4 628.022 187.774   4
   9 -17  -4 687.995 97.7596   2
  -9  -8  -1 5621.15 307.691   3
  -9  -8  -1 5642.91 344.980   4
   9 -17  -1 5763.59 316.370   3
   8   9  -1 6054.20 356.987   2
   9 -17  -1 5850.43 258.256   2
   9 -17  -1 5380.44 331.548   4
   8   9  -1 5648.69 273.822   1
  17  -9  -1 6144.73 375.245   4
  17  -9  -1 5322.86 328.888   2
  -9  -8  -1 5632.11 276.448   2
  -8  17  -1 5245.45 291.694   1
  -8  17  -1 5518.77 275.086   3
   9 -17   2 2075.97 194.225   1
  -8  17   2 2404.82 241.080   1
   9 -17   2 1916.31 213.766   2
   8   9   2 2681.57 249.470   1
  17  -9   2 2400.47 246.816   4
 -17   8   2 2549.92 175.429   3
   8   9   2 2333.31 197.247   2
  17  -9   2 2451.40 235.562   2
  -9  -8   2 2289.66 210.444   3
   9 -17   2 2089.74 246.125   4
   9 -17   2 2002.53 188.512   3
   9 -17   5 4969.31 370.462   4
   9 -17   5 4744.45 259.139   1
 -17   8   5 5008.89 335.096   1
  17  -9   5 4690.00 333.343   2
  17  -9   5 5082.66 327.542   4
   8   9   5 4961.98 365.713   1
  17  -9   5 5077.04 190.361   3
   8   9   5 4762.79 204.429   2
 -17   8   5 5040.38 330.300   3
  -9  -8   5 4651.96 335.904   3
   9 -17   5 4297.08 289.506   3
  -8  17   5 4525.18 341.052   1
 -17   8   8 456.487 165.529   1
  17  -9   8 439.739 148.130   4
  17  -9   8 436.512 182.637   2
   8   9   8 390.856 77.3370   2
   9 -17   8 779.213 223.814   4
  17  -9   8 706.104 206.977   1
 -17   8   8 249.467 168.067   3
  17  -9   8 682.708 144.879   3
   8   9   8 529.115 209.995   1
  -8  17   8 686.425 213.156   1
  -9  -8   8 300.352 183.300   3
   9 -17   8 455.892 180.258   3
  17  -8  -8 48.0670 212.617   2
   8 -17  -8 200.498 88.2766   4
  -8  -9  -5 4492.12 232.574   4
   8 -17  -5 4628.34 271.105   4
  17  -8  -5 4124.78 337.519   4
  17  -8  -5 4984.53 379.083   2
   8 -17  -5 3891.45 145.867   2
  -8  -9  -2 2172.58 224.679   3
  17  -8  -2 1990.21 229.783   2
   8 -17  -2 2146.66 225.766   4
   8 -17  -2 2079.21 145.561   2
  -8  -9  -2 2224.05 169.407   2
   9   8  -2 1928.40 246.884   2
   9   8  -2 2142.44 269.728   4
  17  -8  -2 1714.79 233.800   4
   9   8  -2 2217.11 168.773   1
  -9  17  -2 2053.77 177.724   3
  -9  17  -2 1926.29 198.830   1
  -8  -9  -2 2196.16 221.324   4
   8 -17   1 5798.61 307.002   3
  17  -8   1 5983.83 350.575   4
   8 -17   1 5521.79 351.312   4
   8 -17   1 5895.25 296.916   2
  -9  17   1 5669.15 332.480   1
   9   8   1 6224.27 330.097   1
  17  -8   1 5686.39 330.834   2
   9   8   1 5382.17 329.175   4
 -17   9   1 5529.31 199.188   3
  -8  -9   1 6107.76 338.554   2
   9   8   1 5234.21 296.993   2
   8 -17   1 6003.27 301.676   1
   9   8   1 5304.77 278.027   3
  -8  -9   1 5376.51 296.589   3
  -9  17   1 5856.36 302.967   3
   8 -17   4 822.787 158.806   3
  17  -8   4 531.194 61.0481   3
  -9  17   4 563.704 86.7602   2
 -17   9   4 450.596 150.466   1
  17  -8   4 792.532 165.736   2
  17  -8   4 519.282 148.861   4
   9   8   4 524.896 186.020   1
  17  -8   4 560.127 58.1388   3
 -17   9   4 867.281 160.532   3
  -9  17   4 611.591 182.850   1
   8 -17   4 726.238 126.075   1
   9   8   4 686.906 113.787   2
  -8  -9   4 620.864 163.732   3
  -9  17   7 1586.84 252.412   1
 -17   9   7 1805.79 227.071   1
   8 -17   7 1399.77 144.787   1
  17  -8   7 1617.05 230.908   2
  17  -8   7 1426.84 197.706   4
   9   8   7 1569.02 137.533   2
 -17   9   7 1529.46 253.924   3
  17  -8   7 1916.36 178.001   3
   9   8   7 1741.60 253.432   1
  -9  17   7 1154.21 90.1807   2
   8 -17   7 1806.89 228.757   3
  -8  -9   7 1393.05 245.876   3
   8 -17  10-38.2554 184.801   4
  17  -8  10 319.463 168.948   2
 -17   9  10 426.791 180.915   1
  17  -8  10 209.852 186.472   1
  -9  17  10 210.599 207.804   1
 -17   9  10 563.729 240.746   3
  17  -8  10 155.445 139.638   3
  -8  -9  10 91.7959 201.830   3
   9   8  10 490.091 261.955   1
   8 -17  10 248.298 184.158   3
  17  -7  -9 575.068 236.086   4
  17  -7  -6 61.8890 186.665   2
  -7 -10  -6 265.019 77.7131   4
   7 -17  -6 362.538 114.256   4
  17  -7  -6 199.366 171.587   4
   7 -17  -3 1163.05 171.940   4
  10   7  -3 1569.96 238.704   2
  10   7  -3 1278.43 124.004   1
 -10  17  -3 1372.16 181.353   1
  -7 -10  -3 1216.44 178.389   4
   7 -17  -3 1391.30 104.831   2
  -7 -10  -3 1303.25 118.574   2
  17  -7  -3 1455.86 226.633   4
  17  -7  -3 1340.45 177.053   1
  10   7  -3 1440.26 252.536   4
 -10  17  -3 1040.97 140.593   3
  17  -7  -3 1150.88 210.182   2
 -10  17   0 89.0265 92.7507   3
  10   7   0 66.1533 139.630   2
  -7 -10   0 307.656 128.783   3
   7 -17   0 178.241 149.545   3
  17  -7   0 157.137 152.518   4
  10   7   0 110.802 140.459   4
   7 -17   0 176.244 111.276   1
   7 -17   0 309.988 143.340   4
   7 -17   0 209.449 100.401   2
  10   7   0 201.139 122.511   1
 -10  17   0 116.717 125.972   1
  -7 -10   0 318.034 154.370   4
  17  -7   0 248.048 137.694   2
 -17  10   0 168.481 40.7386   3
  -7 -10   0 147.034 119.273   2
  10   7   0 36.1354 100.997   3
  -7 -10   3 520.427 149.123   3
  10   7   3 561.781 140.707   4
   7 -17   3 638.803 135.072   3
  10   7   3 424.361 127.847   3
   7 -17   3 577.049 121.903   1
 -10  17   3 412.301 92.1705   2
  17  -7   3 466.794 141.576   4
  17  -7   3 783.890 171.542   2
  10   7   3 548.306 167.494   1
 -17  10   3 477.823 128.357   3
 -17  10   3 669.344 171.683   1
  10   7   3 606.688 130.827   2
 -10  17   3 660.112 180.256   1
  17  -7   6 719.345 163.714   4
 -17  10   6 769.734 183.284   1
  17  -7   6 676.334 168.182   2
  -7 -10   6 588.027 189.097   3
  10   7   6 774.231 212.226   1
   7 -17   6 566.672 109.061   1
 -17  10   6 1003.37 206.652   3
  17  -7   6 551.440 106.791   3
  10   7   6 618.142 114.220   2
 -10  17   6 803.188 186.002   1
 -10  17   6 673.140 92.9662   2
   7 -17   6 629.643 163.838   3
  17  -7   9 265.369 122.148   4
 -17  10   9 268.449 156.767   1
  17  -7   9 220.114 192.255   1
  17  -7   9 366.105 177.200   2
  10   7   9 336.259 112.606   2
   7 -17   9 287.688 190.202   3
 -17  10   9 278.564 229.356   3
  17  -7   9 394.126 161.283   3
 -10  17   9 497.678 219.396   1
  10   7   9-7.17692 196.606   1
  -7 -10   9 121.361 184.782   3
  17  -6 -10 102.366 186.915   4
   6 -17  -7 1464.10 147.151   4
  17  -6  -7 1817.57 281.490   4
  17  -6  -7 1983.68 308.803   2
  17  -6  -4 407.223 176.809   2
  11   6  -4 351.261 198.973   2
  -6 -11  -4 319.844 56.3981   2
  11   6  -4 477.051 82.2403   1
  -6 -11  -4 329.316 113.461   4
  11   6  -4 113.253 181.922   4
  17  -6  -4 536.458 183.624   4
  17  -6  -4 299.606 135.929   1
  11   6  -4 429.221 86.6710   1
 -11  17  -4 335.163 105.707   3
   6 -17  -4 323.336 115.020   4
  -6 -11  -1 2651.41 234.949   3
   6 -17  -1 2683.66 254.344   3
   6 -17  -1 2488.07 239.369   4
  -6 -11  -1 2675.13 227.693   1
  11   6  -1 2809.83 207.471   1
   6 -17  -1 2634.49 176.785   2
  17  -6  -1 2878.90 284.792   4
  11   6  -1 2365.88 247.420   2
  -6 -11  -1 2622.32 255.895   4
  11   6  -1 2822.31 281.432   4
  17  -6  -1 2388.55 246.517   2
  -6 -11  -1 2853.15 199.024   2
  11   6  -1 2722.20 202.492   3
 -11  17  -1 2780.87 241.242   1
 -11  17  -1 2617.61 188.096   3
  -6 -11   2-1.58839 119.069   3
  11   6   2 103.695 88.6987   3
   6 -17   2 303.468 117.679   3
 -11  17   2 142.354 131.255   3
 -11  17   2 203.021 138.093   1
 -11  17   2 257.841 99.2516   2
   6 -17   2 150.387 93.3422   1
  11   6   2 251.074 147.112   1
  11   6   2 145.936 122.425   4
  17  -6   2-31.5711 143.613   4
  17  -6   2 142.114 137.200   2
 -17  11   2 96.8648 86.3439   3
 -17  11   2 198.720 145.890   1
  11   6   2 118.798 113.302   2
   6 -17   5 1065.30 189.798   3
  17  -6   5 893.914 116.624   3
 -11  17   5 870.106 112.408   2
 -17  11   5 830.815 197.746   1
  17  -6   5 1028.94 191.282   2
  11   6   5 903.374 144.738   2
  11   6   5 962.060 206.200   1
  17  -6   5 956.697 110.665   3
   6 -17   5 758.017 111.443   1
 -17  11   5 1022.47 188.624   3
 -11  17   5 918.507 211.776   1
  17  -6   5 1026.02 180.986   4
  -6 -11   5 825.617 187.477   3
  17  -6   8 40.2980 167.185   1
  11   6   8-11.3840 179.719   1
 -17  11   8-52.6950 159.092   1
  17  -6   8 83.2642 122.319   4
  17  -6   8 390.212 165.133   2
   6 -17   8 29.6238 46.8559   1
  11   6   8 252.536 111.511   2
 -17  11   8 233.474 186.245   3
  17  -6   8-65.5896 115.300   3
 -11  17   8 95.0582 180.596   1
  -6 -11   8 152.211 182.562   3
   6 -17   8 64.4822 158.854   3
  17  -5  -8 1739.02 305.867   2
  17  -5  -8 1869.58 276.388   4
  12   5  -5 3694.13 377.435   2
  17  -5  -5 3432.92 246.894   1
   5 -17  -5 4533.86 255.330   4
  12   5  -5 4011.44 167.293   1
  -5 -12  -5 3982.29 233.866   4
  17  -5  -5 3809.77 346.728   4
  12   5  -5 4096.67 371.659   4
 -12  17  -5 3504.68 245.379   3
  17  -5  -5 3734.97 357.357   2
  -5 -12  -2 1535.00 217.848   3
 -12  17  -2 1651.11 201.548   1
   5 -17  -2 1773.31 205.994   4
   5 -17  -2 1626.09 117.458   2
  17  -5  -2 1814.31 236.976   2
  -5 -12  -2 1383.04 188.630   4
  12   5  -2 2131.20 271.141   4
  17  -5  -2 1452.96 212.346   4
  17  -5  -2 1604.60 193.697   1
  -5 -12  -2 1685.51 137.786   2
  17  -5  -2 1388.20 144.359   3
 -12  17  -2 1450.46 147.049   3
  12   5  -2 1654.67 249.401   2
 -12  17   1 5553.38 284.949   3
  -5 -12   1 5776.69 274.318   1
  12   5   1 6452.45 343.725   1
  17  -5   1 6712.86 380.351   4
   5 -17   1 5466.41 309.393   3
  12   5   1 5639.23 352.176   4
  17  -5   1 5744.14 333.376   2
 -17  12   1 5931.03 369.739   1
 -12  17   1 5857.46 340.875   1
   5 -17   1 5241.12 275.199   1
  17  -5   1 5279.58 154.609   3
  12   5   1 5462.29 319.505   2
  -5 -12   1 5942.39 340.332   2
 -17  12   1 5697.50 212.394   3
 -12  17   1 5270.35 275.755   2
  12   5   1 5602.60 266.914   3
  -5 -12   1 5426.05 317.256   3
   5 -17   4 801.993 172.334   3
 -12  17   4 905.959 192.953   1
  12   5   4 707.275 195.263   1
 -12  17   4 735.660 117.738   2
  17  -5   4 834.378 161.912   4
 -17  12   4 796.297 192.134   1
  17  -5   4 1109.85 184.110   2
  12   5   4 1036.84 150.587   2
  12   5   4 1106.41 169.255   4
 -17  12   4 932.018 178.966   3
   5 -17   4 809.585 117.600   1
  17  -5   4 1002.92 96.3298   3
  -5 -12   4 1142.31 189.842   3
 -12  17   7 1361.34 149.122   2
 -17  12   7 1324.24 224.281   1
  17  -5   7 1255.77 182.406   3
  17  -5   7 1469.57 256.766   1
  17  -5   7 1709.62 200.865   4
  17  -5   7 1538.89 229.529   2
  12   5   7 1579.22 168.696   2
  12   5   7 1690.20 264.397   1
   5 -17   7 1157.58 87.4704   1
  17  -5   7 1637.86 180.784   3
 -17  12   7 1561.16 257.464   3
  -5 -12   7 1475.53 253.313   3
   5 -17   7 1357.98 226.818   3
 -12  17   7 1376.24 243.801   1
 -17  12  10 897.539 229.046   1
 -12  17  10 761.378 223.142   1
   5 -17  10 691.131 225.757   3
  17  -5  10 710.727 195.134   2
  17  -5  10 719.739 245.743   1
 -12  17  10 424.778 246.966   3
 -17  12  10 547.500 249.023   3
  17  -5  10 734.111 196.787   3
  12   5  10 465.530 242.614   1
  -5 -12  10 440.990 218.713   3
  17  -4  -9 359.304 199.986   4
  17  -4  -6 34.7118 175.789   2
   4 -17  -6 127.275 91.8815   4
  13   4  -6 340.844 60.7718   1
  -4 -13  -6 204.975 83.2818   4
  17  -4  -6 467.112 138.159   1
  13   4  -6 355.668 205.217   4
  17  -4  -3 1019.71 205.004   2
  13   4  -3 789.399 129.634   1
  17  -4  -3 752.963 149.656   1
   4 -17  -3 669.786 57.5712   2
  13   4  -3 700.793 227.244   2
  -4 -13  -3 936.609 162.151   4
 -13  17  -3 674.066 163.263   1
  17  -4  -3 1146.73 223.243   4
  -4 -13  -3 726.382 79.9545   2
  13   4  -3 804.376 203.667   4
   4 -17  -3 830.052 160.906   4
  17  -4  -3 690.460 140.456   3
 -13  17  -3 854.579 120.443   3
   4 -17  -3 587.536 64.6208   2
  -4 -13   0 1480.72 199.234   3
 -17  13   0 1603.22 106.073   3
   4 -17   0 1431.67 200.708   3
 -17  13   0 1279.65 207.851   1
 -13  17   0 1512.86 174.857   2
  -4 -13   0 1719.30 189.231   1
  13   4   0 1541.09 241.815   4
  17  -4   0 1528.16 216.408   4
   4 -17   0 1487.84 178.477   1
  13   4   0 1460.93 151.069   3
  17  -4   0 1839.83 130.596   3
  13   4   0 1630.30 213.139   2
  -4 -13   0 1692.22 185.890   2
  17  -4   0 1621.53 197.164   2
 -13  17   0 1712.79 223.157   1
 -13  17   0 1447.48 157.626   3
  -4 -13   3 486.609 148.487   3
  17  -4   3 491.906 70.4962   3
   4 -17   3 401.176 144.044   3
   4 -17   3 378.073 107.051   1
  13   4   3 478.354 119.086   3
 -13  17   3 476.255 164.757   1
  17  -4   3 559.552 154.784   4
 -13  17   3 441.715 114.637   2
  13   4   3 666.518 174.396   1
  13   4   3 533.775 154.084   4
  17  -4   3 347.896 144.155   2
 -17  13   3 378.202 157.501   1
  13   4   3 513.750 134.946   2
   4 -17   6 155.404 53.8006   1
 -17  13   6 413.299 165.620   1
 -13  17   6 650.389 197.675   1
  17  -4   6 147.890 102.405   3
  17  -4   6 221.117 122.683   4
 -13  17   6 184.635 102.952   2
  13   4   6 274.920 172.799   1
  17  -4   6 107.990 139.821   2
  13   4   6 376.343 128.645   2
  13   4   6 390.361 113.130   4
  17  -4   6 227.816 100.704   3
 -17  13   6 259.257 151.287   3
  -4 -13   6 557.902 182.692   3
   4 -17   6 118.898 146.310   3
 -13  17   9 26.5612 182.293   1
  17  -4   9 412.641 208.350   1
  17  -4   9 189.166 147.367   2
  13   4   9 172.935 106.497   2
  13   4   9 431.366 232.369   1
  17  -4   9 187.732 138.075   3
 -17  13   9 332.071 207.888   3
 -17  13   9 252.067 167.939   1
  -4 -13   9 249.148 187.443   3
   4 -17   9 3.75989 175.997   3
  17  -3 -10 167.150 192.387   4
  17  -3  -7 174.500 211.830   2
   3 -17  -7 30.3428 84.2800   4
  17  -3  -7 69.4411 113.302   1
   3 -17  -7 102.452 68.5100   4
  -3 -14  -7-9.92645 39.7049   4
  17  -3  -7-125.902 185.297   4
  14   3  -7-18.7110 192.704   4
  -3 -14  -7 55.1146 39.4329   4
  14   3  -7 9.72437 41.3163   1
  17  -3  -4-146.288 168.440   2
  14   3  -4-15.9105 166.188   2
  17  -3  -4 156.444 180.107   4
   3 -17  -4-40.3963 108.173   4
  14   3  -4 46.1232 80.0128   1
  -3 -14  -4 158.553 117.384   4
  14   3  -4 170.780 178.189   4
  17  -3  -4 28.9553 105.732   1
 -14  17  -4 93.5862 83.3668   3
  14   3  -1 1306.53 235.460   4
  14   3  -1 1310.02 226.021   2
  -3 -14  -1 1201.86 197.583   3
 -14  17  -1 1394.43 200.408   1
   3 -17  -1 997.276 181.927   3
  17  -3  -1 1228.93 216.926   4
  17  -3  -1 1015.42 129.742   3
  -3 -14  -1 1052.74 139.205   2
  14   3  -1 1036.95 145.396   3
 -17  14  -1 864.174 64.7693   3
 -14  17  -1 984.573 125.718   3
  17  -3  -1 1155.33 197.500   2
  14   3   2 89.5574 87.5641   3
  -3 -14   2-12.4404 123.437   3
   3 -17   2 85.9754 116.775   3
  14   3   2 348.685 156.906   4
 -14  17   2 9.26189 104.927   3
  -3 -14   2 117.867 87.7872   1
  17  -3   2-32.5745 131.725   4
 -14  17   2 209.646 104.224   2
 -17  14   2 176.501 154.764   1
  17  -3   2 161.107 137.710   2
 -14  17   2-12.7697 138.896   1
  14   3   2 96.8118 125.083   2
  17  -3   2 97.7646 63.4389   3
   3 -17   2 368.680 105.769   1
   3 -17   5-118.071 145.258   3
 -17  14   5 60.4436 140.873   1
 -14  17   5 251.829 160.904   1
  17  -3   5 19.0950 82.1123   3
 -14  17   5 40.3978 96.1524   2
  17  -3   5-4.54351 118.350   4
  14   3   5 63.1691 121.976   4
  17  -3   5 26.2800 117.190   2
  14   3   5 25.9226 106.087   2
  14   3   5 75.2390 159.744   1
 -17  14   5 90.0937 138.854   3
   3 -17   5 84.9969 66.1214   1
  -3 -14   5 12.0187 134.438   3
  17  -3   8 61.2691 131.761   3
 -14  17   8 49.0740 179.884   1
   3 -17   8 393.544 192.120   3
  17  -3   8-385.215 204.815   1
  17  -3   8-174.705 119.267   4
  17  -3   8-177.355 147.860   2
  14   3   8 48.7191 194.700   1
  14   3   8 99.4060 104.769   2
 -17  14   8 306.410 200.348   3
 -17  14   8-5.61779 178.591   1
  -3 -14   8-5.11851 176.061   3
  15   2  -8 449.232 213.304   4
  17  -2  -8 683.077 235.815   4
   2 -17  -5 2937.32 223.451   4
  17  -2  -5 2542.66 216.363   1
  17  -2  -5 2872.13 317.818   4
  -2 -15  -5 2489.64 213.517   4
  15   2  -5 3367.85 349.381   4
 -15  17  -5 2564.84 196.743   3
  15   2  -5 2464.10 176.623   1
  17  -2  -5 2893.05 342.055   2
  15   2  -5 2672.35 349.885   2
 -15  17  -2 1780.42 230.791   1
  -2 -15  -2 1747.40 234.165   3
   2 -17  -2 1611.25 231.876   3
  17  -2  -2 1865.47 204.220   1
   2 -17  -2 1810.87 127.824   2
  17  -2  -2 1799.62 252.334   4
  -2 -15  -2 1892.06 223.412   4
  15   2  -2 1532.86 247.005   4
  -2 -15  -2 1891.06 143.131   2
  17  -2  -2 1382.92 162.671   3
  15   2  -2 1737.28 198.418   3
 -17  15  -2 1394.74 81.9789   3
  17  -2  -2 1743.96 241.699   2
  15   2  -2 1605.37 249.988   2
 -15  17  -2 1759.33 137.583   3
   2 -17  -2 1832.50 143.392   2
 -15  17   1 3989.24 233.583   3
 -17  15   1 3989.10 218.407   3
 -17  15   1 3638.76 300.052   1
 -15  17   1 3809.47 262.482   2
  -2 -15   1 4281.08 253.878   1
   2 -17   1 4022.22 255.433   1
  17  -2   1 3982.65 320.749   4
  15   2   1 4365.12 333.205   4
  17  -2   1 3847.02 294.577   2
  15   2   1 3820.53 286.308   2
  17  -2   1 4019.53 182.448   3
  15   2   1 4182.39 224.246   3
 -15  17   1 4175.46 313.156   1
  -2 -15   1 4067.32 296.208   3
  -2 -15   1 3897.18 295.725   2
   2 -17   1 4153.99 292.909   3
 -15  17   4 819.479 145.370   2
  -2 -15   4 856.164 181.765   3
   2 -17   4 984.707 180.960   3
  15   2   4 1135.37 186.898   4
 -17  15   4 858.638 197.109   1
  15   2   4 617.284 126.726   3
  15   2   4 503.543 170.437   1
   2 -17   4 811.627 109.393   1
  17  -2   4 1221.41 192.889   4
 -15  17   4 649.472 194.831   1
  17  -2   4 1072.36 184.136   2
  15   2   4 855.660 155.531   2
  17  -2   4 1058.72 124.627   3
  15   2   7 2143.63 213.220   2
   2 -17   7 1907.30 266.680   3
  17  -2   7 2148.74 293.763   1
  17  -2   7 2270.92 249.013   2
 -15  17   7 2296.17 291.024   1
  17  -2   7 2067.94 207.881   4
  15   2   7 2202.60 184.339   4
 -17  15   7 2222.84 291.194   1
  15   2   7 2591.35 321.207   1
 -17  15   7 1952.92 275.625   3
  -2 -15   7 1600.65 260.123   3
 -15  17  10 575.401 248.106   1
  17  -2  10 216.077 136.853   2
 -17  15  10 285.626 219.233   1
  17  -2  10 849.393 251.943   1
  15   2  10 91.9789 131.334   2
  15   2  10 202.890 202.343   1
  15   2  10 253.785 147.867   3
 -15  17  10-126.977 232.956   3
  17  -2  10 348.273 171.353   3
 -17  15  10 124.974 232.585   3
  -2 -15  10-41.0153 203.850   3
   2 -17  10 622.735 245.719   3
  17  -1  -9 137.064 207.172   4
  17  -1  -6 469.594 256.476   2
  16   1  -6 202.799 232.035   2
  17  -1  -6-41.7384 209.654   4
  -1 -16  -6-30.4846 89.6685   4
   1 -17  -6-34.4854 92.6232   4
  -1 -16  -6 66.4401 108.468   4
  16   1  -6 5.22639 175.084   4
   1 -17  -6 256.837 122.969   4
 -16  17  -6-51.0324 104.113   3
  16   1  -6 103.306 90.5353   1
  17  -1  -6 104.543 107.640   1
  17  -1  -3 556.281 205.420   2
  16   1  -3 575.298 202.226   2
  17  -1  -3 657.202 207.742   4
  16   1  -3 843.623 152.179   1
   1 -17  -3 543.590 49.5253   2
  -1 -16  -3 584.715 64.8229   2
  16   1  -3 327.554 215.576   4
   1 -17  -3 500.632 53.8991   2
  -1 -16  -3 672.906 162.316   4
  17  -1  -3 593.538 138.561   1
 -17  16  -3 682.269 76.8380   3
 -16  17  -3 640.772 97.5858   3
 -16  17   0 270.199 88.8101   3
 -17  16   0 101.870 74.9904   3
  -1 -16   0 156.580 107.099   2
  -1 -16   0 170.588 140.831   3
   1 -17   0 274.634 138.181   3
 -17  16   0 40.1018 149.147   1
   1 -17   0 63.2682 116.598   2
  -1 -16   0-58.9363 111.563   1
  17  -1   0 205.437 160.273   4
  16   1   0 314.686 156.970   4
   1 -17   0 70.4486 110.384   1
 -16  17   0-55.3800 162.519   1
  17  -1   0 79.7020 75.8434   3
  16   1   0 86.7054 90.0080   3
  17  -1   0 275.760 155.131   2
  16   1   0 282.478 174.502   2
  17  -1   3 318.708 91.0040   3
  -1 -16   3 327.565 150.034   3
  16   1   3 201.814 92.6812   3
   1 -17   3 472.880 158.377   3
  -1 -16   3 220.156 85.6292   1
 -17  16   3 237.046 164.974   1
 -16  17   3 273.585 119.877   2
  16   1   3 238.852 146.165   4
  17  -1   3 213.476 136.740   4
   1 -17   3 147.976 92.0264   1
  17  -1   3 336.174 152.369   2
  16   1   3-103.875 135.531   2
 -16  17   3 117.878 148.641   1
  17  -1   6 31.6074 108.654   3
  17  -1   6 91.9549 177.413   1
  16   1   6 169.961 167.523   1
  16   1   6 151.399 114.577   4
 -16  17   6 186.128 169.852   1
  17  -1   6 162.277 119.551   4
  17  -1   6-5.35399 126.567   2
  16   1   6 200.678 131.838   2
 -17  16   6 12.1273 150.448   1
  -1 -16   6 41.3105 152.199   3
   1 -17   6-11.2857 143.504   3
   1 -17   9-60.2943 175.679   3
  16   1   9-45.6218 195.896   1
  17  -1   9 122.423 188.744   1
  17  -1   9-28.9032 123.705   2
  16   1   9 176.090 123.118   2
 -16  17   9 220.313 187.249   1
 -17  16   9 243.620 190.434   1
 -16  17   9 90.2689 193.001   3
  17  -1   9 253.696 155.444   3
 -17  16   9 180.433 213.521   3
  -1 -16   9 350.511 226.969   3
   0 -17  -7-36.1688 68.2902   4
  17   0  -7 204.088 246.380   2
  17   0  -7 112.989 220.098   4
  17   0  -4 568.705 139.374   1
  17   0  -4 586.726 205.354   2
  17   0  -4 499.077 203.718   4
 -17  17  -4 459.534 94.6042   3
   0 -17  -1 96.1349 98.1525   2
   0 -17  -1 118.821 150.106   3
 -17  17  -1 340.523 173.898   1
 -17  17  -1-63.3235 65.9345   3
  17   0  -1-33.6201 163.979   4
  17   0  -1 102.727 100.644   3
  17   0  -1 64.2134 166.037   2
   0 -17   2 999.413 192.531   3
 -17  17   2 600.370 139.664   3
 -17  17   2 684.476 183.393   1
  17   0   2 683.294 174.204   4
   0 -17   2 746.264 131.344   1
  17   0   2 632.076 156.063   2
  17   0   2 798.243 112.137   3
   0 -17   5 58.1292 142.926   3
  17   0   5-70.0071 105.121   3
  17   0   5 186.962 184.831   1
  17   0   5-167.027 120.672   4
  17   0   5 72.7297 137.417   2
 -17  17   5-352.607 184.220   1
  17   0   8 439.725 218.502   1
  17   0   8 226.368 103.690   4
 -17  17   8 407.877 195.905   1
  17   0   8 266.446 134.631   2
 -17  17   8 113.718 186.080   3
   0 -17   8 451.320 204.857   3
  18 -18  -9-174.921 177.890   4
  18 -18  -6 168.314 157.444   2
  18 -18  -6 163.210 155.925   4
   0  18  -3-91.5310 90.8997   1
  18 -18  -3-112.206 118.830   2
  18 -18   0 411.527 139.220   2
 -18   0   0 480.515 116.384   3
   0  18   0 430.388 145.592   1
  18 -18   0 439.105 176.424   4
  18 -18   3 102.740 80.1223   3
   0  18   3-53.4478 154.069   1
  18 -18   3 59.0543 148.477   4
  18 -18   3 241.631 177.954   2
 -18   0   3-42.1419 124.619   3
   0  18   6 384.023 210.527   1
  18 -18   6 635.746 214.688   2
 -18   0   6 982.016 219.954   3
  18 -18   6 862.517 146.364   3
  18 -18   6 642.351 203.857   4
   0  18   9 251.578 220.671   1
  18 -18   9 173.884 201.161   2
  18 -18   9-90.3324 168.434   4
 -18   0   9 99.8653 187.606   3
  18 -18   9 211.212 134.561   3
  17 -18  -7 3926.50 332.103   4
  18 -17  -7 3772.09 329.460   4
  18 -17  -7 4068.70 349.766   2
  17 -18  -7 3952.34 333.631   2
   1  17  -4 1285.36 123.315   1
  18 -17  -4 1217.63 195.381   2
  17 -18  -4 1232.57 216.337   4
  18 -17  -4 937.963 208.026   4
  -1  18  -4 1260.21 137.644   1
  17 -18  -4 1283.58 192.629   2
 -17  -1  -1 1892.82 181.574   3
 -18   1  -1 2071.60 172.575   3
  17 -18  -1 2040.25 213.206   2
  17 -18  -1 1897.94 236.018   4
  18 -17  -1 1573.60 197.746   2
  18 -17  -1 2167.16 256.390   4
   1  17  -1 1857.04 193.887   1
  -1  18  -1 1864.82 189.039   1
 -18   1   2 2614.37 200.163   3
  17 -18   2 2778.59 175.914   3
  17 -18   2 2130.08 262.042   4
  17 -18   2 3220.01 275.015   2
  18 -17   2 2163.99 240.651   2
   1  17   2 2404.58 268.348   1
  -1  18   2 2386.67 253.207   1
 -17  -1   2 2982.89 225.932   3
  18 -17   2 2809.14 291.112   4
  18 -17   5 2139.33 267.906   2
  17 -18   5 2898.43 294.836   4
  18 -17   5 2681.48 294.682   4
  17 -18   5 2459.10 274.845   2
   1  17   5 1925.01 258.947   1
  -1  18   5 2173.60 276.376   1
 -18   1   5 2459.20 268.240   3
 -17  -1   5 2490.99 253.881   3
  18 -17   5 2335.45 162.179   3
  17 -18   5 2256.06 179.759   3
  18 -17   8 427.680 212.952   2
  18 -17   8 866.671 206.329   4
   1  17   8 293.336 197.708   1
  -1  18   8 579.372 224.686   1
  17 -18   8 759.806 231.336   2
  17 -18   8 383.384 189.634   4
 -17  -1   8 863.284 240.710   3
 -18   1   8 517.889 199.140   3
  18 -17   8 321.849 127.293   3
  17 -18   8 180.696 131.362   3
  18 -16  -8 945.108 227.010   2
  16 -18  -8 538.638 179.799   2
  16 -18  -8 607.971 180.096   4
  18 -16  -8 936.694 211.659   4
 -16  -2  -5 297.863 118.167   4
  16 -18  -5 400.997 157.902   4
  18 -16  -5-20.6647 156.309   4
  16 -18  -5 492.566 156.666   2
  18 -16  -5 446.366 175.628   2
 -16  -2  -2 628.507 136.938   3
 -18   2  -2 646.833 104.614   3
  16 -18  -2 551.010 170.116   4
  18 -16  -2 767.283 194.497   4
   2  16  -2 592.444 115.519   1
  16 -18  -2 539.407 139.254   2
  18 -16  -2 683.941 162.697   2
  -2  18  -2 564.402 122.240   1
 -18   2   1 529.614 116.222   3
 -16  -2   1 722.287 129.430   3
   2  16   1 514.427 145.907   1
  -2  18   1 287.224 135.195   1
  16 -18   1 576.575 182.938   4
  18 -16   1 573.689 172.032   4
  16 -18   1 631.694 166.457   2
  18 -16   1 579.398 165.502   2
  18 -16   4 239.565 153.139   4
   2  16   4 179.629 159.310   1
  16 -18   4 327.990 108.107   3
  18 -16   4 66.5682 66.4676   3
  16 -18   4 193.715 163.102   4
  -2  18   4 349.078 175.983   1
  18 -16   4 312.233 178.579   2
 -18   2   4-70.9827 115.762   3
 -16  -2   4 243.385 133.943   3
  16 -18   4 210.611 148.731   2
   2  16   7 131.428 180.777   1
  16 -18   7 149.725 157.733   4
  18 -16   7 341.003 171.695   4
  16 -18   7 504.595 196.883   2
  18 -16   7 723.438 217.972   2
  -2  18   7-81.6200 185.920   1
 -18   2   7 555.037 203.617   3
 -16  -2   7 136.034 172.762   3
  18 -16   7 270.088 107.223   3
  16 -18   7 329.638 124.273   3
  15 -18  -9 228.923 158.761   4
  18 -15  -9 198.760 170.010   4
  18 -15  -6 228.747 172.348   2
  15 -18  -6 33.5092 132.338   2
 -18   3  -6-23.0963 110.309   4
 -15  -3  -6-69.3913 101.592   4
  15 -18  -6 116.530 132.979   4
  18 -15  -6-159.221 151.870   4
  15 -18  -3 1592.81 218.725   4
 -15  -3  -3 1414.30 175.746   2
  18 -15  -3 1682.93 236.150   4
 -15  -3  -3 1483.00 195.481   4
  15 -18  -3 1773.57 196.280   2
  -3  18  -3 1582.25 158.093   1
  18 -15  -3 1636.97 215.705   2
   3  15  -3 1625.03 138.228   1
 -15  -3   0 989.236 147.700   3
  15 -18   0 929.333 199.521   4
  18 -15   0 1058.52 200.751   4
  15 -18   0 863.903 159.227   2
  -3  18   0 959.891 168.395   1
   3  15   0 1110.32 172.792   1
  18 -15   0 838.256 171.713   2
 -18   3   0 1150.89 120.620   3
   3  15   3 1284.24 210.898   1
  18 -15   3 721.693 60.7628   3
  18 -15   3 944.563 192.720   4
  15 -18   3 766.390 168.569   2
  18 -15   3 809.627 184.142   2
  15 -18   3 1186.65 224.000   4
 -18   3   3 960.345 149.788   3
 -15  -3   3 1026.23 166.519   3
  -3  18   3 1231.85 211.615   1
  15 -18   3 962.238 137.220   3
  15 -18   6 663.156 139.957   3
   3  15   6 637.337 204.770   1
  15 -18   6 796.958 203.352   2
  15 -18   6 755.549 196.120   4
  18 -15   6 1093.20 225.386   2
  18 -15   6 824.314 192.707   4
  -3  18   6 826.888 212.825   1
  18 -15   6 811.020 119.527   3
 -18   3   6 661.165 171.960   3
 -15  -3   6 959.951 207.421   3
   3  15   9 460.957 245.151   1
  18 -15   9 135.216 106.734   3
  15 -18   9 265.038 180.601   4
  15 -18   9 195.826 207.635   2
  -3  18   9-59.1799 218.980   1
  18 -15   9 398.499 237.531   2
  18 -15   9 159.193 173.453   4
 -18   3   9 408.851 204.051   3
 -15  -3   9 392.197 208.986   3
  15 -18   9 284.990 156.579   3
  18 -14 -10 524.522 193.669   4
 -14  -4  -7 1843.86 149.500   4
  14 -18  -7 2045.69 234.740   4
  18 -14  -7 1632.21 246.102   4
  18 -14  -7 2424.92 296.409   2
  14 -18  -7 1844.20 206.501   2
  -4  18  -4 2885.46 199.886   1
   4  14  -4 3023.82 138.585   1
  14 -18  -4 3302.38 268.902   4
 -14  -4  -4 2685.63 229.080   4
  18 -14  -4 3324.44 320.970   4
  14 -18  -4 3318.92 241.147   2
  18 -14  -4 3156.09 294.882   2
 -14  -4  -4 2995.61 226.062   2
 -14  -4  -1 6045.92 301.800   3
 -18   4  -1 5951.47 207.102   3
  -4  18  -1 5044.87 285.626   1
  14 -18  -1 5367.58 351.146   4
  18 -14  -1 6354.52 379.652   4
  18 -14  -1 4949.91 320.028   2
 -14  -4  -1 5079.88 301.167   2
  14 -18  -1 5849.47 296.305   2
   4  14  -1 5963.81 287.450   1
  14 -18   2 1602.66 166.207   3
  14 -18   2 1964.95 262.648   4
  18 -14   2 2011.00 233.528   4
  14 -18   2 1703.54 214.189   2
  18 -14   2 1739.47 224.306   2
 -18   4   2 1658.62 155.954   3
  -4  18   2 1732.80 228.735   1
 -14  -4   2 1817.55 191.430   3
   4  14   2 1356.36 191.757   1
   4  14   5 5286.12 388.427   1
 -18   4   5 5242.77 345.658   3
  14 -18   5 5405.83 383.045   4
  18 -14   5 4847.89 370.178   2
  18 -14   5 4759.13 333.645   4
  -4  18   5 5319.49 377.415   1
 -14  -4   5 4444.44 328.172   3
  18 -14   5 4739.21 189.101   3
  14 -18   5 5049.85 283.061   3
   4  14   8 364.114 208.556   1
  14 -18   8 708.850 228.164   2
  14 -18   8 931.522 219.759   4
  18 -14   8 1059.81 212.703   4
  -4  18   8 1144.55 257.487   1
  18 -14   8 706.414 200.345   2
 -18   4   8 545.643 206.171   3
 -14  -4   8 990.116 243.574   3
  18 -14   8 817.323 138.494   3
  14 -18   8 1177.02 204.284   3
  18 -13  -8 612.586 217.457   2
  18 -13  -8 845.282 209.258   4
  13 -18  -8 745.075 166.726   4
  13 -18  -5-23.4846 107.117   2
 -13  -5  -5 84.3054 103.098   4
  18 -13  -5-178.168 175.745   2
 -13  -5  -5 234.207 113.355   2
  13 -18  -5 167.842 136.381   4
  18 -13  -5-10.1819 160.861   4
   5  13  -2 610.671 111.254   1
 -13  -5  -2 426.820 135.852   3
  -5  18  -2 669.786 138.304   1
 -13  -5  -2 723.717 138.261   2
 -13  -5  -2 556.989 154.545   4
  13 -18  -2 447.088 112.078   2
  13 -18  -2 779.370 180.370   4
  18 -13  -2 693.164 169.035   2
  18 -13  -2 752.245 181.173   4
  -5  18   1 3838.64 284.059   1
  13 -18   1 3732.75 239.328   3
  18 -13   1 3708.27 304.198   4
  13 -18   1 3617.07 317.675   4
  13 -18   1 3687.49 267.594   2
  18 -13   1 4016.91 290.387   2
   5  13   1 3992.55 269.248   1
 -18   5   1 3930.81 191.781   3
 -13  -5   1 3422.84 238.327   3
  13 -18   4 539.939 127.987   3
  13 -18   4 750.638 201.739   4
  13 -18   4 619.745 177.416   2
  18 -13   4 914.297 194.269   2
  18 -13   4 626.140 162.415   4
  -5  18   4 565.111 172.349   1
 -18   5   4 803.399 154.974   3
   5  13   4 689.046 180.528   1
  18 -13   4 404.400 47.7721   3
 -13  -5   4 379.960 142.593   3
  18 -13   7 1090.68 205.167   4
  -5  18   7 1040.36 237.867   1
  13 -18   7 763.390 213.827   4
  18 -13   7 923.562 219.974   2
  13 -18   7 1562.55 269.201   2
  18 -13   7 1036.84 137.850   3
 -18   5   7 462.762 176.256   3
  13 -18   7 1218.18 191.964   3
 -13  -5   7 1068.26 232.856   3
   5  13   7 929.870 238.569   1
   5  13  10 487.603 228.515   1
  13 -18  10 40.9699 174.085   4
  18 -13  10 710.826 229.622   2
  18 -13  10 481.440 193.818   1
  -5  18  10 25.6860 207.357   1
  13 -18  10 221.196 229.800   2
 -18   5  10 713.921 258.918   3
  18 -13  10 193.587 132.909   3
 -13  -5  10 414.527 239.464   3
  13 -18  10 275.741 171.518   3
  12 -18  -9 535.763 133.605   4
  18 -12  -9 886.307 222.403   4
  18 -12  -6 395.134 216.483   2
  12 -18  -6 183.768 108.128   2
 -18   6  -6 384.118 141.620   4
 -12  -6  -6 538.783 113.667   4
  12 -18  -6 217.791 123.964   4
  18 -12  -6 515.401 204.756   4
  12 -18  -3 1199.88 190.394   4
 -12  -6  -3 1190.01 151.291   2
  18 -12  -3 1321.03 221.088   4
 -12  -6  -3 1136.14 171.223   4
   6  12  -3 1124.26 114.003   1
  12 -18  -3 1127.58 141.479   2
  -6  18  -3 1226.04 163.861   1
  18 -12  -3 765.060 181.712   2
  -6  18   0 297.349 143.776   1
 -18   6   0 458.742 75.4696   3
 -12  -6   0 460.320 124.248   3
  12 -18   0 413.336 139.120   3
  12 -18   0 581.564 133.494   2
  12 -18   0 546.458 171.261   4
  18 -12   0 354.049 150.895   2
 -12  -6   0 441.047 127.831   2
   6  12   0 311.536 117.730   1
  18 -12   0 441.757 170.499   4
   6  12   3 3082.33 185.323   2
  12 -18   3 3569.45 311.165   4
  12 -18   3 2909.95 251.673   2
  18 -12   3 3173.45 272.602   4
  18 -12   3 3174.20 281.337   2
  12 -18   3 3069.88 246.455   1
   6  12   3 3189.86 277.303   1
 -18   6   3 3256.57 223.217   3
 -12  -6   3 3058.38 256.776   3
  -6  18   3 3296.57 294.030   1
  12 -18   3 3201.15 226.395   3
  12 -18   6 104.283 119.075   3
 -18   6   6 9.19239 149.349   1
  12 -18   6 44.7816 116.663   1
  12 -18   6 257.478 171.276   4
  12 -18   6 219.746 168.971   2
  18 -12   6 41.9238 137.082   4
  18 -12   6 155.108 167.183   2
  -6  18   6 34.4812 157.528   1
 -18   6   6 204.992 156.415   3
   6  12   6-25.4678 184.499   1
  18 -12   6 80.1661 74.4152   3
 -12  -6   6 97.0471 156.729   3
   6  12   9 188.726 198.271   1
 -18   6   9 311.736 152.834   1
  12 -18   9 39.0693 118.611   1
  12 -18   9-104.290 169.002   4
  12 -18   9 272.485 211.015   2
  18 -12   9-24.3284 140.280   4
  18 -12   9 163.626 174.970   2
  -6  18   9-29.8790 195.743   1
  18 -12   9-246.590 182.158   1
 -18   6   9 248.509 205.382   3
  18 -12   9 32.4011 117.969   3
 -12  -6   9 209.678 195.615   3
  12 -18   9 87.7309 154.357   3
  18 -11 -10 540.144 195.441   4
  18 -11  -7 1014.59 231.380   2
 -11  -7  -7 762.418 82.3603   4
  18 -11  -7 983.620 224.469   4
  11 -18  -7 1027.30 175.464   4
  11 -18  -4 2381.95 228.500   4
 -11  -7  -4 2389.65 175.297   2
  18 -11  -4 2353.92 270.706   4
  -7  18  -4 2519.52 212.903   1
 -11  -7  -4 2262.38 204.962   4
  11 -18  -4 2664.48 183.284   2
  18 -11  -4 2226.36 261.405   2
   7  11  -4 2025.45 107.203   1
 -11  -7  -1 5129.30 303.155   3
   7  11  -1 5702.48 282.247   1
  18 -11  -1 5177.41 348.378   4
  11 -18  -1 4946.80 330.517   4
  11 -18  -1 5220.53 263.433   2
  -7  18  -1 4933.34 286.911   1
 -11  -7  -1 4341.76 262.279   2
  18 -11  -1 5353.32 340.022   2
  -7  18   2 2374.92 242.178   1
   7  11   2 2622.42 198.530   2
  11 -18   2 2719.11 234.760   1
  11 -18   2 2659.58 275.720   4
  18 -11   2 2585.55 254.022   4
   7  11   2 2572.34 248.099   1
  18 -11   2 2646.83 252.191   2
  11 -18   2 2693.51 247.527   2
 -18   7   2 2868.07 185.062   3
 -11  -7   2 2867.20 236.107   3
  11 -18   2 2461.86 207.141   3
  18 -11   5 7358.23 393.789   4
  11 -18   5 6518.49 404.713   4
  11 -18   5 5717.24 381.098   2
  11 -18   5 5448.38 306.300   1
  18 -11   5 6608.61 399.621   2
 -18   7   5 6170.14 366.305   1
 -18   7   5 6331.40 362.272   3
  18 -11   5 6178.00 194.383   3
   7  11   5 6688.58 421.880   1
   7  11   5 5270.37 185.049   2
 -11  -7   5 6131.57 378.487   3
  11 -18   5 6659.55 339.232   3
  -7  18   5 6307.19 408.858   1
  11 -18   8 922.064 240.950   2
  11 -18   8 662.822 204.960   4
  18 -11   8 521.787 166.215   4
  18 -11   8 812.684 200.780   2
  -7  18   8 1128.47 255.284   1
 -18   7   8 871.308 195.123   1
 -18   7   8 619.389 221.095   3
  18 -11   8 640.583 138.881   3
 -11  -7   8 343.331 196.272   3
   7  11   8 1113.54 268.202   1
  11 -18   8 547.037 173.869   3
  18 -10  -8 385.746 228.919   2
  18 -10  -8 507.686 201.764   4
  10 -18  -8 396.762 125.063   4
  18 -10  -5 1575.26 243.838   4
 -10  -8  -5 1544.70 135.509   2
  10 -18  -5 1491.98 188.282   4
 -10  -8  -5 1713.77 169.361   4
  18 -10  -5 1935.59 274.126   2
  10 -18  -5 1519.77 135.273   2
  10 -18  -2 391.742 147.974   4
  10 -18  -2 497.109 100.997   2
 -10  -8  -2 202.035 142.387   3
 -10  -8  -2 502.551 162.392   4
  18 -10  -2 692.067 190.787   4
 -10  -8  -2 297.094 105.401   2
   8  10  -2 363.327 103.537   1
  18 -10  -2 351.350 155.694   2
  -8  18  -2 241.145 112.140   1
  -8  18  -2 134.862 102.839   3
  10 -18   1 2981.39 237.422   3
  -8  18   1 3102.14 262.231   1
  10 -18   1 3115.76 275.855   4
  10 -18   1 3466.06 242.020   2
  18 -10   1 3415.39 293.264   4
  18 -10   1 3463.96 276.665   2
 -18   8   1 2947.57 149.408   3
   8  10   1 2939.75 244.233   1
   8  10   1 2723.09 227.805   2
 -10  -8   1 2832.55 242.196   3
  10 -18   1 3066.47 242.171   1
  -8  18   4 2457.74 267.972   1
  10 -18   4 1979.89 190.590   1
  10 -18   4 2233.94 258.651   2
  18 -10   4 2413.72 236.709   4
   8  10   4 2363.18 272.130   1
  18 -10   4 2334.84 257.085   2
 -18   8   4 1857.16 228.312   1
 -18   8   4 2286.67 220.554   3
   8  10   4 2177.38 157.354   2
 -10  -8   4 2308.00 229.646   3
  10 -18   4 2075.37 259.625   4
  10 -18   4 2516.22 221.247   3
 -18   8   7 1310.56 215.565   1
  10 -18   7 864.364 150.114   1
  10 -18   7 1115.09 238.556   4
  18 -10   7 1101.54 187.576   4
  18 -10   7 1115.89 209.829   2
   8  10   7 715.182 86.7218   2
  18 -10   7 1097.42 144.416   3
 -18   8   7 784.795 205.395   3
   8  10   7 971.625 227.357   1
 -10  -8   7 898.619 209.213   3
  -8  18   7 829.888 207.473   1
  10 -18   7 850.076 183.337   3
 -18   8  10 345.765 180.216   1
  10 -18  10 406.232 214.615   4
  10 -18  10 183.372 220.595   2
  18 -10  10 245.278 186.398   2
  18 -10  10 378.777 186.213   1
  -8  18  10 273.602 200.200   1
 -18   8  10 171.724 209.059   3
  18 -10  10 349.431 154.141   3
 -10  -8  10 36.2420 192.528   3
  10 -18  10 254.065 187.113   3
   8  10  10 309.661 207.334   1
  18  -9  -9 286.057 182.955   4
  18  -9  -6 142.684 186.018   2
  -9  -9  -6 74.4572 75.7708   4
  18  -9  -6 119.310 175.070   4
   9 -18  -6 107.347 101.071   4
  -9  -9  -3 736.941 159.743   4
  -9  -9  -3 835.744 115.494   2
  -9  -9  -3 994.669 186.007   3
   9 -18  -3 770.659 166.048   4
   9   9  -3 1036.19 114.215   1
  18  -9  -3 796.756 198.048   4
   9 -18  -3 682.533 97.1631   2
  -9  18  -3 1035.19 166.742   1
  -9  18  -3 922.678 148.496   3
  18  -9  -3 917.661 203.715   2
  -9  18   0 306.924 122.289   3
   9   9   0 80.1261 108.318   1
  -9  -9   0 217.504 115.446   3
   9   9   0-42.2884 133.983   2
   9 -18   0 138.673 137.203   3
   9 -18   0-71.8495 143.213   4
  -9  18   0 1.80029 127.141   1
   9 -18   0 215.899 105.025   2
  18  -9   0 221.392 166.028   4
  18  -9   0 78.6567 130.401   2
  -9  -9   0-117.063 125.796   2
 -18   9   0 66.6275 36.9312   3
  -9  -9   3 694.611 146.588   3
   9 -18   3 953.947 159.003   3
   9 -18   3 800.925 168.763   2
  18  -9   3 1186.15 191.600   4
  18  -9   3 1230.03 186.745   2
   9   9   3 1133.69 193.471   1
 -18   9   3 1399.81 219.694   1
   9 -18   3 706.450 181.735   4
 -18   9   3 899.336 144.393   3
   9 -18   3 790.082 142.058   1
   9   9   3 1107.56 151.157   2
  -9  18   3 796.225 178.622   1
 -18   9   6 299.517 158.465   1
  18  -9   6 198.952 130.770   4
   9 -18   6 322.664 184.792   4
  -9  18   6 71.1438 40.7267   2
  18  -9   6 43.1835 148.621   2
  -9  18   6-50.0328 159.519   1
   9   9   6 24.2524 158.903   1
 -18   9   6-177.402 147.755   3
  18  -9   6 31.4507 73.9864   3
   9   9   6 121.469 80.0229   2
  -9  -9   6 294.494 164.937   3
   9 -18   6 46.5421 95.2563   1
   9 -18   6 35.9466 137.651   3
  18  -9   9 791.157 223.088   1
   9 -18   9 1143.82 253.479   4
  18  -9   9 645.286 169.231   4
  18  -9   9 800.696 217.044   2
  -9  18   9 602.171 211.804   1
 -18   9   9 520.465 228.802   3
 -18   9   9 695.273 201.230   1
  18  -9   9 431.633 145.807   3
   9   9   9 957.935 267.825   1
  -9  -9   9 582.992 219.515   3
   9 -18   9 572.700 184.253   3
  18  -8 -10 368.830 226.618   4
  18  -8  -7 1198.49 285.335   2
  18  -8  -7 944.729 231.180   4
   8 -18  -7 914.510 141.475   4
  18  -8  -4 2263.86 265.449   2
   8 -18  -4 2122.92 204.849   4
  10   8  -4 2282.14 134.892   1
  18  -8  -4 1741.19 240.104   4
  -8 -10  -4 1998.76 198.794   4
  10   8  -4 2131.04 135.877   1
   8 -18  -4 1993.69 119.460   2
  -8 -10  -4 1919.08 129.639   2
  -8 -10  -1 2295.03 239.675   3
   8 -18  -1 2108.64 226.998   3
   8 -18  -1 2881.88 269.576   4
  10   8  -1 2568.18 205.353   1
   8 -18  -1 2543.26 181.025   2
  18  -8  -1 2508.70 257.931   4
  -8 -10  -1 2735.10 269.921   4
  18  -8  -1 2712.50 265.245   2
  -8 -10  -1 2695.48 206.643   2
 -10  18  -1 2753.75 230.926   1
 -10  18  -1 2260.89 194.688   3
  10   8  -1 2973.63 284.017   2
  10   8  -1 3092.59 290.087   4
 -18  10   2 337.116 159.606   1
  -8 -10   2 379.616 140.711   3
  10   8   2 488.234 131.740   2
 -10  18   2 672.767 168.102   1
   8 -18   2 465.408 151.031   3
   8 -18   2 556.503 131.322   1
  18  -8   2 407.931 144.617   4
  10   8   2 459.515 162.673   1
  18  -8   2 212.325 123.275   2
 -18  10   2 564.953 116.843   3
  10   8   2 95.1712 128.925   4
   8 -18   2 546.473 150.571   2
   8 -18   5 1202.76 191.808   3
   8 -18   5 1425.71 157.356   1
  18  -8   5 1444.14 210.515   2
  18  -8   5 1321.66 117.903   3
  10   8   5 1649.92 151.222   2
 -18  10   5 1428.06 220.542   1
 -10  18   5 1179.14 103.464   2
  10   8   5 1546.68 243.507   1
  18  -8   5 1744.74 213.309   4
 -18  10   5 1804.00 238.746   3
  18  -8   5 1604.01 115.271   3
 -10  18   5 1349.43 229.474   1
  -8 -10   5 1423.47 224.557   3
  18  -8   8 500.706 156.769   4
  18  -8   8 323.874 177.481   2
  10   8   8-287.207 208.135   1
  18  -8   8 411.256 191.283   1
 -18  10   8 128.632 151.074   1
  10   8   8 198.416 86.5642   2
 -18  10   8 153.348 174.854   3
 -10  18   8 50.9650 215.839   1
  18  -8   8 357.629 121.473   3
  -8 -10   8 71.6113 169.417   3
   8 -18   8 301.414 152.970   3
  18  -7  -8 406.977 228.564   2
   7 -18  -8 869.998 119.411   4
  18  -7  -8 1015.09 236.677   4
   7 -18  -5 6100.53 311.875   4
  11   7  -5 5508.81 168.487   1
  -7 -11  -5 5914.02 279.630   4
  18  -7  -5 6394.61 436.923   4
  18  -7  -5 6395.27 426.964   2
 -11  18  -2 2844.59 240.022   1
  -7 -11  -2 2366.30 252.021   3
   7 -18  -2 3149.78 267.699   4
  11   7  -2 2782.41 195.265   1
   7 -18  -2 2675.83 156.263   2
  18  -7  -2 2498.22 267.625   4
  -7 -11  -2 2229.59 233.754   4
  -7 -11  -2 2586.68 177.898   2
  11   7  -2 2884.77 295.963   4
  18  -7  -2 2405.36 258.230   2
 -11  18  -2 2351.30 185.572   3
  11   7  -2 2620.38 294.297   2
   7 -18   1 5359.94 320.787   3
   7 -18   1 5990.42 305.158   2
  11   7   1 5953.72 332.368   1
 -18  11   1 5076.68 345.466   1
  18  -7   1 4857.22 337.503   4
 -11  18   1 5846.59 350.406   1
  18  -7   1 5985.00 359.631   2
 -18  11   1 5595.67 203.610   3
  11   7   1 5934.80 355.502   4
   7 -18   1 5210.89 288.336   1
  -7 -11   1 5591.81 335.684   2
  11   7   1 5332.13 316.814   2
  11   7   1 5489.03 282.490   3
  -7 -11   1 5804.65 328.811   3
 -11  18   1 5182.16 296.993   3
 -11  18   4 1808.10 241.789   1
 -18  11   4 2016.26 244.063   1
 -11  18   4 2106.38 154.803   2
  11   7   4 2310.49 271.209   1
  18  -7   4 2191.45 239.289   4
  18  -7   4 2267.09 250.796   2
 -18  11   4 2347.35 220.539   3
  11   7   4 2067.06 204.498   4
  11   7   4 2314.09 189.650   2
  18  -7   4 2122.37 102.916   3
  -7 -11   4 2064.68 249.963   3
   7 -18   4 2234.20 178.340   1
   7 -18   4 2004.11 222.155   3
  18  -7   4 1682.42 92.2566   3
 -18  11   7 820.037 202.281   1
 -11  18   7 984.730 110.537   2
  18  -7   7 1000.83 184.260   4
   7 -18   7 696.700 104.210   1
  11   7   7 1187.88 144.736   2
  18  -7   7 964.094 143.076   3
  11   7   7 799.887 233.886   1
 -18  11   7 866.790 227.668   3
  18  -7   7 1115.27 205.671   2
 -11  18   7 608.577 200.785   1
  -7 -11   7 1019.33 229.272   3
   7 -18   7 762.545 182.097   3
   7 -18  10 891.516 249.221   4
 -18  11  10 526.154 211.038   1
  18  -7  10 826.810 207.469   2
  18  -7  10 849.941 230.086   1
 -18  11  10 342.417 241.554   3
  18  -7  10 681.300 180.834   3
  11   7  10 1248.79 316.169   1
  -7 -11  10 827.857 235.623   3
 -11  18  10 749.180 258.576   1
   7 -18  10 662.494 229.952   3
  18  -6  -9 77.5781 207.201   4
  18  -6  -6 149.764 199.226   2
  -6 -12  -6 70.6815 83.1415   4
  18  -6  -6 299.779 169.116   4
   6 -18  -6 10.9106 100.933   4
   6 -18  -3 3419.20 260.490   4
  -6 -12  -3 3544.90 169.247   2
  -6 -12  -3 3354.86 295.077   3
  12   6  -3 3192.26 192.745   1
   6 -18  -3 3386.94 139.713   2
  18  -6  -3 3331.24 312.028   4
  -6 -12  -3 3175.27 255.488   4
 -12  18  -3 3814.80 283.289   1
  12   6  -3 3410.15 345.755   4
  18  -6  -3 3568.26 327.272   2
 -12  18  -3 3280.24 210.682   3
  12   6  -3 3267.97 312.992   2
  12   6   0 549.062 159.334   2
  -6 -12   0 426.302 128.207   2
 -12  18   0 272.107 99.7957   3
  -6 -12   0 226.910 140.272   3
   6 -18   0 450.492 152.138   3
 -18  12   0 358.049 57.1425   3
   6 -18   0 325.110 111.171   2
  12   6   0 426.013 139.892   1
  18  -6   0 422.480 172.315   4
  12   6   0 559.170 196.163   4
  18  -6   0 337.591 70.4399   3
 -18  12   0 363.441 52.3280   3
  18  -6   0 227.240 150.583   2
 -12  18   0 79.1455 124.836   1
  12   6   0 333.542 121.949   3
  -6 -12   3 956.464 175.416   3
   6 -18   3 812.987 170.735   3
  12   6   3 775.003 143.195   3
 -18  12   3 957.580 201.541   1
 -12  18   3 1377.82 214.809   1
 -12  18   3 1038.14 126.281   2
  12   6   3 1421.20 217.169   1
  18  -6   3 999.368 181.348   4
  12   6   3 883.154 166.060   4
  18  -6   3 891.249 177.427   2
  12   6   3 1202.34 168.749   2
 -18  12   3 1343.43 159.405   3
   6 -18   3 1126.59 142.195   1
  18  -6   3 869.611 58.7107   3
  18  -6   6 345.073 108.580   3
   6 -18   6 315.220 88.4512   1
 -18  12   6 368.361 159.953   1
 -12  18   6 224.550 92.8354   2
  18  -6   6 365.699 143.378   4
  18  -6   6 237.055 154.634   2
  12   6   6 221.176 173.161   1
  18  -6   6 336.383 104.375   3
 -18  12   6 515.609 165.540   3
  12   6   6 245.832 96.2929   2
  -6 -12   6 308.211 162.495   3
 -12  18   6 263.842 159.303   1
   6 -18   6 105.747 150.656   3
 -18  12   9 1204.40 237.647   1
  18  -6   9 1079.16 268.314   1
  18  -6   9 1238.62 229.899   2
  12   6   9 871.422 142.857   2
 -18  12   9 906.762 267.298   3
  12   6   9 994.135 263.675   1
  18  -6   9 993.565 185.058   3
  -6 -12   9 794.339 247.909   3
   6 -18   9 988.024 229.026   3
 -12  18   9 1190.44 265.836   1
  18  -5 -10 309.924 213.881   4
  18  -5  -7 946.713 253.501   2
  -5 -13  -7 691.699 66.4567   4
  -5 -13  -7 475.944 61.5313   4
  18  -5  -7 1152.59 248.506   4
   5 -18  -7 656.134 116.824   4
  18  -5  -4 448.590 192.826   2
  -5 -13  -4 529.689 50.7840   2
  13   5  -4 567.572 208.468   2
   5 -18  -4 889.117 160.462   4
  -5 -13  -4 593.730 148.989   4
  18  -5  -4 783.845 211.232   4
  13   5  -4 689.275 216.025   4
  13   5  -4 576.351 105.279   1
 -13  18  -4 614.180 124.602   3
 -13  18  -1 3577.27 283.305   1
  -5 -13  -1 3498.42 278.283   3
   5 -18  -1 3511.78 288.500   3
   5 -18  -1 3874.02 209.362   2
  13   5  -1 4340.90 345.200   4
  18  -5  -1 3864.62 206.225   3
  -5 -13  -1 3999.02 237.155   2
  18  -5  -1 3856.88 307.792   2
  13   5  -1 3330.44 233.156   3
  13   5  -1 3778.94 316.858   2
 -13  18  -1 3181.47 202.712   3
  18  -5  -1 3503.49 312.756   4
  13   5   2 732.363 139.030   3
  -5 -13   2 340.222 138.270   3
   5 -18   2 662.110 164.289   3
   5 -18   2 423.395 112.203   1
 -13  18   2 389.983 140.374   3
  18  -5   2 487.299 160.429   4
 -13  18   2 568.288 127.915   2
 -18  13   2 331.316 163.842   1
  13   5   2 578.164 172.660   1
 -13  18   2 621.799 173.049   1
  13   5   2 605.664 172.820   4
 -18  13   2 474.371 109.389   3
  18  -5   2 534.622 149.639   2
  18  -5   2 439.265 55.1045   3
  13   5   2 342.200 127.242   2
   5 -18   5 90.5919 141.503   3
 -13  18   5 40.3060 160.000   1
   5 -18   5 28.5300 75.6985   1
  18  -5   5-12.7191 67.2551   3
  18  -5   5-13.8465 131.102   4
 -18  13   5 44.8187 158.614   1
 -13  18   5 188.136 92.3593   2
  13   5   5 7.63510 174.367   1
  13   5   5-174.943 116.686   4
 -18  13   5 99.3638 135.233   3
  13   5   5 99.7611 114.663   2
  18  -5   5-140.115 132.506   2
  -5 -13   5-430.426 163.849   3
 -13  18   8 1340.49 262.265   1
 -18  13   8 675.446 206.461   1
  18  -5   8 1020.93 239.472   1
  13   5   8 1034.56 158.375   2
  18  -5   8 1167.73 208.719   2
  13   5   8 970.810 259.046   1
  18  -5   8 1122.47 174.537   3
 -18  13   8 693.002 212.468   3
  -5 -13   8 1132.90 256.236   3
  18  -5   8 878.982 161.318   4
   5 -18   8 985.202 222.291   3
   4 -18  -8 705.515 85.7601   4
  18  -4  -8 569.846 230.559   4
   4 -18  -5 5289.07 285.411   4
  18  -4  -5 4507.56 288.045   1
  18  -4  -5 5422.02 428.997   4
  14   4  -5 5243.97 228.716   1
  -4 -14  -5 5231.61 290.187   4
  14   4  -5 4628.98 410.272   4
 -14  18  -5 4374.65 262.337   3
  18  -4  -5 4927.72 420.974   2
  14   4  -5 5265.12 447.392   2
   4 -18  -2 1624.24 225.825   3
  -4 -14  -2 1378.08 219.557   3
   4 -18  -2 1878.76 129.863   2
 -14  18  -2 1645.30 219.532   1
  18  -4  -2 1990.17 273.100   4
  14   4  -2 2145.79 281.173   4
  -4 -14  -2 1691.28 218.180   4
  -4 -14  -2 1763.87 143.226   2
  18  -4  -2 1947.56 179.579   3
 -14  18  -2 1756.40 155.427   3
  14   4  -2 1944.98 272.324   2
  18  -4  -2 1426.57 223.278   2
   4 -18   1 5288.07 334.193   3
 -14  18   1 6269.00 304.167   3
 -18  14   1 5754.25 237.394   3
 -14  18   1 5814.30 318.522   2
  -4 -14   1 5999.12 290.930   1
 -18  14   1 5904.37 378.056   1
  18  -4   1 6228.52 389.346   4
  14   4   1 6293.57 391.817   4
   4 -18   1 5755.33 300.494   1
  18  -4   1 6199.61 365.196   2
  14   4   1 6508.04 353.891   2
  18  -4   1 6083.11 196.209   3
 -14  18   1 5942.17 368.078   1
  -4 -14   1 5640.88 339.876   2
  14   4   1 5648.27 277.629   3
  -4 -14   1 5795.15 339.031   3
  18  -4   4 3324.26 284.630   2
 -14  18   4 3207.92 221.332   2
  14   4   4 3415.24 310.375   1
  18  -4   4 3121.33 272.895   4
 -14  18   4 2944.68 302.740   1
  14   4   4 2776.72 241.431   4
   4 -18   4 2923.17 188.060   1
  14   4   4 3081.36 239.691   2
 -18  14   4 2899.13 247.767   3
  -4 -14   4 3188.30 273.738   3
   4 -18   4 3067.54 270.627   3
  18  -4   4 2943.01 156.919   3
  14   4   4 2514.65 214.836   3
 -18  14   4 2940.99 284.527   1
 -14  18   7 1792.39 274.938   1
  18  -4   7 1562.39 256.446   1
  18  -4   7 1937.69 247.001   2
  18  -4   7 1681.43 205.394   4
  14   4   7 1881.56 191.971   2
  14   4   7 1552.45 277.482   1
  18  -4   7 1743.18 183.898   3
 -18  14   7 1444.19 245.328   3
 -18  14   7 1925.65 260.170   1
   4 -18   7 1889.29 268.020   3
  -4 -14   7 1419.48 251.054   3
 -18  14  10 450.460 205.977   1
 -14  18  10 749.420 272.206   1
  18  -4  10 301.104 152.425   2
  18  -4  10 751.180 273.207   1
 -14  18  10 607.422 265.565   3
  14   4  10 554.772 243.925   1
 -18  14  10 750.044 285.605   3
  18  -4  10 172.668 159.539   3
  -4 -14  10 375.687 195.328   3
   4 -18  10 498.515 226.888   3
  18  -3  -9 571.981 238.086   4
  -3 -15  -6 685.701 122.918   4
  18  -3  -6 1145.73 257.037   4
  18  -3  -6 861.669 259.857   2
  15   3  -6 641.377 247.424   2
  -3 -15  -6 640.234 128.764   4
  15   3  -6 1071.39 284.571   4
  15   3  -6 593.567 100.625   1
  18  -3  -6 582.182 135.483   1
   3 -18  -6 730.835 123.879   4
  18  -3  -3 1071.50 226.081   2
  15   3  -3 1033.34 223.522   2
  18  -3  -3 882.929 153.788   1
   3 -18  -3 850.891 63.7008   2
   3 -18  -3 767.303 72.9985   2
  -3 -15  -3 908.994 86.7473   2
  15   3  -3 1223.16 163.161   1
  18  -3  -3 945.771 215.025   4
  15   3  -3 918.938 221.653   4
  -3 -15  -3 948.111 174.250   4
 -15  18  -3 1147.98 129.213   3
 -15  18   0 817.942 124.631   3
  -3 -15   0 921.095 184.561   3
   3 -18   0 928.010 183.229   3
 -15  18   0 1175.94 207.169   1
  -3 -15   0 1071.06 167.076   1
 -18  15   0 985.405 205.098   1
  15   3   0 1051.23 220.981   4
  18  -3   0 814.239 106.166   3
  15   3   0 1276.85 210.002   2
  15   3   0 996.539 137.071   3
  -3 -15   0 1205.04 173.986   2
  18  -3   0 898.976 186.826   2
 -18  15   0 1115.21 103.338   3
  18  -3   0 1296.74 224.700   4
 -18  15   3 1721.09 232.046   1
   3 -18   3 1396.75 148.958   1
  -3 -15   3 1614.07 140.564   1
  15   3   3 1719.21 239.700   1
 -15  18   3 1398.03 174.161   2
  18  -3   3 1771.16 226.478   4
  18  -3   3 1650.05 222.223   2
  15   3   3 1615.62 196.456   2
 -15  18   3 1528.23 224.040   1
  15   3   3 1309.69 202.455   4
  18  -3   3 1517.41 119.236   3
  -3 -15   3 1245.92 206.521   3
  15   3   3 1329.67 164.848   3
   3 -18   3 1459.11 208.256   3
   3 -18   6 36.3263 140.176   3
 -18  15   6 198.677 180.403   1
  18  -3   6-110.275 106.159   3
 -15  18   6-117.541 166.502   1
 -15  18   6 42.0871 106.963   2
  18  -3   6 319.751 146.334   4
  18  -3   6-97.2499 173.541   1
  15   3   6 191.493 186.001   1
  18  -3   6 7.73841 137.381   2
  15   3   6-23.5799 110.460   4
   3 -18   6-8.62049 35.9369   1
 -18  15   6-169.326 153.882   3
  15   3   6 55.2077 127.547   2
  -3 -15   6-218.530 171.724   3
 -15  18   9 150.944 191.915   1
  18  -3   9-1.22915 137.675   2
  18  -3   9-173.492 211.588   1
  15   3   9 186.489 131.508   2
  15   3   9 15.5573 211.025   1
 -15  18   9 273.504 213.299   3
  18  -3   9 444.890 170.464   3
 -18  15   9 514.068 241.767   3
 -18  15   9 98.4157 182.453   1
  -3 -15   9-132.255 204.332   3
   3 -18   9 284.762 214.955   3
  18  -2  -7 391.856 226.300   2
  -2 -16  -7 67.9062 60.5506   4
   2 -18  -7 127.430 80.6159   4
  16   2  -7 439.280 233.706   4
  18  -2  -7 525.188 224.434   4
  18  -2  -4-44.4666 181.422   2
  16   2  -4 395.563 212.262   2
   2 -18  -4 382.268 143.184   4
  16   2  -4 303.418 123.808   1
  16   2  -4 471.719 207.625   4
  18  -2  -4 107.771 168.430   4
  -2 -16  -4-85.2957 131.452   4
 -16  18  -4 338.718 104.208   3
  18  -2  -4 238.466 118.614   1
 -16  18  -1 507.911 98.7664   3
  16   2  -1 667.899 175.695   2
  -2 -16  -1 699.958 132.942   2
  -2 -16  -1 457.513 155.296   3
   2 -18  -1 431.561 173.045   3
   2 -18  -1 592.852 134.198   2
 -18  16  -1 565.517 173.671   1
 -16  18  -1 459.374 176.428   1
  16   2  -1 876.543 214.217   4
  18  -2  -1 370.705 183.156   4
  18  -2  -1 501.246 113.344   3
  16   2  -1 482.732 118.739   3
  18  -2  -1 922.545 206.640   2
 -18  16  -1 454.961 66.7851   3
  16   2   2 658.355 122.277   3
 -16  18   2 710.727 194.425   1
  -2 -16   2 486.222 147.271   3
   2 -18   2 458.584 145.137   3
 -16  18   2 563.351 149.596   3
 -18  16   2 792.279 136.051   3
  -2 -16   2 759.744 135.711   1
 -18  16   2 592.239 188.585   1
  16   2   2 933.002 203.179   4
  18  -2   2 430.565 152.179   2
   2 -18   2 688.871 134.696   1
  18  -2   2 709.073 101.803   3
  18  -2   2 730.145 188.561   4
  16   2   2 768.430 158.712   2
  -2 -16   5 289.610 153.868   3
 -18  16   5 192.440 162.441   1
   2 -18   5 408.355 164.863   3
  18  -2   5 330.085 105.053   3
  16   2   5 125.960 170.538   1
 -16  18   5 284.405 125.633   2
  18  -2   5 423.693 154.453   4
 -16  18   5 535.954 193.583   1
  16   2   5 422.542 143.869   4
   2 -18   5 335.276 75.0499   1
  18  -2   5 275.452 154.543   2
  16   2   5 555.679 154.313   2
 -18  16   8 810.872 238.783   3
  18  -2   8 924.687 184.648   2
 -16  18   8 815.782 240.532   1
  18  -2   8 414.349 229.780   1
  16   2   8 803.872 234.696   1
  18  -2   8 601.062 145.944   4
  16   2   8 593.662 150.388   2
  18  -2   8 522.532 154.775   3
 -18  16   8 546.239 216.287   1
  -2 -16   8 445.336 216.016   3
   2 -18   8 632.569 204.947   3
  18  -1  -8 4.15002 221.583   4
  17   1  -8 380.286 243.549   4
   1 -18  -5 2804.99 233.831   4
  18  -1  -5 1994.55 202.234   1
  17   1  -5 2598.86 210.216   1
  18  -1  -5 2510.64 330.741   4
  17   1  -5 2956.65 363.392   4
  -1 -17  -5 2412.30 224.691   4
 -17  18  -5 2035.39 174.817   3
  18  -1  -5 2872.19 334.648   2
  17   1  -5 2922.12 359.865   2
  -1 -17  -2 2925.61 287.053   3
   1 -18  -2 2788.70 287.225   3
  18  -1  -2 2762.80 226.524   3
  18  -1  -2 3012.41 324.924   4
  17   1  -2 2705.50 325.824   4
 -17  18  -2 2744.90 272.669   1
  17   1  -2 2091.05 224.061   1
  -1 -17  -2 2811.97 174.676   2
  18  -1  -2 2816.40 310.398   2
 -18  17  -2 2744.59 131.103   3
  17   1  -2 2996.08 325.939   2
 -17  18  -2 2878.77 160.421   3
   1 -18  -2 2882.37 183.413   2
 -17  18   1 1767.86 255.554   1
 -17  18   1 1742.88 172.790   3
 -18  17   1 2014.25 171.802   3
 -18  17   1 1830.02 251.456   1
  -1 -17   1 1670.26 186.621   1
   1 -18   1 1798.39 191.942   1
  18  -1   1 2620.47 281.001   4
  17   1   1 2197.20 268.164   4
  18  -1   1 2220.88 246.327   2
  17   1   1 1820.83 224.676   2
  18  -1   1 1991.16 153.030   3
  17   1   1 2210.78 171.032   3
  -1 -17   1 1728.08 222.476   2
  -1 -17   1 2127.78 241.486   3
   1 -18   1 1509.96 213.532   3
   1 -18   1 1609.74 220.615   2
   1 -18   4 1394.84 206.310   3
 -18  17   4 1340.42 243.941   1
  -1 -17   4 1215.57 116.644   1
   1 -18   4 1245.11 130.175   1
  17   1   4 1324.68 211.528   4
  18  -1   4 1218.03 198.095   2
  18  -1   4 1051.53 196.593   4
  -1 -17   4 1578.69 228.004   3
  17   1   4 1085.13 182.194   2
  17   1   4 1278.32 235.746   1
 -17  18   4 592.064 189.862   1
  18  -1   4 1282.79 144.024   3
  17   1   4 1108.62 152.321   3
  18  -1   7 3141.01 351.303   1
  17   1   7 4154.05 393.618   1
  18  -1   7 3738.12 309.637   2
  17   1   7 3558.78 291.382   2
  18  -1   7 3689.15 266.109   4
  17   1   7 3481.53 252.672   4
 -17  18   7 3848.20 380.695   1
 -18  17   7 3650.12 353.099   3
 -18  17   7 3789.48 367.909   1
  -1 -17   7 3648.61 363.409   3
   1 -18   7 3864.85 348.768   3
  18   0  -9 150.107 229.988   4
  18   0  -6 451.905 217.857   2
   0 -18  -6 533.984 132.864   4
  18   0  -6 600.398 252.200   4
   0 -18  -6 535.108 143.694   4
  18   0  -6 374.286 121.677   1
  18   0  -3 29.0830 164.623   2
   0 -18  -3 50.7210 40.2439   2
  18   0  -3 13.6710 201.958   4
 -18  18  -3-62.0961 65.3543   3
   0 -18  -3 50.4615 46.0739   2
  18   0  -3-106.938 116.312   1
 -18  18   0 393.339 97.6975   3
   0 -18   0 315.752 155.563   3
   0 -18   0 382.782 138.313   2
 -18  18   0 247.376 162.355   1
  18   0   0 674.938 214.104   4
  18   0   0 439.185 113.811   3
  18   0   0 477.786 184.677   2
  18   0   3 61.1555 88.0146   3
   0 -18   3 81.8912 142.093   3
 -18  18   3 88.6784 165.490   1
  18   0   3 25.6585 152.695   4
   0 -18   3-24.5849 87.9142   1
  18   0   3-85.7858 146.405   2
   0 -18   6 29.0525 161.864   3
  18   0   6 213.156 180.821   1
  18   0   6 202.153 145.054   2
  18   0   6 195.887 144.519   4
 -18  18   6 354.060 203.450   1
 -18  18   9 84.6964 199.214   3
  18   0   9-177.535 143.121   2
  18   0   9 123.502 156.034   3
 -18  18   9 110.943 181.559   1
  18   0   9 147.751 207.717   1
   0 -18   9 259.342 202.114   3
  19 -19  -7 22.5088 187.502   2
  19 -19  -7 4.06122 163.074   4
  19 -19  -4 4356.14 350.056   4
   0  19  -4 3606.24 207.160   1
  19 -19  -4 3797.03 306.429   2
 -19   0  -1-49.1188 104.499   3
  19 -19  -1 70.3738 151.902   4
  19 -19  -1 92.3505 121.989   2
   0  19  -1 75.9950 122.475   1
  19 -19   2 3859.51 346.763   4
  19 -19   2 4626.89 337.130   2
   0  19   2 4345.16 326.828   1
 -19   0   2 4664.86 277.248   3
  19 -19   5-78.5686 91.1587   3
   0  19   5-119.071 179.956   1
  19 -19   5-107.415 168.270   2
  19 -19   5-124.029 179.373   4
 -19   0   5 232.372 169.869   3
   0  19   8 2283.74 335.655   1
  19 -19   8 2113.42 287.958   4
  19 -19   8 1961.51 315.623   2
 -19   0   8 2447.90 319.242   3
  19 -19   8 2211.51 226.526   3
  19 -18  -8-58.5683 189.478   2
  18 -19  -8-194.133 173.547   2
  19 -18  -8 209.267 187.906   4
  18 -19  -8 137.308 167.459   4
   1  18  -5 218.488 62.2365   1
  18 -19  -5 489.648 177.602   4
  19 -18  -5 571.533 188.216   4
  -1  19  -5 355.134 84.0519   1
  18 -19  -5 507.260 168.869   2
  19 -18  -5 336.647 170.291   2
 -18  -1  -2 16.2759 112.055   3
 -19   1  -2 120.321 97.6511   3
  19 -18  -2-191.977 159.622   4
   1  18  -2 16.2348 98.8391   1
  18 -19  -2-26.1682 170.512   4
  18 -19  -2 348.760 146.123   2
  19 -18  -2 157.894 138.855   2
  -1  19  -2 107.209 101.311   1
 -19   1   1 108.517 94.3540   3
 -18  -1   1 194.204 97.3044   3
   1  18   1-32.9183 128.065   1
  -1  19   1 122.226 135.385   1
  18 -19   1 63.5902 160.537   4
  19 -18   1 140.881 163.943   4
  18 -19   1 35.0148 136.004   2
  19 -18   1 69.4034 147.925   2
  18 -19   4 263.471 180.887   2
  18 -19   4 291.113 99.5993   3
  19 -18   4 132.770 73.4544   3
   1  18   4 73.3600 160.121   1
  -1  19   4 378.259 173.141   1
  18 -19   4 421.673 180.061   4
  19 -18   4 130.862 155.061   4
  19 -18   4 182.399 161.856   2
 -19   1   4 182.368 133.190   3
 -18  -1   4 295.011 137.622   3
  19 -18   7-92.3209 104.025   3
  18 -19   7 100.672 116.708   3
   1  18   7 423.614 202.665   1
  -1  19   7-76.9950 226.643   1
  18 -19   7 310.279 204.317   4
  19 -18   7 320.811 191.415   4
  18 -19   7 76.3821 173.672   2
 -19   1   7-371.707 205.692   3
 -18  -1   7 274.077 172.488   3
  19 -18   7-284.376 191.535   2
  19 -17  -9-161.263 187.916   4
  17 -19  -9 187.304 158.943   4
  19 -17  -6-160.559 176.977   2
  17 -19  -6 98.0456 154.654   2
 -17  -2  -6-35.0429 111.746   4
  17 -19  -6-15.5125 147.398   4
  19 -17  -6 86.7217 161.714   4
   2  17  -3 1485.68 148.475   1
  17 -19  -3 1589.12 239.764   4
  19 -17  -3 948.778 204.354   4
  -2  19  -3 1265.27 151.513   1
  17 -19  -3 1213.09 185.635   2
  19 -17  -3 1076.34 203.978   2
 -19   2   0 84.2427 88.0290   3
 -17  -2   0 164.565 109.584   3
  17 -19   0-30.2221 118.249   2
   2  17   0 168.707 117.472   1
  19 -17   0 311.593 187.631   4
  17 -19   0 164.972 155.016   4
  -2  19   0 130.942 124.144   1
  19 -17   0 267.842 146.404   2
  17 -19   3 684.092 187.392   4
   2  17   3 1141.85 224.199   1
  19 -17   3 949.337 84.7055   3
  17 -19   3 765.856 126.047   3
  19 -17   3 769.766 189.991   4
  19 -17   3 1578.91 236.249   2
  17 -19   3 747.775 193.806   2
  -2  19   3 1456.12 240.277   1
 -19   2   3 1376.61 177.070   3
 -17  -2   3 942.219 163.621   3
  19 -17   6 329.808 104.193   3
  17 -19   6 584.309 132.949   3
  17 -19   6 545.424 201.731   2
   2  17   6 332.295 195.398   1
  -2  19   6 799.628 234.050   1
  17 -19   6 543.543 192.561   4
  19 -17   6 212.498 150.824   4
  19 -17   6 474.916 195.423   2
 -19   2   6 323.292 168.555   3
 -17  -2   6 638.841 185.327   3
  19 -17   9 358.431 195.789   4
   2  17   9-184.919 241.801   1
  17 -19   9-35.0888 179.178   4
  -2  19   9 402.301 239.393   1
  17 -19   9 446.034 224.021   2
  19 -17   9-51.3645 190.711   2
 -19   2   9 455.944 224.948   3
 -17  -2   9-217.645 207.019   3
  19 -17   9 142.695 115.330   3
  17 -19   9-27.7995 132.295   3
  19 -16  -7-158.429 192.135   2
  16 -19  -7 232.795 161.021   2
  19 -16  -7 113.579 179.110   4
  16 -19  -7 57.6908 142.998   4
   3  16  -4 4104.37 184.278   1
  16 -19  -4 3802.48 303.735   4
  19 -16  -4 4123.99 342.567   4
  19 -16  -4 4044.61 317.690   2
  -3  19  -4 4027.91 230.206   1
  16 -19  -4 3676.67 272.080   2
 -16  -3  -1-96.9046 109.548   3
 -19   3  -1 2.58637 83.6503   3
   3  16  -1-89.5873 110.076   1
  19 -16  -1 119.683 146.606   4
  16 -19  -1-27.1720 119.564   2
  19 -16  -1 89.3033 137.965   2
  -3  19  -1 19.2786 113.234   1
  16 -19  -1 12.6529 144.933   4
  16 -19   2 7990.73 312.633   3
  16 -19   2 8250.40 414.153   2
  16 -19   2 7416.37 433.783   4
  19 -16   2 7812.48 428.620   4
  19 -16   2 8108.34 419.681   2
   3  16   2 9491.28 446.365   1
 -19   3   2 7623.47 313.220   3
  -3  19   2 8375.03 425.239   1
 -16  -3   2 8193.68 367.061   3
   3  16   5 214.898 179.805   1
  19 -16   5 1.43634 66.5037   3
  16 -19   5 174.859 113.303   3
  16 -19   5 324.280 187.387   4
  -3  19   5 112.017 173.456   1
  19 -16   5 104.277 147.709   4
  16 -19   5 313.780 184.657   2
  19 -16   5 139.867 183.427   2
 -19   3   5 292.214 140.070   3
 -16  -3   5 161.225 145.598   3
   3  16   8 3168.74 397.101   1
  16 -19   8 2432.74 290.792   4
  16 -19   8 2661.67 328.587   2
  19 -16   8 2794.51 340.333   2
  19 -16   8 3370.76 324.875   4
 -19   3   8 2582.82 329.344   3
 -16  -3   8 2336.16 321.290   3
  -3  19   8 3042.90 359.294   1
  19 -16   8 2955.36 229.472   3
  16 -19   8 2749.78 264.013   3
  19 -15  -8 47.9593 187.164   2
  19 -15  -8 248.329 183.834   4
  15 -19  -8 318.453 159.614   4
  19 -15  -5 466.470 183.286   2
  19 -15  -5 432.997 186.781   4
 -15  -4  -5 338.859 124.327   4
  15 -19  -5 232.454 151.238   4
  15 -19  -5 164.295 113.981   2
 -15  -4  -2 171.337 124.115   3
  -4  19  -2 358.503 122.610   1
   4  15  -2 150.244 84.5959   1
  15 -19  -2 391.089 166.806   4
  19 -15  -2 121.904 149.360   4
  15 -19  -2 6.18083 112.442   2
  19 -15  -2 147.835 146.612   2
   4  15   1-224.924 131.130   1
 -15  -4   1 235.216 130.749   3
  15 -19   1 26.0375 99.9366   3
  15 -19   1 206.714 171.738   4
  19 -15   1 283.429 165.561   4
  -4  19   1 350.747 146.990   1
  19 -15   1 106.280 132.554   2
  15 -19   1 247.354 145.356   2
 -19   4   1 84.4692 78.8613   3
  15 -19   4 89.4855 99.2076   3
  19 -15   4 74.9468 38.9143   3
  19 -15   4 239.057 147.287   4
  15 -19   4-156.211 155.722   2
  -4  19   4-25.0894 149.799   1
  19 -15   4 95.2347 168.395   2
  15 -19   4 141.769 157.833   4
 -19   4   4 74.0129 109.408   3
 -15  -4   4 357.299 160.850   3
   4  15   4 41.0578 151.903   1
  15 -19   7 24.5839 123.545   3
   4  15   7-13.8948 184.843   1
  15 -19   7 147.497 180.237   4
  15 -19   7 119.704 178.424   2
  19 -15   7-152.816 154.498   4
  -4  19   7-42.0141 192.391   1
  19 -15   7-208.914 178.759   2
 -19   4   7 445.496 180.075   3
 -15  -4   7-69.5174 172.243   3
  19 -15   7 13.9890 87.3614   3
  14 -19  -9 373.936 160.433   4
  19 -14  -9 302.083 190.277   4
  19 -14  -6 754.110 209.865   2
  14 -19  -6 430.008 135.068   2
 -14  -5  -6 647.735 141.201   2
 -14  -5  -6 285.381 111.456   4
  14 -19  -6 485.637 159.448   4
  19 -14  -6 515.910 191.488   4
  14 -19  -3 940.990 189.940   4
  19 -14  -3 794.630 203.706   4
 -14  -5  -3 782.762 151.485   2
  -5  19  -3 1182.94 156.181   1
  14 -19  -3 937.149 144.898   2
   5  14  -3 1108.41 120.670   1
  19 -14  -3 1111.37 199.056   2
 -14  -5   0 562.891 141.645   3
  19 -14   0 505.860 160.530   4
  14 -19   0 646.984 145.617   2
  14 -19   0 528.857 178.902   4
  19 -14   0 783.777 175.407   2
  -5  19   0 754.225 161.142   1
 -19   5   0 650.307 95.2899   3
   5  14   0 707.900 163.625   1
  14 -19   3 1018.47 146.438   3
  14 -19   3 889.897 213.022   4
  14 -19   3 600.702 169.743   2
  19 -14   3 936.323 191.282   4
  -5  19   3 1134.46 219.213   1
  19 -14   3 989.746 189.682   2
 -19   5   3 748.801 146.389   3
   5  14   3 744.145 183.834   1
 -14  -5   3 885.927 163.831   3
  14 -19   6 827.964 163.749   3
  14 -19   6 1361.86 236.493   4
  -5  19   6 819.154 223.445   1
  19 -14   6 1138.81 229.587   2
  14 -19   6 893.534 215.121   2
  19 -14   6 1153.11 210.812   4
  19 -14   6 879.822 111.785   3
 -19   5   6 1021.52 210.752   3
 -14  -5   6 969.948 221.412   3
   5  14   6 837.345 224.150   1
   5  14   9 595.716 237.161   1
  14 -19   9 246.055 179.202   4
  14 -19   9 359.253 213.315   2
  19 -14   9 232.673 164.358   4
  -5  19   9 244.936 225.322   1
  19 -14   9 459.632 214.963   2
 -19   5   9 365.281 210.258   3
  19 -14   9 344.414 134.725   3
 -14  -5   9 38.7495 202.218   3
  14 -19   9 530.187 180.478   3
  19 -13 -10 1051.96 260.497   4
  19 -13  -7 321.764 202.810   2
  13 -19  -7 231.953 109.782   2
  13 -19  -7 7.30441 130.991   4
  19 -13  -7-18.6159 164.920   4
 -13  -6  -4 7256.63 312.963   2
  13 -19  -4 8221.47 334.145   2
  -6  19  -4 7890.59 331.843   1
  13 -19  -4 7528.36 391.009   4
 -13  -6  -4 7589.90 358.216   4
  19 -13  -4 7848.60 459.616   4
  19 -13  -4 6779.59 418.290   2
   6  13  -4 7715.54 213.497   1
 -13  -6  -1 1395.02 190.498   3
  -6  19  -1 1597.85 189.671   1
 -19   6  -1 1305.37 86.6441   3
  13 -19  -1 1359.12 228.947   4
  13 -19  -1 1553.20 182.606   2
   6  13  -1 1595.48 176.346   1
  19 -13  -1 1465.66 213.374   2
  19 -13  -1 1378.38 219.646   4
 -13  -6  -1 1272.21 187.568   2
  19 -13   2 7243.17 402.355   4
  13 -19   2 7635.96 431.138   4
  13 -19   2 6389.72 357.828   2
  19 -13   2 6359.38 379.940   2
   6  13   2 6991.33 391.445   1
  13 -19   2 6623.44 315.406   3
 -19   6   2 6757.49 275.352   3
 -13  -6   2 6822.14 349.443   3
  -6  19   2 6603.04 381.750   1
  19 -13   5 146.640 52.4386   3
  13 -19   5 281.480 126.605   3
  13 -19   5 215.022 157.115   4
  19 -13   5 215.437 160.979   2
  19 -13   5 210.581 140.967   4
  13 -19   5 220.914 162.962   2
  -6  19   5-39.3578 173.595   1
 -19   6   5 360.528 160.411   3
   6  13   5 296.555 175.229   1
 -13  -6   5 260.769 158.396   3
  13 -19   8 2679.49 324.848   4
  13 -19   8 2478.26 329.843   2
  19 -13   8 2592.28 280.896   4
   6  13   8 2516.12 333.325   1
 -19   6   8 2993.84 348.038   3
  19 -13   8 2693.24 214.818   3
 -13  -6   8 2586.12 321.206   3
  19 -13   8 2688.29 314.055   2
  13 -19   8 2950.49 286.622   3
  -6  19   8 1883.84 298.008   1
  19 -12  -8 779.867 251.822   2
  12 -19  -8 536.885 150.360   4
  19 -12  -8 824.232 231.145   4
  12 -19  -5 239.778 107.768   2
  19 -12  -5 358.755 199.058   2
 -12  -7  -5 190.816 90.7782   2
 -12  -7  -5 375.292 123.853   4
  19 -12  -5 292.208 164.927   4
  12 -19  -5 234.771 133.659   4
 -12  -7  -2 912.385 184.775   3
  19 -12  -2 865.973 196.765   4
   7  12  -2 1076.36 140.490   1
  12 -19  -2 614.982 117.540   2
  12 -19  -2 607.216 168.309   4
 -12  -7  -2 851.392 143.853   2
  -7  19  -2 1062.15 155.899   1
  19 -12  -2 1022.97 196.842   2
 -12  -7   1 363.122 136.156   3
  12 -19   1 193.331 114.190   3
   7  12   1 385.719 138.080   2
  12 -19   1 500.958 172.127   4
  12 -19   1 196.660 112.812   2
  19 -12   1 288.545 149.843   2
   7  12   1 506.436 140.924   1
  19 -12   1 133.717 147.739   4
 -19   7   1 549.381 92.9263   3
  -7  19   1 90.3461 139.850   1
  12 -19   4 1094.62 164.279   3
  12 -19   4 1127.03 218.237   4
  19 -12   4 1451.60 215.650   4
  12 -19   4 1101.49 195.684   2
  19 -12   4 859.285 189.194   2
  -7  19   4 1076.43 203.742   1
 -19   7   4 1429.62 194.506   3
   7  12   4 1170.77 224.847   1
   7  12   4 965.645 106.380   2
 -12  -7   4 840.312 180.502   3
  12 -19   7 394.620 188.256   2
  19 -12   7 506.286 170.567   4
  19 -12   7 368.035 177.687   2
  -7  19   7 255.706 186.889   1
 -19   7   7 240.010 169.264   3
 -19   7   7 560.577 173.255   1
  19 -12   7 611.396 118.049   3
   7  12   7 462.631 197.405   1
 -12  -7   7 622.663 184.406   3
  12 -19   7 651.130 220.020   4
  12 -19   7 385.585 165.019   3
   7  12  10 230.303 233.775   1
  12 -19  10 375.428 214.417   4
  12 -19  10 154.563 240.087   2
  19 -12  10 355.979 163.837   1
  19 -12  10 145.362 186.212   2
  -7  19  10 402.350 224.019   1
 -19   7  10 295.208 251.802   3
  19 -12  10 230.919 129.146   3
 -12  -7  10 225.436 233.241   3
  12 -19  10 276.571 171.626   3
  19 -11  -9 567.205 221.955   4
  19 -11  -6 362.962 191.073   2
  11 -19  -6 55.1540 75.2800   2
  11 -19  -6 341.558 136.793   4
 -11  -8  -6 347.438 103.334   4
  19 -11  -6 350.980 195.682   4
 -11  -8  -3 791.447 186.919   3
  -8  19  -3 629.668 140.736   1
   8  11  -3 752.118 106.181   1
 -11  -8  -3 779.488 127.016   2
  19 -11  -3 624.830 196.124   4
  11 -19  -3 581.539 111.292   2
  11 -19  -3 815.236 187.074   4
 -11  -8  -3 906.026 181.371   4
  19 -11  -3 795.609 211.053   2
  11 -19   0 1369.17 199.142   3
  -8  19   0 1135.10 188.067   1
  11 -19   0 1646.13 180.918   2
   8  11   0 1351.73 196.018   2
  11 -19   0 1457.17 219.559   4
   8  11   0 1428.80 176.162   1
  19 -11   0 1068.48 202.837   4
  19 -11   0 1540.95 208.333   2
 -11  -8   0 1179.86 173.546   2
 -19   8   0 1116.32 82.9828   3
 -11  -8   0 1200.52 192.114   3
 -11  -8   3 572.820 157.173   3
  11 -19   3 340.742 115.318   3
   8  11   3 774.128 128.360   2
  11 -19   3 408.156 157.447   2
  11 -19   3 497.368 177.133   4
  19 -11   3 586.712 156.182   4
  19 -11   3 488.022 152.791   2
   8  11   3 917.054 178.814   1
  -8  19   3 379.978 164.255   1
 -19   8   3 584.408 128.965   3
  11 -19   3 420.095 135.496   1
  11 -19   6 515.965 155.884   3
   8  11   6 365.502 69.5632   2
  11 -19   6 434.366 129.393   1
  11 -19   6 469.511 210.527   4
  11 -19   6 170.706 180.081   2
 -19   8   6 630.452 179.311   1
  19 -11   6 525.276 169.996   4
  19 -11   6 428.014 177.055   2
  -8  19   6 696.029 229.283   1
   8  11   6 233.772 189.529   1
 -19   8   6 658.433 189.235   3
  19 -11   6 449.199 87.2903   3
 -11  -8   6 353.851 170.041   3
  19 -11   9 271.052 151.366   4
  11 -19   9 256.890 220.835   2
  19 -11   9 194.496 184.207   1
  19 -11   9 562.863 213.694   2
  11 -19   9-85.5298 187.736   4
  -8  19   9 223.028 196.654   1
 -19   8   9 469.116 184.763   1
 -19   8   9 328.298 227.297   3
  19 -11   9 179.956 130.941   3
 -11  -8   9 537.595 226.571   3
   8  11   9 628.323 241.608   1
  11 -19   9 388.092 199.476   3
  19 -10 -10 994.265 270.556   4
 -10  -9  -7 436.824 70.7475   4
  19 -10  -7 719.599 229.573   2
  10 -19  -7 381.167 129.140   4
  19 -10  -7 759.944 217.278   4
  10 -19  -4 4557.38 302.309   4
 -10  -9  -4 4123.48 210.734   2
  19 -10  -4 4267.99 350.418   4
 -10  -9  -4 4426.70 281.844   4
   9  10  -4 4358.86 170.058   1
  -9  19  -4 3956.60 264.254   1
  10 -19  -4 4432.52 207.651   2
  19 -10  -4 4407.82 356.243   2
 -10  -9  -1 792.453 167.254   3
   9  10  -1 1093.64 198.136   2
  10 -19  -1 1039.95 137.382   2
  10 -19  -1 1102.39 200.617   4
   9  10  -1 1244.11 170.390   1
  19 -10  -1 598.702 179.575   4
  -9  19  -1 1171.93 181.612   1
  19 -10  -1 1032.72 199.585   2
 -10  -9  -1 853.467 150.529   2
  -9  19   2 5366.30 349.554   1
  10 -19   2 5137.93 356.491   4
  10 -19   2 4509.64 308.716   2
  19 -10   2 4973.33 343.626   4
  19 -10   2 5012.32 327.174   2
 -19   9   2 4618.04 226.472   3
   9  10   2 4970.20 326.652   1
   9  10   2 4876.54 280.584   2
 -10  -9   2 4293.23 295.063   3
  10 -19   2 4292.87 278.893   1
  10 -19   2 4686.85 291.562   3
   9  10   5 628.308 114.472   2
  10 -19   5 606.825 159.807   3
 -19   9   5 528.785 170.040   1
  19 -10   5 383.931 67.1156   3
  10 -19   5 744.045 193.292   4
  10 -19   5 558.943 186.872   2
  19 -10   5 421.528 158.296   4
  19 -10   5 493.101 154.319   2
  -9  19   5 516.516 191.832   1
   9  10   5 469.711 189.237   1
 -19   9   5 288.608 143.176   3
  19 -10   5 398.849 62.7521   3
  10 -19   5 288.833 112.310   1
 -10  -9   5 310.315 156.440   3
  10 -19   8 1521.32 260.670   4
  19 -10   8 1790.81 271.976   2
  19 -10   8 2132.68 246.537   4
   9  10   8 2236.72 311.849   1
 -19   9   8 1884.67 308.023   3
  -9  19   8 1786.39 293.311   1
  19 -10   8 2067.78 201.249   3
 -19   9   8 1421.56 236.875   1
  10 -19   8 1940.29 264.784   3
 -10  -9   8 1724.16 284.996   3
   9 -19  -8 1847.72 185.975   4
  19  -9  -8 2538.34 317.987   4
  19  -9  -8 2461.96 351.786   2
  19  -9  -5 723.443 224.668   2
   9 -19  -5 381.541 66.8396   2
  -9 -10  -5 270.489 73.5210   2
   9 -19  -5 710.111 158.422   4
  10   9  -5 295.315 42.4015   1
  -9 -10  -5 399.900 119.064   4
  19  -9  -5 441.735 176.824   4
   9 -19  -2 4451.70 213.464   2
  -9 -10  -2 4421.34 319.331   3
  19  -9  -2 4748.72 360.867   4
   9 -19  -2 4938.60 330.560   4
  -9 -10  -2 4205.47 310.759   4
  -9 -10  -2 4752.28 247.048   2
  10   9  -2 4608.87 243.781   1
  19  -9  -2 4626.07 337.450   2
 -10  19  -2 3591.89 248.383   3
 -10  19  -2 4308.41 290.836   1
  10   9  -2 5138.75 368.220   2
  -9 -10   1 1072.61 179.016   3
  10   9   1 968.726 177.885   2
   9 -19   1 954.499 172.216   3
 -10  19   1 1305.79 198.681   1
   9 -19   1 1003.83 173.646   2
   9 -19   1 883.747 203.202   4
  10   9   1 1142.70 177.011   1
  19  -9   1 1297.09 213.128   4
  19  -9   1 897.213 186.896   2
 -19  10   1 977.137 95.1608   3
   9 -19   4 3640.50 242.528   1
  10   9   4 4390.45 345.246   1
 -19  10   4 3532.65 306.417   1
 -10  19   4 4159.31 342.242   1
  19  -9   4 4633.49 326.774   4
  19  -9   4 4162.83 321.900   2
 -19  10   4 4330.87 288.794   3
  10   9   4 4164.02 238.481   2
  -9 -10   4 3960.83 302.561   3
   9 -19   4 4196.20 292.702   3
 -19  10   7 702.334 197.727   1
   9 -19   7 678.346 226.356   4
  19  -9   7 844.851 186.828   4
  19  -9   7 693.561 207.543   2
  19  -9   7 939.159 135.824   3
  10   9   7 582.373 221.854   1
 -10  19   7 488.836 201.739   1
 -19  10   7 606.957 197.595   3
  10   9   7 539.590 109.733   2
  -9 -10   7 721.350 195.405   3
   9 -19   7 571.312 170.140   3
  19  -9  10 1359.26 272.368   2
   9 -19  10 1021.92 268.276   4
  19  -9  10 1468.59 295.979   1
  19  -9  10 1521.87 219.749   3
 -19  10  10 947.115 266.744   3
 -10  19  10 1324.80 297.142   1
  10   9  10 1018.92 277.448   1
 -19  10  10 1329.61 247.829   1
  -9 -10  10 1025.90 275.546   3
   9 -19  10 1014.39 239.572   3
  19  -8  -9 596.614 238.978   4
  19  -8  -6 92.9393 194.390   2
   8 -19  -6 315.174 119.011   4
  -8 -11  -6 208.249 98.2133   4
  19  -8  -6 504.238 197.964   4
  11   8  -3 731.990 214.437   2
  -8 -11  -3 388.463 164.345   3
 -11  19  -3 916.534 170.964   1
  11   8  -3 712.056 113.088   1
  19  -8  -3 862.397 208.535   4
  -8 -11  -3 551.549 149.376   4
  -8 -11  -3 521.387 102.068   2
   8 -19  -3 554.699 91.7103   2
  11   8  -3 652.086 205.669   4
   8 -19  -3 465.348 153.139   4
 -11  19  -3 546.788 125.179   3
  19  -8  -3 620.770 192.545   2
  19  -8   0 1410.50 224.966   4
   8 -19   0 1759.59 231.167   3
 -19  11   0 1294.80 80.7004   3
   8 -19   0 1146.19 198.848   4
   8 -19   0 1789.60 176.835   2
  11   8   0 1776.19 196.516   1
  19  -8   0 1671.96 212.611   2
  11   8   0 1698.64 242.979   4
  -8 -11   0 1635.63 192.943   2
 -19  11   0 1343.34 71.2160   3
  11   8   0 1617.83 218.626   2
 -11  19   0 1970.08 222.355   1
 -11  19   0 1649.85 183.733   3
  -8 -11   0 1418.84 201.568   3
  11   8   3 646.332 142.679   2
  -8 -11   3 700.252 161.458   3
 -11  19   3 766.590 206.363   1
   8 -19   3 952.453 173.124   3
 -19  11   3 847.693 207.059   1
   8 -19   3 568.151 126.017   1
  19  -8   3 572.240 183.784   4
  11   8   3 763.690 187.371   1
  19  -8   3 777.837 174.150   2
  11   8   3 851.833 176.710   4
 -19  11   3 582.316 125.002   3
  19  -8   6 533.519 169.169   4
   8 -19   6 453.406 187.820   3
   8 -19   6 280.814 109.263   1
 -11  19   6 246.079 71.8902   2
  19  -8   6 293.273 97.4855   3
  19  -8   6 344.464 181.306   2
  11   8   6 508.663 197.371   1
 -19  11   6 253.143 158.529   3
  19  -8   6 370.424 94.2575   3
  11   8   6 372.521 112.020   2
 -19  11   6 443.379 188.732   1
 -11  19   6 818.504 215.923   1
  -8 -11   6 361.554 168.096   3
   8 -19   9 716.903 260.478   4
  19  -8   9 870.322 180.462   4
  19  -8   9 711.224 223.437   2
  19  -8   9 666.763 231.935   1
 -19  11   9 409.141 193.076   1
 -19  11   9 644.310 235.903   3
  19  -8   9 771.517 154.475   3
  11   8   9 968.512 282.218   1
 -11  19   9 778.145 258.931   1
  -8 -11   9 580.746 228.969   3
   8 -19   9 906.778 222.435   3
  19  -7 -10 381.176 209.497   4
  -7 -12  -7 346.238 64.1003   4
  19  -7  -7 752.829 249.546   2
  -7 -12  -7 415.391 64.4920   4
   7 -19  -7 566.051 124.487   4
  19  -7  -7 690.679 220.654   4
  19  -7  -4 1098.93 236.279   2
  12   7  -4 970.076 234.732   2
  -7 -12  -4 1094.15 94.7571   2
   7 -19  -4 1527.98 191.178   4
  -7 -12  -4 1267.04 180.439   4
  12   7  -4 1298.96 124.326   1
  19  -7  -4 1099.85 228.290   4
  12   7  -4 1274.63 252.655   4
   7 -19  -4 819.707 65.5776   2
  12   7  -4 1154.36 124.373   1
 -12  19  -1 393.309 108.248   3
  12   7  -1 627.476 183.356   2
 -12  19  -1 619.772 160.299   1
  -7 -12  -1 416.889 156.030   3
   7 -19  -1 273.174 153.981   3
   7 -19  -1 57.1893 138.856   4
  19  -7  -1 304.609 159.688   4
  12   7  -1 394.464 127.299   1
  12   7  -1 223.593 168.964   4
   7 -19  -1 465.185 105.839   2
  19  -7  -1 567.060 187.156   2
  -7 -12  -1 364.927 118.922   2
  12   7   2 847.978 163.550   2
  -7 -12   2 861.261 173.707   3
   7 -19   2 1042.27 174.752   3
 -12  19   2 651.139 188.879   1
  19  -7   2 1122.61 210.670   4
  12   7   2 1172.09 188.950   1
 -19  12   2 1004.70 213.723   1
  12   7   2 1268.45 204.759   4
  19  -7   2 1120.60 203.875   2
   7 -19   2 998.616 155.801   1
 -19  12   2 870.775 122.571   3
 -12  19   5 106.708 174.905   1
   7 -19   5 89.9998 131.448   3
  19  -7   5 251.918 71.4753   3
 -12  19   5 110.551 81.3107   2
   7 -19   5 46.4886 85.3549   1
  19  -7   5 197.443 140.181   4
  19  -7   5 148.087 139.789   2
  12   7   5 224.966 176.116   1
 -19  12   5 329.490 139.702   3
  19  -7   5 195.147 68.3922   3
 -19  12   5 456.007 173.799   1
  12   7   5 90.2119 102.138   2
  -7 -12   5 189.266 166.730   3
  19  -7   8 742.437 227.944   1
 -19  12   8 858.632 219.292   1
  19  -7   8 584.513 164.163   4
  19  -7   8 719.896 191.345   2
  12   7   8 553.071 232.363   1
  12   7   8 630.568 127.132   2
 -19  12   8 631.019 231.022   3
  19  -7   8 757.151 145.968   3
  -7 -12   8 377.435 209.738   3
 -12  19   8 782.497 223.058   1
   7 -19   8 466.894 181.353   3
   6 -19  -8 2066.07 161.314   4
  19  -6  -8 2776.72 353.898   4
  19  -6  -8 2332.68 350.851   2
  19  -6  -5 276.420 202.380   2
  13   6  -5 390.974 221.451   2
  13   6  -5 313.129 74.9663   1
  -6 -13  -5 291.480 121.161   4
  19  -6  -5 1.64417 167.005   4
  13   6  -5 292.070 79.3689   1
   6 -19  -5 136.882 118.230   4
  13   6  -5 553.737 240.581   4
  -6 -13  -2 6012.84 369.129   3
  -6 -13  -2 6958.06 276.616   2
 -13  19  -2 6696.67 375.449   1
   6 -19  -2 6931.80 377.573   4
  13   6  -2 6778.35 311.765   1
  19  -6  -2 6479.50 423.353   4
  13   6  -2 6680.69 441.194   4
  19  -6  -2 6548.62 413.864   2
 -13  19  -2 6491.11 289.601   3
   6 -19  -2 7164.59 244.358   2
  13   6  -2 7111.51 449.171   2
   6 -19   1 1475.74 201.968   3
  13   6   1 1506.89 205.711   2
  13   6   1 1236.44 185.916   1
 -19  13   1 1470.16 232.978   1
  19  -6   1 1634.80 226.561   4
  13   6   1 1574.52 228.119   4
  19  -6   1 1578.15 216.845   2
   6 -19   1 1548.34 190.934   1
 -19  13   1 1339.29 118.347   3
  19  -6   1 1099.96 77.8939   3
 -13  19   1 1237.92 213.916   1
  13   6   1 1292.32 165.830   3
  -6 -13   1 1193.68 197.732   3
 -13  19   1 1231.37 175.452   3
 -13  19   4 7077.40 435.810   1
 -19  13   4 7622.96 435.652   1
 -13  19   4 7327.14 296.520   2
  13   6   4 8532.28 467.942   1
  19  -6   4 8586.80 424.686   4
  19  -6   4 7805.41 414.715   2
  13   6   4 7544.47 373.084   4
  13   6   4 7870.54 351.453   2
  19  -6   4 6931.51 193.113   3
 -19  13   4 7591.92 367.867   3
   6 -19   4 7250.90 298.362   1
  -6 -13   4 7021.16 402.285   3
   6 -19   4 7362.94 394.085   3
  19  -6   4 6486.33 188.868   3
 -13  19   7 291.747 192.011   1
  19  -6   7 301.082 146.864   4
 -19  13   7 322.068 181.063   3
 -19  13   7 779.516 202.912   1
  19  -6   7 219.153 154.090   2
  13   6   7 369.654 201.589   1
  19  -6   7 108.784 97.0564   3
  13   6   7 484.844 125.058   2
  -6 -13   7 265.344 188.090   3
   6 -19   7 326.012 170.386   3
 -13  19  10 1327.50 297.361   1
  19  -6  10 2031.19 341.504   1
 -19  13  10 1211.72 256.904   1
  19  -6  10 1478.84 252.748   2
  19  -6  10 1503.93 232.985   3
 -19  13  10 1050.90 288.592   3
  13   6  10 1658.89 340.553   1
  -6 -13  10 1779.16 316.459   3
   6 -19  10 1433.50 274.132   3
  19  -5  -9 645.828 249.497   4
  19  -5  -6 1091.28 276.944   2
  14   5  -6 727.775 82.2775   1
   5 -19  -6 958.317 149.575   4
  -5 -14  -6 1058.95 141.788   4
  19  -5  -6 872.482 240.209   4
  14   5  -6 1138.41 257.991   4
  14   5  -6 716.466 81.9671   1
 -14  19  -3 915.455 185.127   1
  19  -5  -3 952.762 231.699   2
  14   5  -3 1165.82 226.110   2
  -5 -14  -3 1032.43 213.898   3
   5 -19  -3 957.610 175.888   4
   5 -19  -3 801.502 74.3824   2
  19  -5  -3 1103.56 231.996   4
  -5 -14  -3 946.822 102.989   2
  -5 -14  -3 1008.08 194.749   4
  14   5  -3 1131.79 242.112   4
  19  -5  -3 777.964 151.065   3
 -14  19  -3 817.115 128.985   3
 -19  14   0 583.516 70.8394   3
  -5 -14   0 670.671 155.711   2
  14   5   0 621.268 185.782   2
 -14  19   0 540.663 120.624   3
 -14  19   0 402.545 173.010   1
  14   5   0 693.280 167.732   1
  -5 -14   0 512.670 165.165   3
   5 -19   0 657.817 173.669   3
  -5 -14   0 839.442 157.242   1
  19  -5   0 580.994 189.815   4
 -19  14   0 744.434 191.957   1
  14   5   0 455.095 181.396   4
 -19  14   0 663.356 72.2364   3
  19  -5   0 375.617 77.2171   3
  19  -5   0 490.655 173.135   2
  14   5   0 649.142 141.478   3
  -5 -14   3 1035.88 182.643   3
  19  -5   3 1267.37 219.358   4
  14   5   3 886.793 146.004   3
   5 -19   3 846.569 133.730   1
   5 -19   3 1059.03 188.557   3
 -14  19   3 1076.63 145.427   2
  14   5   3 1232.93 212.780   1
 -14  19   3 1507.64 228.841   1
  14   5   3 844.410 169.845   4
  19  -5   3 965.819 188.119   2
 -19  14   3 1003.52 148.257   3
  19  -5   3 827.083 73.1111   3
  14   5   3 875.463 162.537   2
 -19  14   3 856.270 195.965   1
   5 -19   6 445.368 88.2233   1
   5 -19   6 473.112 179.809   3
 -14  19   6 392.880 187.120   1
  19  -5   6 322.460 103.106   3
 -19  14   6-67.9454 169.838   1
 -14  19   6 385.581 110.368   2
  19  -5   6 388.030 168.772   4
  14   5   6 334.646 177.620   1
  19  -5   6 793.284 190.032   2
  14   5   6 544.977 141.637   4
  19  -5   6 623.976 120.010   3
 -19  14   6 317.615 164.408   3
  14   5   6 589.499 139.748   2
  -5 -14   6 578.576 188.814   3
  19  -5   9 450.396 163.095   3
 -14  19   9 259.871 211.706   1
 -19  14   9 14.2249 194.236   1
  19  -5   9 95.5719 196.191   1
  19  -5   9 454.730 182.042   2
  14   5   9 214.944 118.620   2
  14   5   9 144.807 200.420   1
 -19  14   9 208.205 211.931   3
  -5 -14   9 397.741 219.039   3
   5 -19   9 176.215 211.475   3
  19  -4  -7-180.434 236.715   2
  -4 -15  -7 117.456 63.3740   4
  15   4  -7 126.363 43.2255   1
   4 -19  -7 65.1707 89.6416   4
  19  -4  -7-106.451 211.877   4
  15   4  -7 408.259 237.891   4
  19  -4  -4 161.256 191.280   2
  15   4  -4-229.207 189.469   2
   4 -19  -4-113.872 138.195   4
  19  -4  -4 386.395 199.837   4
  -4 -15  -4 44.3263 121.840   4
  15   4  -4 67.6279 195.494   4
  15   4  -4-20.2169 89.5290   1
 -15  19  -4-34.3579 90.2000   3
 -15  19  -1 96.7731 83.5935   3
  15   4  -1 358.268 192.542   2
  -4 -15  -1 121.761 149.087   3
   4 -19  -1 181.571 163.124   3
   4 -19  -1 254.407 99.0524   2
  19  -4  -1 12.4154 168.707   4
  15   4  -1 78.2856 166.073   4
  19  -4  -1 223.556 97.3152   3
 -15  19  -1 37.8864 148.490   1
  19  -4  -1 386.679 174.440   2
 -19  15  -1 97.9016 28.4587   3
  -4 -15  -1 38.3579 96.9423   2
  15   4   2 188.984 96.9637   3
  -4 -15   2 143.958 142.653   3
   4 -19   2 385.385 157.712   3
 -19  15   2 274.112 177.590   1
 -15  19   2 255.431 110.508   2
  15   4   2 355.243 151.824   1
  19  -4   2 154.642 146.307   4
  15   4   2 79.8304 135.417   4
  19  -4   2 201.279 142.564   2
 -15  19   2 334.613 159.486   1
  19  -4   2 100.564 51.9424   3
  15   4   2-35.5826 127.834   2
  -4 -15   2 372.453 113.133   1
   4 -19   2 147.799 100.300   1
  -4 -15   5 537.284 186.336   3
   4 -19   5 262.105 147.441   3
  19  -4   5 138.862 78.5651   3
 -19  15   5 310.622 168.823   1
 -15  19   5 174.225 185.757   1
 -15  19   5 89.9851 103.005   2
  19  -4   5 339.004 154.088   4
  15   4   5 439.385 165.953   1
  15   4   5 252.347 136.819   4
  19  -4   5 503.213 174.767   2
 -19  15   5 152.739 139.004   3
  15   4   5 255.300 128.038   2
   4 -19   5 219.320 90.0468   1
 -19  15   8 415.103 200.659   1
 -15  19   8 430.999 217.110   1
  19  -4   8 399.708 202.107   1
  19  -4   8 577.374 188.172   2
  15   4   8 316.910 199.999   1
  15   4   8 538.234 139.738   2
  19  -4   8 307.985 135.630   4
  19  -4   8 402.237 138.113   3
 -19  15   8 198.240 184.954   3
  -4 -15   8 500.741 222.841   3
   4 -19   8 375.206 187.248   3
  19  -3  -8 2489.46 389.262   2
  19  -3  -8 3592.08 406.726   4
  19  -3  -5 534.939 246.582   2
  16   3  -5 203.110 221.013   2
   3 -19  -5 331.852 134.797   4
  16   3  -5 34.7740 92.9797   1
  19  -3  -5-144.709 196.416   4
  -3 -16  -5-224.461 137.232   4
  16   3  -5 260.618 204.823   4
 -16  19  -5 119.038 99.0272   3
  -3 -16  -2 8389.72 452.319   3
   3 -19  -2 7778.80 435.418   3
   3 -19  -2 9066.01 274.029   2
  19  -3  -2 5979.02 420.701   4
  16   3  -2 8743.74 516.754   4
  -3 -16  -2 8259.39 293.110   2
  19  -3  -2 7824.72 342.229   3
  19  -3  -2 8149.32 477.433   2
  16   3  -2 8690.86 482.650   2
 -16  19  -2 8133.44 288.600   3
   3 -19  -2 8041.81 289.035   2
 -16  19  -2 8346.53 438.564   1
  -3 -16   1 2.73475 139.833   3
   3 -19   1-99.4256 150.901   3
 -16  19   1-4.75138 97.4655   3
 -16  19   1-15.3103 153.422   1
 -19  16   1 42.8735 86.7722   3
 -19  16   1 111.530 155.689   1
  -3 -16   1-86.8085 117.975   1
  19  -3   1 195.993 179.807   4
  16   3   1 74.2700 138.109   4
  19  -3   1-3.68584 133.133   2
  19  -3   1 93.5142 73.4238   3
   3 -19   1 39.2129 115.915   1
  16   3   1 67.6422 98.9776   3
  16   3   1-47.3111 142.497   2
  16   3   4 5069.42 378.100   1
 -16  19   4 3792.74 255.503   2
   3 -19   4 4258.26 222.475   1
  19  -3   4 4431.23 327.272   4
  19  -3   4 4527.75 320.338   2
  16   3   4 4793.58 326.620   4
  16   3   4 4595.59 308.100   2
 -16  19   4 4174.46 355.776   1
  -3 -16   4 4312.82 331.171   3
   3 -19   4 3879.54 318.956   3
  19  -3   4 3983.50 195.112   3
  16   3   4 3604.14 244.328   3
 -19  16   4 4295.82 350.562   1
   3 -19   7-55.0797 166.206   3
 -19  16   7-225.903 174.665   1
 -16  19   7 5.00117 164.250   1
  19  -3   7 308.870 213.561   1
  16   3   7 356.543 203.468   1
  19  -3   7 242.921 132.792   4
  19  -3   7 193.562 161.389   2
  16   3   7 179.226 121.805   4
  16   3   7 229.921 131.084   2
 -19  16   7 77.1831 177.696   3
  -3 -16   7-8.34314 172.893   3
  19  -2  -9 312.310 229.367   4
  19  -2  -6 564.486 240.930   2
  17   2  -6 479.994 221.184   2
  -2 -17  -6 575.542 128.810   4
   2 -19  -6 493.590 130.421   4
  -2 -17  -6 476.939 137.078   4
  19  -2  -6 939.167 250.535   4
  17   2  -6 568.399 241.741   4
   2 -19  -6 423.330 144.066   4
  17   2  -6 285.674 105.237   1
  19  -2  -3 894.977 225.122   2
  17   2  -3 1084.25 229.494   2
   2 -19  -3 922.066 71.2598   2
  17   2  -3 1182.19 178.338   1
  -2 -17  -3 1158.63 97.3295   2
  17   2  -3 1513.96 282.750   4
 -19  17  -3 970.956 76.6547   3
   2 -19  -3 968.586 81.0431   2
  19  -2  -3 1005.19 252.039   4
 -17  19  -3 1077.58 124.522   3
 -19  17   0 41.4114 171.356   1
 -17  19   0 188.283 94.2608   3
  -2 -17   0-36.9792 127.044   2
 -19  17   0 30.1829 66.4218   3
  -2 -17   0-15.9246 153.211   3
   2 -19   0-102.404 143.488   3
   2 -19   0 169.440 123.063   2
  19  -2   0 120.266 174.450   4
  17   2   0 95.0666 169.545   4
 -17  19   0 140.924 161.918   1
  19  -2   0 188.200 87.4230   3
  17   2   0 136.214 97.7063   3
  19  -2   0 98.6894 157.416   2
  17   2   0 22.8191 146.542   2
  -2 -17   3 733.307 188.722   3
   2 -19   3 1104.25 146.920   1
  -2 -17   3 1264.60 142.544   1
 -19  17   3 1252.30 233.861   1
  17   2   3 1234.51 217.467   4
  17   2   3 1453.79 215.165   2
  19  -2   3 1583.09 233.816   4
  19  -2   3 1279.48 217.066   2
  19  -2   3 1314.85 128.325   3
  17   2   3 1460.50 163.989   3
 -17  19   3 1268.22 225.033   1
   2 -19   3 1509.51 219.831   3
  -2 -17   6-149.257 159.019   3
 -19  17   6-141.072 170.458   1
   2 -19   6 214.376 165.367   3
  19  -2   6 147.492 119.287   3
  19  -2   6-355.210 191.678   1
  17   2   6-91.1489 181.756   1
  19  -2   6 117.663 135.871   4
 -17  19   6 147.233 195.628   1
  17   2   6 60.3046 126.115   4
  19  -2   6 220.990 152.878   2
 -19  17   6-215.352 165.003   3
  17   2   6-3.79980 133.045   2
 -17  19   9 358.277 227.281   1
  19  -2   9 227.855 222.049   1
  19  -2   9 255.856 170.915   2
  17   2   9 302.509 223.187   1
  17   2   9 94.4792 137.961   2
 -17  19   9 40.6414 236.174   3
  19  -2   9 195.774 165.023   3
 -19  17   9 290.425 229.417   3
 -19  17   9 485.366 220.909   1
  -2 -17   9-12.1337 188.534   3
   2 -19   9 40.9514 187.881   3
  19  -1  -7-108.586 259.869   2
  18   1  -7 31.6292 218.973   2
  -1 -18  -7-97.0272 79.2916   4
   1 -19  -7-38.5367 84.2182   4
  19  -1  -7-64.0510 205.063   4
  18   1  -7-37.2404 218.734   4
  19  -1  -4 100.891 186.738   2
  18   1  -4-171.301 203.456   2
  18   1  -4 204.553 123.543   1
  19  -1  -4-144.311 191.417   4
  18   1  -4 257.912 228.410   4
 -19  18  -4 9.36505 67.9399   3
 -18  19  -4-55.1056 82.1581   3
 -18  19  -1 144.351 77.9006   3
  18   1  -1 127.138 182.661   2
  -1 -18  -1 199.105 112.902   2
   1 -19  -1 92.0391 112.669   2
  -1 -18  -1 110.167 162.356   3
   1 -19  -1 102.410 151.683   3
  19  -1  -1 38.9263 188.772   4
  18   1  -1 28.3549 191.510   4
  19  -1  -1 91.5546 107.876   3
 -18  19  -1 118.417 176.566   1
  18   1  -1 16.6110 98.4106   3
 -19  18  -1-11.7386 163.364   1
  19  -1  -1 90.4617 170.483   2
 -19  18  -1 37.6377 60.5352   3
  -1 -18   2 140.923 155.081   3
   1 -19   2 119.679 142.377   3
 -18  19   2-34.1446 118.885   3
 -19  18   2 62.1677 105.383   3
 -18  19   2 78.4680 154.958   1
  -1 -18   2 27.6015 97.0435   1
  19  -1   2 399.870 168.799   4
  18   1   2 82.3395 152.715   4
 -19  18   2-54.4296 152.467   1
   1 -19   2 44.7757 100.203   1
  19  -1   2 148.455 143.928   2
  18   1   2 183.521 151.132   2
  19  -1   2 10.8897 78.5633   3
  18   1   2 78.1656 89.7861   3
 -19  18   5 438.302 196.511   1
  -1 -18   5 347.988 177.355   3
   1 -19   5 385.282 168.883   3
  19  -1   5 825.784 212.289   1
  19  -1   5 317.384 114.000   3
  18   1   5 219.695 123.394   3
  18   1   5 494.552 201.001   1
   1 -19   5 505.439 80.9003   1
  19  -1   5 530.238 151.369   4
  18   1   5 612.725 173.334   4
  19  -1   5 659.616 185.559   2
  18   1   5 400.593 145.343   2
 -18  19   5 861.238 224.595   1
  19  -1   8-112.340 215.520   1
  18   1   8 284.703 217.344   1
  19  -1   8 116.906 128.004   4
  19  -1   8 79.1075 145.381   2
  18   1   8 119.662 149.015   2
 -18  19   8-328.476 205.089   1
 -18  19   8-382.326 213.251   3
 -19  18   8-81.6706 185.409   3
 -19  18   8-160.137 192.521   1
  -1 -18   8 72.4875 201.704   3
   1 -19   8 73.2574 176.059   3
  19   0  -8 1953.82 332.395   4
  19   0  -5-96.4444 207.513   2
   0 -19  -5 204.024 134.048   4
  19   0  -5 53.0007 112.002   1
  19   0  -5-186.892 223.063   4
   0 -19  -5 0.92634 123.178   4
 -19  19  -5-17.8639 85.7918   3
   0 -19  -2 3961.03 340.468   3
   0 -19  -2 3990.13 221.571   2
  19   0  -2 4250.77 373.290   2
 -19  19  -2 3633.74 166.314   3
   0 -19   1-222.070 162.538   3
 -19  19   1 1.84846 94.9625   3
  19   0   1 183.023 156.379   4
 -19  19   1 139.112 193.569   1
  19   0   1 338.065 163.586   2
  19   0   1-75.9605 87.5944   3
  19   0   4 4192.40 334.826   4
  19   0   4 4805.74 344.957   2
   0 -19   4 4272.83 221.389   1
 -19  19   4 4798.07 381.116   1
   0 -19   4 3726.46 334.275   3
  19   0   4 3574.70 225.691   3
   0 -19   7 234.637 184.580   3
  19   0   7-178.173 221.491   1
  19   0   7 126.411 130.982   4
  19   0   7-147.099 155.248   2
 -19  19   7-88.9234 178.048   1
  20 -20  -8 380.945 193.035   2
  20 -20  -8 538.008 209.356   4
  20 -20  -5-62.2173 162.597   4
   0  20  -5 51.1854 68.9533   1
  20 -20  -5-34.7680 153.172   2
  20 -20  -2 190.515 177.709   4
 -20   0  -2 36.7310 112.809   3
   0  20  -2-23.3743 113.479   1
  20 -20  -2 49.4961 127.763   2
 -20   0   1-12.3346 106.523   3
   0  20   1 75.5051 145.066   1
  20 -20   1-96.9697 134.575   2
  20 -20   1-134.454 178.608   4
  20 -20   4 229.637 82.7263   3
   0  20   4-96.2485 170.892   1
  20 -20   4 112.766 157.479   2
  20 -20   4 307.119 179.362   4
 -20   0   4 11.1574 138.671   3
  20 -20   7-98.4980 112.557   3
   0  20   7-251.280 221.887   1
  20 -20   7-67.2690 183.639   4
  20 -20   7 120.703 183.219   2
 -20   0   7-326.083 199.400   3
  20 -19  -9-140.249 199.582   2
  19 -20  -9 211.624 181.165   4
  20 -19  -9 188.116 199.444   4
  19 -20  -6 669.173 198.614   2
  20 -19  -6 679.047 201.409   2
  19 -20  -6 865.624 224.721   4
  20 -19  -6 452.010 182.643   4
  -1  20  -3 324.501 108.517   1
  19 -20  -3 292.010 170.669   4
  20 -19  -3 258.391 185.571   4
  19 -20  -3 679.623 173.305   2
  20 -19  -3 700.784 176.162   2
   1  19  -3 501.840 123.085   1
  20 -19   0 354.574 171.140   4
 -20   1   0 436.039 128.479   3
 -19  -1   0 310.367 134.539   3
   1  19   0 287.111 136.151   1
  19 -20   0 666.225 209.487   4
  -1  20   0 369.188 143.446   1
  19 -20   0 528.851 159.328   2
  20 -19   0 420.468 163.735   2
   1  19   3 420.255 180.320   1
  19 -20   3 342.436 98.1935   3
  19 -20   3 163.925 169.585   4
  20 -19   3-189.918 167.635   4
  19 -20   3 482.606 175.686   2
  20 -19   3 448.945 176.878   2
  -1  20   3 158.925 173.346   1
 -20   1   3 192.689 119.013   3
 -19  -1   3 153.424 137.370   3
  20 -19   6 151.896 99.6474   3
  19 -20   6 416.455 123.345   3
  19 -20   6 241.661 170.734   4
   1  19   6 405.725 200.383   1
  -1  20   6 827.021 222.901   1
  20 -19   6 777.909 219.066   4
  20 -19   6 476.322 197.425   2
  19 -20   6 326.778 188.599   2
 -20   1   6 403.072 179.020   3
 -19  -1   6 105.040 160.965   3
   1  19   9 263.472 227.633   1
  19 -20   9-83.1309 197.316   4
  20 -19   9-32.3031 185.891   4
  19 -20   9 178.187 216.958   2
  20 -19   9-1.43016 236.253   2
  -1  20   9 92.9663 224.160   1
 -20   1   9-19.3070 195.729   3
 -19  -1   9 263.526 205.023   3
  19 -20   9 184.576 144.156   3
  18 -20  -7 3233.22 321.641   4
  20 -18  -7 3041.25 332.930   4
  20 -18  -7 2949.57 338.117   2
  18 -20  -7 2827.19 302.332   2
   2  18  -4 1058.89 122.442   1
  20 -18  -4 748.275 210.251   4
  18 -20  -4 869.380 201.718   4
  18 -20  -4 328.107 137.089   2
  20 -18  -4 535.996 176.689   2
  -2  20  -4 754.828 132.988   1
 -18  -2  -1 3454.62 253.008   3
 -20   2  -1 3809.04 219.390   3
  -2  20  -1 4036.42 278.989   1
  18 -20  -1 3510.94 326.588   4
  20 -18  -1 3822.40 329.242   4
  18 -20  -1 3674.04 283.043   2
  20 -18  -1 3874.47 307.793   2
   2  18  -1 3831.59 268.416   1
 -18  -2   2 521.192 138.277   3
  20 -18   2 697.084 201.792   4
   2  18   2 727.161 179.703   1
  18 -20   2 543.304 114.842   3
  18 -20   2 686.471 202.003   4
  18 -20   2 775.173 185.564   2
  20 -18   2 582.359 172.272   2
  -2  20   2 987.329 209.046   1
 -20   2   2 608.560 132.054   3
  20 -18   5 1805.73 265.451   4
  18 -20   5 1519.19 248.232   4
  18 -20   5 1613.50 253.333   2
  20 -18   5 1298.84 237.927   2
   2  18   5 1735.55 275.200   1
  -2  20   5 1669.65 267.756   1
 -20   2   5 1691.07 232.405   3
 -18  -2   5 1970.15 254.495   3
  18 -20   5 1697.84 175.573   3
  20 -18   5 1667.85 134.427   3
  20 -18   8 1339.67 258.086   2
  18 -20   8 1479.60 260.527   4
   2  18   8 1091.47 266.730   1
  -2  20   8 1294.81 276.671   1
  18 -20   8 1757.33 307.705   2
  20 -18   8 1695.03 270.177   4
  20 -18   8 1541.20 177.329   3
 -20   2   8 1610.38 278.900   3
  18 -20   8 1508.99 199.908   3
 -18  -2   8 1436.45 271.450   3
  20 -17  -8 124.970 198.904   2
  17 -20  -8 499.271 169.185   2
  17 -20  -8 435.068 176.980   4
  20 -17  -8 374.470 201.585   4
  17 -20  -5 73.6360 144.764   4
  20 -17  -5 472.556 183.224   4
  -3  20  -5 179.546 90.8154   1
  17 -20  -5 141.222 137.762   2
  20 -17  -5 153.705 185.546   2
  -3  20  -2 657.473 138.368   1
 -17  -3  -2 474.223 138.754   3
   3  17  -2 408.459 106.183   1
  20 -17  -2 836.276 206.083   4
  17 -20  -2 844.025 166.917   2
  20 -17  -2 282.194 163.118   2
  17 -20  -2 741.858 203.192   4
 -20   3   1 126.095 93.8542   3
 -17  -3   1 137.392 113.296   3
   3  17   1-11.5820 129.504   1
  17 -20   1-142.320 151.891   4
  17 -20   1 199.782 156.726   2
  -3  20   1 146.933 140.343   1
  20 -17   1 241.102 147.562   2
  20 -17   1 175.321 161.891   4
   3  17   4 254.973 173.409   1
  17 -20   4 17.8965 99.5860   3
  20 -17   4 135.389 48.1291   3
  -3  20   4 442.714 194.654   1
  20 -17   4 151.721 151.203   4
  17 -20   4 411.380 192.930   4
  17 -20   4 368.415 176.197   2
  20 -17   4 91.7302 162.311   2
 -20   3   4 213.534 123.658   3
 -17  -3   4 151.743 147.595   3
  17 -20   7 266.939 138.607   3
 -20   3   7 131.574 166.508   3
  17 -20   7 260.628 200.831   2
   3  17   7 137.091 192.056   1
  17 -20   7 73.2252 171.012   4
  -3  20   7-73.8845 215.423   1
  20 -17   7-129.581 183.258   2
  20 -17   7 211.422 170.862   4
 -17  -3   7 61.3159 186.503   3
  20 -17   7 84.9983 94.1300   3
  20 -16  -9-172.982 204.540   2
  16 -20  -9 44.7454 152.671   4
  20 -16  -9-121.656 184.342   4
  20 -16  -6 1067.62 237.101   2
 -16  -4  -6 1150.95 166.249   4
  20 -16  -6 1747.08 263.304   4
  16 -20  -6 1533.92 209.709   2
  16 -20  -6 1585.32 225.446   4
  16 -20  -3-37.8449 147.014   4
  20 -16  -3 297.251 189.246   4
   4  16  -3 146.338 80.1426   1
  -4  20  -3 60.6986 100.429   1
  16 -20  -3 222.585 119.461   2
  20 -16  -3 59.5358 131.019   2
   4  16   0 892.862 170.802   1
 -16  -4   0 684.712 160.814   3
  16 -20   0 859.238 203.953   4
  20 -16   0 944.536 219.340   4
  16 -20   0 616.277 153.585   2
  20 -16   0 879.657 178.359   2
  -4  20   0 1016.79 183.198   1
 -20   4   0 1009.05 118.279   3
   4  16   3-252.723 146.409   1
  16 -20   3-21.6455 102.055   3
  16 -20   3-96.7718 161.344   4
  20 -16   3 154.600 161.538   4
  16 -20   3 314.825 163.297   2
  -4  20   3 191.436 180.043   1
  20 -16   3-172.382 164.283   2
 -20   4   3 174.437 109.154   3
 -16  -4   3 176.631 136.134   3
   4  16   6 984.601 230.673   1
  16 -20   6 973.682 166.355   3
  16 -20   6 1025.53 219.621   4
  16 -20   6 925.262 228.915   2
  20 -16   6 1130.58 215.849   4
  20 -16   6 973.073 220.686   2
 -20   4   6 1446.09 233.409   3
  -4  20   6 1069.35 237.298   1
  20 -16   6 824.887 104.848   3
 -16  -4   6 878.565 211.845   3
   4  16   9 0.36982 193.929   1
  16 -20   9-186.429 190.389   4
  16 -20   9 359.480 231.695   2
  20 -16   9 160.131 203.519   2
  -4  20   9 229.413 218.121   1
  20 -16   9-198.693 183.125   4
 -20   4   9 4.66602 187.845   3
 -16  -4   9 114.408 206.433   3
  20 -16   9-78.8553 112.179   3
  16 -20   9 118.097 144.919   3
  15 -20  -7 3173.90 285.901   4
  20 -15  -7 2927.17 325.986   4
  20 -15  -7 3398.56 371.064   2
  15 -20  -7 2941.77 241.324   2
  15 -20  -4 287.869 162.570   4
  20 -15  -4 730.436 198.526   4
  -5  20  -4 285.938 113.046   1
   5  15  -4 558.819 85.2924   1
  15 -20  -4 520.786 146.022   2
  20 -15  -4 757.608 197.341   2
 -15  -5  -1 2918.38 243.645   3
 -20   5  -1 2861.19 149.159   3
  -5  20  -1 2565.40 228.821   1
  15 -20  -1 2650.27 275.184   4
  20 -15  -1 2671.22 281.365   4
  20 -15  -1 2486.22 252.310   2
   5  15  -1 2890.21 224.221   1
  15 -20  -1 2704.75 228.598   2
  15 -20   2 2280.32 195.422   3
  15 -20   2 2464.96 277.120   4
  15 -20   2 2064.69 241.194   2
  20 -15   2 2898.88 299.252   4
  20 -15   2 2867.32 283.063   2
   5  15   2 3281.28 282.483   1
 -20   5   2 2861.94 196.836   3
 -15  -5   2 2864.08 242.338   3
  -5  20   2 2650.85 262.294   1
  20 -15   5 2207.15 275.670   4
  15 -20   5 1775.15 265.823   4
  20 -15   5 1778.86 271.562   2
  15 -20   5 1384.93 233.530   2
  -5  20   5 1429.44 246.360   1
   5  15   5 2074.20 269.457   1
 -20   5   5 1763.60 232.977   3
  15 -20   5 1765.83 197.479   3
  20 -15   5 1559.01 97.0519   3
 -15  -5   5 1408.53 214.388   3
   5  15   8 859.247 259.757   1
  15 -20   8 436.913 214.714   4
  15 -20   8 463.178 218.004   2
  20 -15   8 471.194 176.056   4
  20 -15   8 512.174 200.163   2
  -5  20   8 326.709 251.133   1
 -20   5   8 550.064 198.698   3
 -15  -5   8 240.993 202.704   3
  20 -15   8 488.521 119.733   3
  15 -20   8 494.391 164.222   3
  20 -14  -8 555.559 240.221   2
  20 -14  -8-18.0848 175.831   4
  14 -20  -8 413.270 158.198   4
  20 -14  -5 860.111 221.013   2
  14 -20  -5 747.926 173.076   4
 -14  -6  -5 621.458 133.176   2
 -14  -6  -5 723.471 148.021   4
  20 -14  -5 996.984 226.477   4
  14 -20  -5 751.689 147.460   2
   6  14  -2 133.523 106.452   1
  14 -20  -2 228.151 144.558   4
 -14  -6  -2 161.194 146.403   3
  20 -14  -2-69.7628 151.892   4
  -6  20  -2 62.3248 109.895   1
 -14  -6  -2 170.020 108.909   2
  20 -14  -2-116.703 150.656   2
  14 -20  -2 73.0594 105.238   2
 -14  -6   1 916.815 170.447   3
  -6  20   1 1505.80 214.555   1
  14 -20   1 1031.19 158.767   3
  14 -20   1 1451.96 201.518   2
  14 -20   1 1313.88 224.475   4
  20 -14   1 933.695 197.187   4
  20 -14   1 1076.43 193.820   2
 -20   6   1 1076.56 114.208   3
   6  14   1 1001.47 177.369   1
  -6  20   4 459.227 187.622   1
  14 -20   4 203.429 122.177   3
  14 -20   4 351.458 188.406   4
  14 -20   4 444.771 160.617   2
  20 -14   4 380.300 171.556   2
  20 -14   4 622.005 179.416   4
 -20   6   4 373.808 136.533   3
   6  14   4 231.491 158.007   1
 -14  -6   4 183.458 154.738   3
  14 -20   7 521.217 161.564   3
  -6  20   7 200.601 175.488   1
  14 -20   7 443.570 201.717   4
  20 -14   7 425.105 171.311   4
  14 -20   7 366.452 181.408   2
  20 -14   7 396.481 202.308   2
 -20   6   7 100.464 185.309   3
 -14  -6   7 269.000 183.785   3
  20 -14   7 418.446 107.216   3
   6  14   7 308.681 220.934   1
  20 -13  -9-66.3761 191.343   4
  20 -13  -9 251.365 240.505   2
  20 -13  -6 256.605 209.058   2
  13 -20  -6 321.493 115.769   2
 -13  -7  -6 158.721 101.497   4
  13 -20  -6-57.7099 136.899   4
  20 -13  -6 549.735 192.944   4
   7  13  -3 325.975 94.2174   1
  -7  20  -3 350.579 131.294   1
 -13  -7  -3 284.100 134.552   3
 -13  -7  -3 332.392 114.224   2
  13 -20  -3 179.686 133.041   4
  20 -13  -3 339.273 170.148   4
  13 -20  -3 389.203 113.926   2
  20 -13  -3 105.312 142.196   2
  -7  20   0 983.217 173.594   1
 -13  -7   0 947.143 171.236   3
  13 -20   0 773.022 170.096   3
  13 -20   0 985.925 212.684   4
  20 -13   0 889.808 202.174   4
  13 -20   0 772.195 157.919   2
  20 -13   0 750.796 175.445   2
   7  13   0 862.410 168.052   1
 -20   7   0 699.832 81.8091   3
 -13  -7   3 523.687 153.168   3
  13 -20   3 385.199 124.658   3
  13 -20   3 236.359 155.955   4
  13 -20   3 442.520 151.855   2
  20 -13   3 472.197 179.540   4
  20 -13   3 345.461 157.058   2
  -7  20   3 550.757 170.688   1
   7  13   3 341.764 157.695   1
 -20   7   3 417.787 113.029   3
 -13  -7   6 1773.06 266.709   3
  13 -20   6 1814.56 278.964   4
  20 -13   6 1574.49 244.124   4
  20 -13   6 1754.55 256.775   2
  13 -20   6 973.642 224.556   2
   7  13   6 1907.75 289.927   1
  -7  20   6 1748.81 267.658   1
 -20   7   6 1320.64 233.802   3
  20 -13   6 1314.95 114.754   3
  13 -20   6 1388.83 203.483   3
   7  13   9 356.271 252.164   1
  13 -20   9-43.6122 182.241   4
  13 -20   9 226.054 192.341   2
  20 -13   9 147.534 173.827   4
  20 -13   9 436.196 195.334   2
  -7  20   9-269.312 215.236   1
 -20   7   9 77.0444 190.687   3
  20 -13   9 268.530 127.795   3
 -13  -7   9 200.559 227.993   3
  13 -20   9-190.192 168.800   3
  12 -20  -7 3024.22 262.077   4
  20 -12  -7 3058.28 323.770   4
  20 -12  -7 3493.26 382.601   2
  12 -20  -4 594.483 161.466   4
 -12  -8  -4 610.220 118.116   2
 -12  -8  -4 724.596 160.751   4
  -8  20  -4 607.453 146.569   1
   8  12  -4 665.406 83.3917   1
  20 -12  -4 681.347 208.298   4
  12 -20  -4 772.047 123.603   2
  20 -12  -4 1036.42 220.913   2
 -12  -8  -1 2875.20 257.204   3
  20 -12  -1 3194.17 283.236   2
  12 -20  -1 3372.21 303.946   4
  12 -20  -1 2939.80 214.456   2
  20 -12  -1 3005.12 303.035   4
   8  12  -1 3722.75 247.093   1
  -8  20  -1 3096.94 251.131   1
 -12  -8  -1 2902.20 232.380   2
  12 -20   2 1234.18 178.246   3
 -12  -8   2 1041.31 177.623   3
  20 -12   2 903.511 188.032   4
   8  12   2 1136.97 158.803   2
  12 -20   2 836.995 203.642   4
  12 -20   2 969.469 182.873   2
  20 -12   2 1034.18 198.911   2
   8  12   2 1204.28 184.483   1
 -20   8   2 1374.04 142.725   3
  -8  20   2 1113.73 202.907   1
  -8  20   5 4292.33 376.588   1
  12 -20   5 4499.02 366.278   4
  12 -20   5 4629.54 357.620   2
  20 -12   5 4438.07 342.207   4
  20 -12   5 4516.71 350.842   2
   8  12   5 4421.09 371.613   1
 -20   8   5 3967.43 296.946   3
 -12  -8   5 3715.58 319.676   3
   8  12   5 3557.27 171.412   2
  12 -20   5 4034.72 296.420   3
  12 -20   8 314.801 177.408   4
  12 -20   8-74.7611 199.225   2
  20 -12   8 141.805 162.256   4
  20 -12   8-80.3733 159.227   2
  -8  20   8 30.6058 192.982   1
 -20   8   8 59.5443 155.246   1
 -20   8   8 6.42338 165.237   3
  20 -12   8 234.714 109.281   3
   8  12   8 201.282 216.724   1
 -12  -8   8 39.2028 183.256   3
  12 -20   8 240.086 154.219   3
  20 -11  -8-187.727 220.382   2
  11 -20  -8 175.286 129.123   4
  20 -11  -8 299.334 198.960   4
  20 -11  -5 1551.38 268.275   2
 -11  -9  -5 1433.00 138.513   2
  11 -20  -5 1528.37 200.952   4
 -11  -9  -5 1264.52 169.020   4
  20 -11  -5 1600.94 253.565   4
  11 -20  -5 1244.09 129.157   2
 -11  -9  -2 692.402 176.774   3
  11 -20  -2 561.407 168.775   4
  20 -11  -2 541.587 198.791   4
  11 -20  -2 644.583 120.303   2
 -11  -9  -2 628.309 143.136   2
   9  11  -2 721.609 127.011   1
  20 -11  -2 559.146 167.161   2
  -9  20  -2 642.797 148.713   1
  11 -20   1 3380.56 262.182   3
  11 -20   1 3269.70 310.081   4
  -9  20   1 3621.63 288.469   1
  20 -11   1 3765.65 312.848   4
  20 -11   1 3113.03 283.450   2
   9  11   1 3559.28 283.051   1
  11 -20   1 3403.82 255.737   2
 -20   9   1 3277.19 157.722   3
   9  11   1 3516.30 273.710   2
 -11  -9   1 3671.15 280.016   3
  11 -20   4 413.958 147.717   3
   9  11   4 322.931 106.839   2
  11 -20   4 344.503 176.141   4
  11 -20   4 470.735 170.889   2
  20 -11   4 364.086 150.852   4
  20 -11   4 451.034 174.484   2
   9  11   4 98.1257 150.186   1
  -9  20   4 522.630 185.740   1
 -20   9   4 395.194 138.366   3
  11 -20   4 387.692 134.387   1
 -11  -9   4 170.256 151.588   3
  11 -20   7 494.293 176.987   3
   9  11   7 465.296 75.9751   2
 -20   9   7 638.101 181.597   1
  11 -20   7 806.352 238.002   4
  20 -11   7 569.041 164.804   4
  11 -20   7 466.578 184.934   2
  -9  20   7 509.010 190.662   1
 -20   9   7 862.108 211.069   3
   9  11   7 489.038 209.191   1
  20 -11   7 617.818 116.167   3
  20 -11   7 724.119 202.771   2
 -11  -9   7 746.939 217.263   3
  20 -10  -9-73.6819 244.115   2
  20 -10  -9 217.245 192.959   4
  20 -10  -6 778.964 260.324   2
  10 -20  -6 346.546 127.486   4
 -10 -10  -6 546.236 119.160   4
  20 -10  -6 676.036 219.893   4
 -10 -10  -3 248.620 157.701   3
  10 -20  -3 165.601 143.874   4
  20 -10  -3 209.986 182.741   4
 -10 -10  -3-102.153 143.360   4
  10 -20  -3 2.70008 74.9615   2
  10  10  -3 87.3193 79.1161   1
 -10  20  -3-52.4553 118.530   1
 -10 -10  -3 110.900 99.9230   2
  20 -10  -3-63.1672 159.681   2
  10 -20   0 2556.30 241.514   3
  10 -20   0 2398.96 207.991   2
  10 -20   0 2594.15 278.602   4
  10  10   0 2759.30 236.761   1
  20 -10   0 2934.86 288.129   4
 -10  20   0 2498.64 247.169   1
  20 -10   0 2585.18 261.693   2
 -10 -10   0 2366.93 232.949   2
 -20  10   0 1951.56 89.9566   3
  10  10   0 2795.05 268.438   2
 -10 -10   0 2403.54 244.796   3
 -10 -10   3 108.048 126.120   3
  10 -20   3 152.550 119.722   1
  10  10   3 29.1550 105.416   2
  10 -20   3 26.5929 123.897   3
  20 -10   3 80.5416 133.677   4
  10 -20   3-192.867 133.692   2
  20 -10   3-120.225 145.650   2
  10 -20   3 9.73703 150.951   4
  10  10   3 82.1233 143.556   1
 -20  10   3 108.573 103.475   3
 -10  20   3-28.9745 159.449   1
  10 -20   6 241.954 155.380   3
  20 -10   6 408.210 91.6927   3
  10 -20   6 329.554 191.209   4
  20 -10   6 552.675 168.043   4
  20 -10   6 569.733 200.120   2
 -20  10   6 579.962 206.931   1
  10  10   6 537.661 212.188   1
 -10  20   6 361.499 190.368   1
  10 -20   6 385.355 126.990   1
 -20  10   6 472.358 170.219   3
  20 -10   6 514.315 84.5605   3
 -10 -10   6 567.444 199.198   3
  10  10   6 376.713 95.0289   2
  10 -20   9-40.9686 201.246   4
 -20  10   9 68.8202 164.276   1
  10 -20   9 67.7770 204.327   2
  20 -10   9-132.182 194.299   1
  20 -10   9-82.0182 149.484   4
  20 -10   9-12.4354 184.672   2
 -20  10   9-132.344 185.132   3
 -10  20   9 363.575 210.910   1
  20 -10   9 196.725 127.096   3
  10  10   9 460.955 260.368   1
 -10 -10   9-2.00457 194.285   3
  10 -20   9 394.421 203.619   3
  20  -9  -7 944.346 260.516   2
   9 -20  -7 733.987 150.182   4
  20  -9  -7 751.206 225.907   4
  20  -9  -4 67.9281 198.495   2
   9 -20  -4 660.064 175.601   4
 -11  20  -4 264.607 141.266   1
  -9 -11  -4 256.737 84.4155   2
  20  -9  -4 432.579 212.609   4
  -9 -11  -4 209.448 126.765   4
  11   9  -4 396.589 87.5577   1
   9 -20  -4 176.761 67.6105   2
  -9 -11  -1 3135.25 271.054   3
   9 -20  -1 3154.97 268.295   3
   9 -20  -1 3587.25 297.913   4
   9 -20  -1 3781.23 226.252   2
  11   9  -1 3538.43 248.072   1
  20  -9  -1 3829.67 332.801   4
  11   9  -1 3537.51 324.145   4
  20  -9  -1 2960.11 289.142   2
  -9 -11  -1 3173.95 234.281   2
 -11  20  -1 3594.14 287.591   1
  11   9  -1 3724.13 317.575   2
  -9 -11   2 507.136 173.270   3
  11   9   2 758.502 162.908   2
   9 -20   2 507.716 159.470   3
 -11  20   2 497.472 173.562   1
   9 -20   2 831.770 196.182   4
   9 -20   2 823.609 160.822   2
  20  -9   2 607.241 179.772   4
  11   9   2 834.178 189.336   1
  20  -9   2 684.664 165.050   2
 -20  11   2 587.231 110.869   3
  20  -9   5 866.350 75.7543   3
 -11  20   5 1537.58 261.859   1
  20  -9   5 1408.32 221.257   4
  20  -9   5 1915.80 253.984   2
  11   9   5 1131.40 220.914   1
 -20  11   5 1396.12 208.269   3
  11   9   5 1229.77 158.593   2
  20  -9   5 1120.93 83.4045   3
  -9 -11   5 1700.87 236.526   3
 -20  11   5 1473.92 239.390   1
   9 -20   5 1477.62 213.583   3
   9 -20   5 1328.75 172.156   1
 -20  11   8 48.3597 167.113   1
   9 -20   8 40.5403 195.836   4
  20  -9   8 138.155 146.915   4
  20  -9   8 266.752 175.187   2
 -20  11   8 12.7332 167.345   3
  11   9   8 235.107 193.722   1
  20  -9   8 246.042 110.699   3
 -11  20   8 584.468 243.298   1
  11   9   8 200.328 95.3965   2
  -9 -11   8-176.123 189.437   3
   9 -20   8 68.5636 156.670   3
  20  -8  -8 110.905 211.433   2
   8 -20  -8 167.125 104.190   4
  20  -8  -8 163.838 186.416   4
  -8 -12  -5 3104.17 140.397   2
   8 -20  -5 4171.70 286.827   4
  12   8  -5 3581.84 149.116   1
  -8 -12  -5 4053.73 264.481   4
  20  -8  -5 4534.79 408.195   4
  12   8  -5 3772.32 160.722   1
  20  -8  -5 3411.54 363.869   2
  12   8  -2 853.029 199.626   2
  -8 -12  -2 615.118 185.621   3
  12   8  -2 1036.27 148.407   1
   8 -20  -2 1011.62 118.610   2
 -12  20  -2 1206.42 195.472   1
  -8 -12  -2 984.753 142.491   2
  20  -8  -2 854.989 206.524   4
  12   8  -2 652.257 191.254   4
 -12  20  -2 970.234 154.700   3
  20  -8  -2 840.819 207.139   2
   8 -20  -2 1079.73 193.272   4
   8 -20   1 2782.36 251.802   3
   8 -20   1 3448.95 254.506   2
  12   8   1 2809.88 264.341   1
  20  -8   1 3022.30 299.474   4
 -12  20   1 2499.47 259.436   1
  20  -8   1 2604.76 264.478   2
  12   8   1 3188.25 306.182   4
 -20  12   1 3157.80 158.690   3
  12   8   1 3204.40 273.293   2
  -8 -12   1 2767.13 256.299   3
  -8 -12   4 549.632 172.826   3
 -12  20   4 551.179 194.983   1
   8 -20   4 729.706 166.146   3
 -12  20   4 419.245 101.403   2
  20  -8   4 948.209 195.611   4
 -20  12   4 640.704 196.371   1
  12   8   4 581.649 186.975   1
  20  -8   4 424.086 164.759   2
 -20  12   4 708.671 160.444   3
   8 -20   4 821.678 147.169   1
  12   8   4 698.574 143.904   2
  20  -8   7 2769.64 308.521   2
 -20  12   7 2486.16 294.678   1
 -12  20   7 3324.60 356.882   1
  12   8   7 2889.82 341.363   1
  20  -8   7 2853.39 274.050   4
  12   8   7 2474.03 191.478   2
 -20  12   7 3413.01 337.558   3
  20  -8   7 2977.95 203.521   3
  -8 -12   7 2249.39 296.393   3
   8 -20   7 2572.71 299.128   3
  20  -7  -9-120.000 211.135   4
  20  -7  -6 1355.07 279.834   2
   7 -20  -6 1769.16 196.306   4
  -7 -13  -6 1568.33 166.847   4
  20  -7  -6 1653.56 293.772   4
  -7 -13  -3 308.665 88.3283   2
  13   7  -3 400.169 205.337   2
  -7 -13  -3 374.383 174.338   3
   7 -20  -3 462.113 156.921   4
  13   7  -3 405.995 120.425   1
  20  -7  -3 538.220 208.998   4
  -7 -13  -3 374.435 151.199   4
   7 -20  -3 417.615 73.0661   2
  13   7  -3 506.089 229.072   4
 -13  20  -3 525.489 164.080   1
 -13  20  -3 228.744 106.936   3
  20  -7  -3 198.516 167.925   2
 -20  13   0 917.035 73.5237   3
  13   7   0 1039.53 173.854   1
 -13  20   0 701.362 144.656   3
  13   7   0 1148.06 218.090   2
  -7 -13   0 737.290 171.540   3
   7 -20   0 668.315 173.126   3
   7 -20   0 1204.00 159.980   2
  20  -7   0 1121.20 208.111   4
  13   7   0 528.191 183.276   4
 -20  13   0 777.129 60.8832   3
  20  -7   0 1225.73 212.979   2
 -13  20   0 1053.78 199.715   1
  -7 -13   0 882.855 169.919   2
  -7 -13   3 195.992 140.743   3
   7 -20   3 260.233 134.805   3
   7 -20   3 401.252 123.543   1
 -13  20   3 466.958 191.574   1
 -13  20   3 302.522 106.071   2
  20  -7   3 454.086 156.394   4
  13   7   3 352.262 157.072   1
  13   7   3 419.282 153.467   4
  20  -7   3 377.876 157.750   2
 -20  13   3 266.664 159.895   1
 -20  13   3 364.601 122.620   3
  13   7   3 499.791 148.650   2
   7 -20   6 431.594 164.665   3
 -13  20   6 228.684 170.083   1
  20  -7   6 87.6632 79.8277   3
   7 -20   6 229.368 97.5857   1
 -13  20   6 163.892 88.3673   2
  20  -7   6 122.715 150.334   4
  20  -7   6 176.986 149.426   2
  13   7   6 451.883 212.802   1
 -20  13   6 33.4163 160.488   1
 -20  13   6 211.635 159.240   3
  20  -7   6 186.467 85.3253   3
  13   7   6 41.6152 112.535   2
  -7 -13   6 120.896 155.457   3
 -13  20   9 189.116 196.317   1
  20  -7   9-21.7825 196.217   1
 -20  13   9-155.612 188.873   1
  20  -7   9 362.028 186.436   2
  13   7   9-10.8224 219.503   1
 -20  13   9 269.440 217.452   3
  20  -7   9 261.550 136.382   3
  -7 -13   9-19.9381 203.197   3
   7 -20   9 92.4880 171.538   3
  20  -6  -7 249.643 223.118   2
  -6 -14  -7 201.697 72.7262   4
  20  -6  -7 152.097 190.133   4
   6 -20  -7-25.3181 99.8651   4
  20  -6  -4 196.824 190.785   2
  14   6  -4 44.4555 86.5332   1
  14   6  -4 382.325 196.226   2
  14   6  -4 248.446 97.9951   1
  -6 -14  -4 268.881 55.3640   2
  20  -6  -4 239.516 190.571   4
  -6 -14  -4 131.824 132.555   4
  14   6  -4 525.951 237.601   4
   6 -20  -4 385.854 156.208   4
 -14  20  -4 202.136 109.220   3
  14   6  -1 1368.42 239.810   2
  -6 -14  -1 1109.11 212.869   3
   6 -20  -1 1019.62 203.619   3
   6 -20  -1 1133.13 139.938   2
  14   6  -1 835.616 162.603   1
 -14  20  -1 1158.80 196.798   1
  20  -6  -1 1351.76 232.722   4
  14   6  -1 1087.25 243.419   4
  20  -6  -1 820.174 115.962   3
  -6 -14  -1 1127.42 156.069   2
  20  -6  -1 1000.28 204.679   2
 -14  20  -1 967.806 142.493   3
 -20  14   2 102.612 160.436   1
 -14  20   2 104.546 165.395   1
  -6 -14   2 191.570 151.469   3
   6 -20   2 154.309 106.751   1
   6 -20   2 111.269 144.350   3
 -14  20   2 115.998 112.407   2
  14   6   2 39.8285 141.882   1
  20  -6   2 3.72836 149.172   4
  14   6   2 159.953 154.208   4
  20  -6   2-52.1266 152.991   2
 -20  14   2 86.6200 85.2078   3
  20  -6   2 21.7833 29.8079   3
  14   6   2-26.1960 134.613   2
  -6 -14   5 297.705 163.379   3
   6 -20   5 550.777 191.993   3
  20  -6   5 397.616 78.3028   3
   6 -20   5 600.404 112.190   1
 -14  20   5 1017.02 237.052   1
 -14  20   5 551.954 120.841   2
  20  -6   5 681.389 172.476   4
  14   6   5 283.436 190.017   1
  20  -6   5 535.521 176.986   2
  14   6   5 500.378 140.415   4
  20  -6   5 674.632 93.7422   3
 -20  14   5 555.741 199.876   1
 -20  14   5 782.522 184.056   3
  14   6   5 616.729 146.155   2
 -14  20   8 58.1162 189.872   1
 -20  14   8 93.1548 165.407   1
  20  -6   8 35.1561 178.027   1
  20  -6   8 29.1281 139.224   4
  20  -6   8 368.688 178.525   2
  14   6   8 285.008 230.705   1
 -20  14   8-94.9277 185.724   3
  14   6   8 177.970 115.521   2
  20  -6   8 33.8126 109.362   3
  -6 -14   8 277.463 220.887   3
   6 -20   8 60.0303 188.489   3
  20  -5  -8 349.952 240.235   2
  20  -5  -8 277.811 209.366   4
  20  -5  -5 1941.65 308.058   2
   5 -20  -5 1811.99 210.020   4
  20  -5  -5 2393.77 321.031   4
  -5 -15  -5 1905.10 209.114   4
  15   5  -5 2462.59 329.431   4
  15   5  -5 1693.12 150.043   1
  15   5  -5 2030.48 321.429   2
  -5 -15  -2 2826.87 193.434   2
  -5 -15  -2 2487.84 271.590   3
   5 -20  -2 2703.69 286.139   3
   5 -20  -2 2852.53 166.485   2
 -15  20  -2 2843.55 282.058   1
  20  -5  -2 3066.17 326.345   4
  15   5  -2 2657.18 319.984   4
  20  -5  -2 2622.77 208.930   3
  20  -5  -2 2290.03 284.055   2
 -15  20  -2 2617.90 198.412   3
  15   5  -2 2684.39 307.109   2
   5 -20   1 2786.68 271.420   3
 -20  15   1 2663.59 173.319   3
  -5 -15   1 2503.95 222.023   1
  15   5   1 2851.11 270.500   1
  20  -5   1 3119.29 303.820   4
  15   5   1 2912.25 301.937   4
  20  -5   1 2783.75 276.098   2
 -20  15   1 2388.88 286.973   1
 -20  15   1 2480.31 161.451   3
  20  -5   1 2429.93 130.304   3
  15   5   1 3106.53 277.134   2
 -15  20   1 3030.84 296.097   1
  15   5   1 2515.28 210.995   3
  -5 -15   1 2405.13 253.191   3
 -15  20   1 2659.37 223.245   3
   5 -20   4 524.061 120.297   1
  -5 -15   4 594.577 191.620   3
   5 -20   4 755.984 194.164   3
 -15  20   4 384.211 126.761   2
 -15  20   4 363.501 170.017   1
  15   5   4 785.990 205.997   1
  20  -5   4 367.650 144.096   4
  15   5   4 791.640 168.984   4
  20  -5   4 820.841 184.472   2
 -20  15   4 593.281 154.866   3
 -20  15   4 443.444 187.448   1
  15   5   4 451.608 146.128   2
  20  -5   4 635.842 82.3023   3
  20  -5   7 3290.35 346.486   1
  15   5   7 3014.76 358.678   1
 -15  20   7 2568.27 324.250   1
  20  -5   7 3381.09 289.647   4
  20  -5   7 3222.89 318.174   2
  15   5   7 2675.44 242.198   2
  20  -5   7 3131.32 225.183   3
 -20  15   7 2966.16 327.964   3
  -5 -15   7 2553.10 326.095   3
   5 -20   7 2626.79 295.013   3
 -20  15   7 2888.68 335.026   1
  20  -4  -9 561.524 264.914   4
  20  -4  -6 1138.13 280.384   2
  16   4  -6 893.677 263.960   2
   4 -20  -6 1301.44 168.553   4
  -4 -16  -6 810.958 147.980   4
  20  -4  -6 1369.76 283.583   4
  16   4  -6 1345.66 301.219   4
  16   4  -6 750.701 113.512   1
   4 -20  -3 62.4763 133.037   4
  20  -4  -3 250.286 199.478   2
   4 -20  -3 32.5225 55.9262   2
  16   4  -3-145.975 185.451   2
  -4 -16  -3 110.259 181.351   3
  20  -4  -3-120.219 197.414   4
  16   4  -3 133.011 223.226   4
  -4 -16  -3 15.0194 63.7860   2
   4 -20  -3-15.3216 44.3821   2
  16   4  -3 133.425 122.208   1
 -16  20  -3 90.9026 91.4462   3
 -16  20  -3-0.44938 169.956   1
  20  -4   0 728.021 200.593   4
  16   4   0 852.045 208.320   2
  -4 -16   0 879.921 167.158   2
  -4 -16   0 1098.15 206.969   3
   4 -20   0 925.979 193.768   3
 -16  20   0 866.138 193.195   1
  16   4   0 1013.75 226.452   4
 -20  16   0 808.477 210.663   1
  20  -4   0 667.502 101.743   3
  20  -4   0 911.593 213.357   2
  16   4   0 750.999 136.101   3
 -16  20   0 879.988 142.239   3
 -20  16   0 824.679 92.0516   3
  16   4   3 292.954 128.793   3
  -4 -16   3 6.39465 153.132   3
   4 -20   3 198.158 139.508   3
 -16  20   3 261.097 129.240   2
  16   4   3 30.3802 150.028   1
  20  -4   3 162.381 150.255   4
  16   4   3-186.319 166.774   4
 -16  20   3 30.1889 162.453   1
  20  -4   3-59.7220 136.959   2
 -20  16   3 234.160 169.300   1
  16   4   3 152.454 130.630   2
   4 -20   3 131.127 104.059   1
  20  -4   3 67.1732 57.2004   3
  -4 -16   6 1317.41 249.349   3
  20  -4   6 1147.66 148.386   3
   4 -20   6 1103.98 242.252   3
 -20  16   6 927.611 221.903   1
   4 -20   6 971.167 101.746   1
 -16  20   6 1054.62 224.518   1
  16   4   6 1096.18 250.269   1
  20  -4   6 1058.65 191.149   4
  16   4   6 949.642 163.278   4
  20  -4   6 1259.70 213.964   2
 -20  16   6 1392.92 230.315   3
  16   4   6 1080.55 182.720   2
 -20  16   9 198.059 201.560   1
  20  -4   9 266.887 228.007   1
  16   4   9 20.5784 192.181   1
  16   4   9-35.0194 126.215   2
  20  -4   9 33.8980 132.246   3
 -20  16   9 178.073 204.940   3
 -16  20   9-194.083 207.832   1
  20  -4   9-101.451 166.703   2
  -4 -16   9-88.0894 198.285   3
   4 -20   9 510.041 219.580   3
   3 -20  -7 109.300 96.1475   4
  20  -3  -7 174.714 245.450   2
  -3 -17  -7 25.8754 73.9834   4
  20  -3  -7 193.310 250.026   4
  17   3  -7 105.060 210.170   4
  20  -3  -4 185.282 200.201   2
  17   3  -4 247.012 223.172   2
   3 -20  -4 116.456 135.545   4
  17   3  -4 231.879 114.967   1
  20  -3  -4 346.373 218.999   4
  17   3  -4 185.261 216.305   4
 -17  20  -4 199.839 88.6663   3
 -17  20  -1 125.754 85.9197   3
  -3 -17  -1 74.0760 106.522   2
  17   3  -1-108.941 164.313   2
  -3 -17  -1-101.880 147.324   3
   3 -20  -1 86.0850 153.783   3
 -17  20  -1-146.608 160.159   1
   3 -20  -1 313.568 117.965   2
  20  -3  -1 105.346 178.566   4
  17   3  -1-60.4294 203.737   4
  20  -3  -1 0.12189 95.8065   3
  20  -3  -1 383.344 193.336   2
 -20  17  -1 118.837 45.4563   3
 -17  20   2 584.980 194.913   1
 -20  17   2 772.248 216.761   1
  -3 -17   2 869.923 195.659   3
   3 -20   2 825.083 198.692   3
 -20  17   2 767.643 146.483   3
  -3 -17   2 455.134 116.455   1
  20  -3   2 713.162 197.394   4
  17   3   2 778.899 198.776   4
  20  -3   2 945.632 201.065   2
   3 -20   2 746.948 147.554   1
  20  -3   2 699.803 95.8165   3
  17   3   2 524.718 151.786   2
  17   3   2 375.259 119.098   3
  -3 -17   5-17.2387 153.209   3
   3 -20   5 199.500 167.214   3
  20  -3   5-83.4005 91.6546   3
 -20  17   5 97.4847 166.717   1
 -17  20   5 40.1710 176.311   1
  17   3   5 385.180 205.708   1
  20  -3   5 382.324 155.831   4
  17   3   5 206.430 159.542   4
  20  -3   5 104.413 152.446   2
   3 -20   5 56.9131 79.1057   1
 -20  17   5-91.7173 129.469   3
  17   3   5-17.5158 131.040   2
 -20  17   8 334.372 215.682   1
 -17  20   8 293.248 210.837   1
  20  -3   8-151.320 202.138   1
  20  -3   8 472.379 151.476   4
  17   3   8 491.643 223.377   1
  20  -3   8 327.602 178.377   2
  20  -3   8 417.742 153.918   3
  17   3   8 150.783 131.655   2
 -20  17   8 297.689 206.548   3
  -3 -17   8 264.186 217.816   3
   3 -20   8 534.777 228.801   3
  20  -2  -8 659.394 291.132   2
  20  -2  -8 1625.49 320.807   4
  18   2  -8 1568.15 321.327   4
  18   2  -5 1915.15 312.382   2
   2 -20  -5 2025.15 229.797   4
  20  -2  -5 2112.59 332.326   4
  -2 -18  -5 1643.88 213.765   4
  18   2  -5 1501.33 173.272   1
  18   2  -5 2029.32 316.667   4
 -18  20  -5 1788.36 172.115   3
  20  -2  -5 2159.42 324.695   2
  20  -2  -2 845.511 221.807   2
 -18  20  -2 442.882 178.160   1
  18   2  -2 550.802 219.358   2
   2 -20  -2 779.275 124.893   2
  -2 -18  -2 400.670 176.462   3
   2 -20  -2 634.048 179.442   3
   2 -20  -2 844.413 117.193   2
  20  -2  -2 770.254 249.518   4
  18   2  -2 627.065 254.481   4
 -20  18  -2 499.919 57.9308   3
  20  -2  -2 633.369 140.270   3
 -18  20  -2 549.861 103.714   3
  -2 -18  -2 801.607 126.364   2
 -18  20   1 3378.73 239.323   3
   2 -20   1 3458.25 307.123   3
 -18  20   1 3397.75 322.299   1
 -20  18   1 3436.68 214.022   3
 -20  18   1 3658.06 341.691   1
  20  -2   1 3654.68 347.301   4
  18   2   1 4343.65 363.871   4
  20  -2   1 3815.59 319.316   2
  18   2   1 3874.16 316.336   2
  20  -2   1 3612.94 198.788   3
  18   2   1 3521.72 226.778   3
  -2 -18   1 3296.58 305.534   3
  20  -2   4 786.310 115.291   3
  -2 -18   4 761.839 198.180   3
   2 -20   4 716.790 213.306   3
  18   2   4 641.508 139.675   3
 -20  18   4 870.512 216.456   1
  20  -2   4 961.315 210.038   4
  18   2   4 676.562 197.212   1
  18   2   4 481.016 178.332   4
   2 -20   4 746.363 127.171   1
  20  -2   4 833.922 200.641   2
  18   2   4 842.754 175.904   2
 -18  20   4 596.955 201.423   1
  20  -2   7 3145.52 360.955   1
  18   2   7 3477.08 380.400   1
  20  -2   7 3466.29 316.766   2
  20  -2   7 3004.24 271.182   4
  18   2   7 3521.68 301.482   2
  18   2   7 3390.05 262.517   4
 -18  20   7 3518.77 369.802   1
 -20  18   7 3536.13 373.498   3
 -20  18   7 2839.30 335.844   1
  -2 -18   7 3522.79 356.572   3
   2 -20   7 3314.61 345.298   3
  20  -1  -9-232.860 225.622   4
  19   1  -9 206.981 262.264   4
  20  -1  -6 304.385 221.814   2
  19   1  -6 731.308 274.665   2
  -1 -19  -6 342.763 135.071   4
   1 -20  -6 488.486 137.473   4
  20  -1  -6 354.471 241.095   4
  19   1  -6 325.280 235.274   4
  20  -1  -3 157.091 189.660   2
  19   1  -3 194.929 184.985   2
   1 -20  -3 222.536 52.2092   2
  20  -1  -3 386.736 207.300   4
  19   1  -3-43.8074 217.548   4
 -20  19  -3 220.822 62.1159   3
  -1 -19  -3 102.329 55.2587   2
 -19  20  -3 199.396 81.3856   3
   1 -20  -3 152.480 61.3107   2
  20  -1   0 108.472 186.250   4
 -19  20   0 312.726 105.200   3
 -20  19   0 286.139 94.7761   3
  -1 -19   0 386.748 141.586   2
 -19  20   0 260.715 174.868   1
  -1 -19   0 404.969 165.671   3
   1 -20   0 111.632 155.483   3
   1 -20   0 417.151 137.761   2
  19   1   0 63.6056 184.420   4
 -20  19   0 625.791 214.785   1
  20  -1   0 216.593 99.1688   3
  19   1   0 330.733 116.297   3
  20  -1   0 419.328 173.190   2
  19   1   0 321.431 165.176   2
  19   1   3 698.889 128.847   3
  -1 -19   3 697.870 189.741   3
   1 -20   3 628.300 172.836   3
 -19  20   3 548.576 208.128   1
  -1 -19   3 632.342 131.052   1
 -20  19   3 833.760 226.609   1
  20  -1   3 682.958 194.887   4
  19   1   3 398.184 160.658   4
   1 -20   3 745.615 138.663   1
  20  -1   3 625.534 192.927   2
  19   1   3 878.705 184.787   2
  20  -1   3 766.696 116.870   3
 -20  19   6 310.402 184.387   1
  -1 -19   6 245.882 179.974   3
   1 -20   6 680.785 217.622   3
  19   1   6 679.074 235.682   1
  20  -1   6 855.911 227.614   1
  20  -1   6 574.415 169.644   4
  19   1   6 706.142 178.620   4
  20  -1   6 766.248 185.065   2
  19   1   6 579.209 171.508   2
 -19  20   6 980.046 246.549   1
  20  -1   9 126.477 222.575   1
  19   1   9 507.213 246.162   1
  20  -1   9-336.330 194.145   2
  19   1   9 82.7488 154.012   2
  20  -1   9 28.4217 144.528   3
 -19  20   9-208.817 249.072   3
 -20  19   9 381.179 229.796   3
 -19  20   9-131.407 205.410   1
 -20  19   9 35.7807 197.823   1
  -1 -19   9 67.3743 216.393   3
   1 -20   9-227.449 199.628   3
  20   0  -7 223.282 251.744   2
   0 -20  -7-51.1042 94.4105   4
  20   0  -7-277.949 268.512   4
  20   0  -4 265.116 193.268   2
  20   0  -4-107.603 204.496   4
 -20  20  -4 371.661 89.1217   3
  20   0  -1 181.510 191.482   2
   0 -20  -1 12.5930 109.477   2
   0 -20  -1-11.4410 159.890   3
 -20  20  -1 7.54212 179.372   1
  20   0  -1-88.6174 193.859   4
  20   0  -1-61.2403 111.803   3
 -20  20  -1 151.663 83.7465   3
   0 -20   2 110.279 159.928   3
 -20  20   2-77.3544 112.150   3
 -20  20   2 18.4099 173.239   1
  20   0   2 234.707 191.576   4
   0 -20   2-72.5602 126.091   1
  20   0   2-403.351 189.585   2
  20   0   2 153.251 102.551   3
 -20  20   5-239.746 184.807   1
   0 -20   5 148.443 169.429   3
  20   0   5-39.8435 174.409   1
  20   0   5 77.1703 157.988   4
  20   0   5-282.055 173.128   2
   0 -20   8 331.073 217.262   3
  20   0   8 523.675 220.252   1
  20   0   8 704.231 207.680   2
 -20  20   8 119.890 208.509   3
 -20  20   8 674.220 240.114   1
  21 -21  -6 1535.51 259.070   2
  21 -21  -6 1952.65 292.310   4
   0  21  -3-194.920 112.160   1
  21 -21  -3 52.7564 151.659   4
  21 -21  -3-165.095 154.841   2
 -21   0   0 347.578 129.338   3
   0  21   0 686.617 169.968   1
  21 -21   0 600.194 196.207   2
  21 -21   0 618.236 206.135   4
   0  21   3-61.5361 172.961   1
  21 -21   3-52.8603 153.453   2
 -21   0   3-190.350 121.199   3
  21 -21   6 453.536 207.192   4
  21 -21   6 533.458 127.683   3
   0  21   6 543.344 231.878   1
  21 -21   6 390.228 222.758   2
 -21   0   6 347.313 185.856   3
  21 -20  -7 1269.71 252.953   2
  20 -21  -7 1469.77 253.965   4
  21 -20  -7 1616.30 273.895   4
  20 -21  -7 1768.77 270.458   2
  20 -21  -4 539.046 195.733   4
  21 -20  -4 714.130 223.731   4
  -1  21  -4 705.990 132.359   1
  20 -21  -4 962.710 201.308   2
  21 -20  -4 877.019 199.637   2
   1  20  -4 834.502 129.863   1
 -20  -1  -1 5738.22 312.765   3
 -21   1  -1 5551.29 281.995   3
  20 -21  -1 5644.62 409.372   4
  21 -20  -1 6032.05 422.679   4
  20 -21  -1 4788.80 331.021   2
  21 -20  -1 5115.53 356.458   2
   1  20  -1 6070.13 342.188   1
  -1  21  -1 4768.23 313.460   1
 -20  -1   2 796.053 161.416   3
   1  20   2 483.953 170.133   1
  20 -21   2 666.904 206.885   4
  21 -20   2 785.282 237.969   4
  20 -21   2 682.548 186.285   2
  21 -20   2 411.972 178.563   2
  -1  21   2 481.607 164.934   1
 -21   1   2 770.312 167.116   3
  20 -21   5 1872.95 287.039   4
  21 -20   5 2191.75 285.969   4
  20 -21   5 2230.20 299.361   2
  21 -20   5 2441.19 305.898   2
   1  20   5 2161.69 297.431   1
  -1  21   5 2095.77 307.298   1
 -21   1   5 2212.14 261.090   3
 -20  -1   5 2194.12 264.182   3
  20 -21   5 2027.31 173.525   3
  21 -20   5 2141.89 160.648   3
  20 -21   8 174.418 126.925   3
   1  20   8 203.491 222.345   1
  -1  21   8 514.192 246.251   1
  21 -20   8 421.296 217.798   4
  20 -21   8 319.030 215.079   2
  21 -20   8 212.833 198.825   2
  20 -21   8 321.592 202.656   4
 -21   1   8 277.023 204.090   3
 -20  -1   8 296.431 223.875   3
  21 -19  -8 918.036 246.752   2
  19 -21  -8 720.183 202.730   2
  19 -21  -8 772.048 217.337   4
  21 -19  -8 716.631 233.904   4
  -2  21  -5 29.2390 82.5183   1
  19 -21  -5 105.107 155.150   4
  21 -19  -5 69.0063 183.715   4
   2  19  -5 131.567 61.3725   1
  19 -21  -5 512.400 177.197   2
  21 -19  -5 153.905 166.050   2
 -19  -2  -2 276.696 137.443   3
 -21   2  -2 164.986 98.6553   3
  19 -21  -2 416.214 177.627   4
  21 -19  -2 7.62498 152.081   4
   2  19  -2 213.740 114.449   1
  19 -21  -2-104.872 132.014   2
  21 -19  -2 119.254 140.389   2
  -2  21  -2 107.737 125.070   1
 -21   2   1 45.8478 102.349   3
 -19  -2   1 86.1141 126.834   3
  19 -21   1 151.475 158.149   4
   2  19   1 401.561 152.170   1
  21 -19   1 236.983 165.661   4
  -2  21   1 58.5241 142.002   1
  19 -21   1 184.442 142.123   2
  21 -19   1-58.6632 157.097   2
   2  19   4 963.762 227.476   1
  19 -21   4 678.635 132.461   3
  21 -19   4 377.157 66.0286   3
  -2  21   4 485.978 186.597   1
  19 -21   4 412.466 190.111   4
  21 -19   4 606.497 197.456   4
  19 -21   4 758.727 215.644   2
  21 -19   4 147.398 177.614   2
 -21   2   4 317.782 135.546   3
 -19  -2   4 544.538 165.698   3
  21 -19   7 3.21552 95.7884   3
  19 -21   7 159.022 127.747   3
   2  19   7-64.0906 209.485   1
  -2  21   7-148.234 227.831   1
  19 -21   7 138.764 182.844   4
  21 -19   7 48.8759 184.200   4
  19 -21   7 246.019 199.925   2
  21 -19   7-44.4844 183.451   2
 -21   2   7 64.3872 186.298   3
 -19  -2   7 508.189 217.474   3
  21 -18  -9 428.582 220.786   2
  18 -21  -9 190.787 174.268   4
  21 -18  -9 104.555 185.432   4
  18 -21  -6 1273.44 213.745   2
  21 -18  -6 864.695 232.738   2
  18 -21  -6 1309.25 244.164   4
  21 -18  -6 1595.18 253.980   4
  18 -21  -3 331.385 180.439   4
   3  18  -3 138.093 98.4291   1
  21 -18  -3 182.327 176.438   4
  18 -21  -3 460.192 154.159   2
  -3  21  -3 167.226 106.828   1
  21 -18  -3 158.780 144.129   2
 -21   3   0 276.198 101.296   3
 -18  -3   0 218.772 125.467   3
   3  18   0 422.925 139.717   1
  21 -18   0 580.553 173.270   4
  18 -21   0 427.329 143.986   2
  -3  21   0 177.919 151.799   1
  21 -18   0 174.164 142.153   2
  18 -21   0 239.258 171.052   4
 -18  -3   3 655.496 172.823   3
   3  18   3 898.138 210.423   1
  18 -21   3 671.084 129.969   3
  18 -21   3 285.641 165.235   4
  21 -18   3 764.695 199.132   4
  -3  21   3 492.373 197.190   1
  18 -21   3 698.804 200.466   2
  21 -18   3 633.943 185.475   2
 -21   3   3 771.883 157.943   3
  18 -21   6 184.264 183.305   4
  18 -21   6 279.266 130.454   3
  21 -18   6 278.027 92.2057   3
   3  18   6-164.788 195.130   1
  -3  21   6 100.711 180.501   1
  21 -18   6 243.835 185.238   4
  18 -21   6 85.6173 192.053   2
  21 -18   6 359.653 191.988   2
 -21   3   6 360.457 166.012   3
 -18  -3   6 680.383 207.852   3
  18 -21   9 310.550 155.625   3
   3  18   9 303.189 242.939   1
  18 -21   9 153.242 181.745   4
  18 -21   9 465.724 224.089   2
  21 -18   9 528.359 221.368   4
  -3  21   9 414.184 239.303   1
  21 -18   9 193.169 208.511   2
 -21   3   9-34.9179 201.359   3
 -18  -3   9 618.222 231.871   3
  17 -21  -7 2465.18 283.340   4
  21 -17  -7 2477.85 313.946   4
  21 -17  -7 2277.71 319.447   2
  17 -21  -7 2189.65 248.523   2
  21 -17  -4 559.686 201.543   4
  -4  21  -4 532.858 129.712   1
  17 -21  -4 744.869 201.554   4
  17 -21  -4 1028.85 175.449   2
  21 -17  -4 640.805 195.616   2
   4  17  -4 599.553 101.610   1
 -17  -4  -1 3825.67 283.062   3
 -21   4  -1 4611.88 210.969   3
  -4  21  -1 4359.36 290.693   1
  17 -21  -1 4286.80 351.859   4
  21 -17  -1 3867.97 336.427   4
  17 -21  -1 4587.38 299.125   2
  21 -17  -1 4210.30 323.563   2
   4  17  -1 4141.69 277.850   1
  17 -21   2 1446.85 177.217   3
  17 -21   2 1616.94 259.397   4
  21 -17   2 1692.55 267.926   4
  17 -21   2 1545.93 223.737   2
   4  17   2 1702.04 239.322   1
  21 -17   2 1667.44 236.277   2
 -21   4   2 1475.61 161.898   3
 -17  -4   2 1399.66 193.214   3
  -4  21   2 1872.56 241.663   1
  17 -21   5 2974.29 323.876   2
  17 -21   5 3179.62 332.439   4
  21 -17   5 2651.21 292.861   4
  21 -17   5 2706.92 308.435   2
   4  17   5 2323.69 330.183   1
 -21   4   5 2893.52 270.066   3
 -17  -4   5 2746.65 285.952   3
  -4  21   5 2765.42 323.474   1
  17 -21   5 2604.62 226.016   3
  17 -21   8 1007.47 193.775   3
   4  17   8 900.719 265.246   1
  21 -17   8 809.355 222.397   4
  17 -21   8 1280.62 264.031   4
  17 -21   8 1161.11 270.534   2
  -4  21   8 1853.20 324.119   1
  21 -17   8 700.406 229.808   2
  21 -17   8 1140.49 149.044   3
 -21   4   8 1318.60 263.268   3
 -17  -4   8 1319.75 278.368   3
  21 -16  -8 315.387 220.009   2
  16 -21  -8 667.895 177.834   4
  21 -16  -8 442.060 204.791   4
  16 -21  -5 160.954 151.824   4
  -5  21  -5 37.8411 102.978   1
  21 -16  -5 301.807 189.048   4
  16 -21  -5-156.953 136.724   2
  21 -16  -5 125.460 165.502   2
   5  16  -2 994.157 142.815   1
 -16  -5  -2 1243.88 192.590   3
  -5  21  -2 1214.23 180.791   1
  16 -21  -2 1113.91 206.582   4
  21 -16  -2 1255.20 234.136   4
  16 -21  -2 963.174 165.460   2
  21 -16  -2 1047.22 199.735   2
   5  16   1 589.325 169.692   1
 -21   5   1 407.106 102.205   3
 -16  -5   1 305.552 126.669   3
  16 -21   1 415.476 130.876   3
  16 -21   1 370.204 189.538   4
  16 -21   1 223.050 132.412   2
  21 -16   1 455.766 187.958   4
  21 -16   1-60.2660 141.825   2
  -5  21   1 418.872 171.145   1
  16 -21   4 447.599 137.420   3
  21 -16   4 52.6356 158.029   2
  16 -21   4 160.963 176.669   4
  16 -21   4 319.175 165.757   2
  -5  21   4 677.649 212.868   1
  21 -16   4 234.993 177.499   4
 -21   5   4 215.247 125.103   3
   5  16   4 314.252 166.918   1
 -16  -5   4 140.741 149.689   3
  16 -21   7 116.356 136.548   3
   5  16   7-39.7763 184.064   1
  16 -21   7-307.498 183.491   4
  21 -16   7 149.693 169.868   4
  16 -21   7-320.922 202.470   2
  -5  21   7-117.906 198.199   1
  21 -16   7-113.229 180.611   2
 -21   5   7-107.643 166.366   3
 -16  -5   7-28.4698 176.851   3
  21 -16   7-1.23862 80.3980   3
  21 -15  -9 537.666 246.300   2
  15 -21  -9 418.378 172.046   4
  21 -15  -9 538.131 234.114   4
  21 -15  -6 525.047 217.871   2
  15 -21  -6 676.274 154.641   2
 -15  -6  -6 521.484 138.348   4
  15 -21  -6 400.470 154.954   4
  21 -15  -6 502.333 202.132   4
  21 -15  -3 1211.97 230.903   4
  15 -21  -3 1172.66 214.167   4
  15 -21  -3 1068.27 162.293   2
   6  15  -3 1062.17 129.262   1
  21 -15  -3 1281.31 231.383   2
  -6  21  -3 892.662 170.344   1
  15 -21   0 1148.23 174.712   2
 -15  -6   0 1153.70 183.032   3
  15 -21   0 918.286 200.055   4
  21 -15   0 1274.88 219.141   4
   6  15   0 1321.43 192.600   1
  21 -15   0 976.451 203.963   2
  -6  21   0 760.072 175.268   1
 -21   6   0 953.812 105.163   3
 -15  -6   3 881.446 168.421   3
  15 -21   3 706.930 144.352   3
  15 -21   3 1053.43 217.703   4
  15 -21   3 719.805 205.004   2
  21 -15   3 582.244 173.422   4
  21 -15   3 687.918 187.246   2
  -6  21   3 703.732 207.480   1
 -21   6   3 843.407 150.238   3
   6  15   3 542.777 187.844   1
  15 -21   6 787.735 170.914   3
  15 -21   6 728.196 221.794   4
  15 -21   6 926.407 225.394   2
  21 -15   6 443.806 170.504   4
  21 -15   6 935.156 215.134   2
  -6  21   6 662.492 227.886   1
 -21   6   6 977.765 198.996   3
  21 -15   6 837.538 90.5545   3
 -15  -6   6 703.561 199.774   3
   6  15   6 597.296 231.368   1
   6  15   9 982.060 294.577   1
  15 -21   9 542.369 217.151   4
  21 -15   9 619.638 194.518   4
  21 -15   9 807.731 239.164   2
  -6  21   9 686.627 265.742   1
  15 -21   9 342.251 220.131   2
 -21   6   9 408.905 220.130   3
 -15  -6   9 665.425 252.213   3
  15 -21   9 588.944 188.237   3
  21 -14  -7 1271.18 296.309   2
  14 -21  -7 936.720 189.886   4
  21 -14  -7 1347.45 262.252   4
  14 -21  -7 1130.31 154.729   2
  -7  21  -4 1799.13 197.981   1
 -14  -7  -4 1592.69 182.245   2
  14 -21  -4 1729.48 231.157   4
  21 -14  -4 1410.83 249.545   4
  14 -21  -4 1689.98 178.877   2
  21 -14  -4 2007.60 282.267   2
   7  14  -4 1600.38 120.458   1
 -14  -7  -1 3031.84 261.322   3
 -21   7  -1 2446.20 104.218   3
  14 -21  -1 3182.58 308.355   4
  21 -14  -1 3283.74 328.091   4
  14 -21  -1 3239.29 239.080   2
   7  14  -1 3626.68 254.468   1
  21 -14  -1 2907.54 283.212   2
  -7  21  -1 2979.79 257.820   1
 -14  -7   2 1362.49 192.339   3
  21 -14   2 1118.52 214.451   4
  14 -21   2 834.210 162.965   3
  14 -21   2 1307.86 216.847   2
  14 -21   2 1088.19 211.527   4
  21 -14   2 1028.50 206.210   2
  -7  21   2 904.907 186.850   1
 -21   7   2 916.159 124.594   3
   7  14   2 1134.89 191.872   1
  14 -21   5 1989.42 284.781   4
  14 -21   5 2026.19 272.619   2
  21 -14   5 1841.90 259.966   4
   7  14   5 2324.54 287.627   1
  -7  21   5 1639.68 260.549   1
 -21   7   5 2194.58 234.427   3
 -14  -7   5 2204.11 269.476   3
  14 -21   5 2042.93 228.482   3
  21 -14   5 1813.94 270.174   2
  14 -21   8 980.520 207.308   3
  14 -21   8 808.633 251.211   4
  14 -21   8 1129.55 262.960   2
  21 -14   8 1157.25 224.074   4
  21 -14   8 959.184 240.175   2
  -7  21   8 1119.80 277.458   1
  21 -14   8 1141.99 148.185   3
 -21   7   8 1195.28 254.940   3
 -14  -7   8 960.386 235.488   3
   7  14   8 1292.76 277.203   1
  21 -13  -8 378.126 235.104   2
  21 -13  -8 664.089 226.001   4
  13 -21  -8 397.429 151.133   4
  21 -13  -5 466.285 210.908   2
 -13  -8  -5 62.3875 94.6605   2
  13 -21  -5 89.2636 139.203   4
 -13  -8  -5 290.336 129.403   4
  21 -13  -5 500.979 206.140   4
  13 -21  -5 254.945 113.583   2
 -13  -8  -2 2262.43 245.395   3
  13 -21  -2 1922.18 251.318   4
  21 -13  -2 2505.16 296.169   4
  13 -21  -2 2162.57 190.134   2
   8  13  -2 2639.24 205.342   1
  21 -13  -2 1947.26 255.500   2
  -8  21  -2 2348.62 227.892   1
 -13  -8  -2 2114.67 209.676   2
  21 -13   1 1048.02 218.582   4
  13 -21   1 649.091 155.968   3
  13 -21   1 881.210 171.277   2
  13 -21   1 1114.99 226.963   4
  21 -13   1 982.836 200.326   2
   8  13   1 674.774 168.970   1
 -13  -8   1 1150.93 187.707   3
 -21   8   1 658.110 93.4560   3
  -8  21   1 940.378 193.414   1
  13 -21   4 486.813 151.543   3
   8  13   4 432.901 96.8499   2
  13 -21   4 372.099 202.753   4
  13 -21   4 485.633 163.932   2
  21 -13   4 758.787 204.522   4
  21 -13   4 736.969 204.808   2
  -8  21   4 757.999 217.058   1
   8  13   4 132.775 152.528   1
 -21   8   4 752.990 170.000   3
 -13  -8   4 337.894 157.874   3
  13 -21   7 600.068 188.580   3
  13 -21   7 1310.92 254.794   4
  13 -21   7 942.859 242.904   2
  21 -13   7 670.706 209.879   2
  -8  21   7 1270.58 261.630   1
  21 -13   7 884.073 118.250   3
 -21   8   7 819.385 208.129   3
  21 -13   7 1368.31 231.858   4
   8  13   7 1193.67 290.120   1
 -13  -8   7 993.838 230.435   3
  21 -12  -9 1034.25 288.287   2
  21 -12  -9 820.400 241.009   4
  21 -12  -6 592.277 245.145   2
  12 -21  -6 264.155 84.7063   2
  12 -21  -6 199.299 130.602   4
 -12  -9  -6 115.194 99.9225   4
  21 -12  -6 419.055 202.529   4
  -9  21  -3 2467.03 241.447   1
 -12  -9  -3 2568.79 268.224   3
  12 -21  -3 2766.78 275.388   4
 -12  -9  -3 2452.20 207.825   2
  21 -12  -3 2585.61 299.098   4
   9  12  -3 2627.25 179.638   1
  12 -21  -3 2706.15 194.460   2
  21 -12  -3 2007.37 267.004   2
  12 -21   0 478.625 171.606   4
 -12  -9   0 538.895 162.947   3
   9  12   0 609.524 180.111   2
  12 -21   0 335.663 146.194   3
  -9  21   0 496.368 167.971   1
  12 -21   0 290.285 120.173   2
  21 -12   0 644.295 186.657   4
  21 -12   0 804.915 185.733   2
   9  12   0 701.849 147.779   1
 -21   9   0 482.278 62.4431   3
  -9  21   3 1527.98 238.404   1
  12 -21   3 1750.40 233.705   2
  12 -21   3 1250.36 231.504   4
  21 -12   3 1616.00 235.899   4
  21 -12   3 1830.25 248.889   2
 -21   9   3 1989.60 190.950   3
   9  12   3 1245.83 214.440   1
   9  12   3 1579.29 171.724   2
 -12  -9   3 1485.95 213.087   3
  12 -21   3 1714.08 209.681   3
  12 -21   6 282.438 156.941   3
 -21   9   6-133.790 179.674   1
   9  12   6 294.448 68.9839   2
  21 -12   6 215.998 69.5528   3
  12 -21   6-75.1868 196.090   4
  12 -21   6 464.015 193.715   2
  21 -12   6 162.836 162.984   4
  21 -12   6 354.099 190.146   2
  -9  21   6-82.6884 173.786   1
 -21   9   6 337.049 156.267   3
   9  12   6 277.194 198.971   1
  21 -12   6 205.126 60.5866   3
 -12  -9   6 361.175 192.277   3
  12 -21   9 1263.36 284.973   4
  12 -21   9 572.582 232.097   2
  21 -12   9 1037.82 221.712   4
  21 -12   9 927.620 252.046   1
  21 -12   9 1070.95 259.378   2
 -21   9   9 856.496 217.139   1
  -9  21   9 454.176 229.947   1
 -21   9   9 1182.65 262.015   3
 -12  -9   9 208.651 193.668   3
   9  12   9 498.134 244.838   1
  12 -21   9 791.936 217.223   3
  21 -11  -7 342.663 194.484   4
  21 -11  -7-39.7362 200.926   2
  11 -21  -7 442.658 146.871   4
 -10  21  -4 937.875 181.016   1
 -11 -10  -4 722.714 123.189   2
  10  11  -4 974.232 108.113   1
  21 -11  -4 821.428 226.122   4
 -11 -10  -4 754.403 170.692   4
  11 -21  -4 844.245 190.890   4
  11 -21  -4 888.886 119.545   2
  21 -11  -4 1024.03 230.412   2
  11 -21  -1 892.655 206.514   4
 -11 -10  -1 1269.71 199.690   3
  11 -21  -1 1551.68 168.347   2
  21 -11  -1 1507.64 241.403   4
 -11 -10  -1 1210.43 175.541   2
 -10  21  -1 793.123 163.268   1
  10  11  -1 1346.72 181.428   1
  21 -11  -1 1279.80 222.461   2
  10  11  -1 1287.05 231.264   2
 -10  21   2 965.503 204.983   1
 -11 -10   2 1155.39 196.801   3
  11 -21   2 1054.83 177.988   3
  11 -21   2 1220.23 195.065   2
  21 -11   2 814.413 199.917   4
  11 -21   2 1020.22 213.582   4
  21 -11   2 1133.00 208.954   2
  10  11   2 1187.22 194.037   1
 -21  10   2 992.482 123.837   3
  10  11   2 1225.44 184.925   2
 -21  10   5 1465.25 244.775   1
  11 -21   5 1185.40 235.242   4
  11 -21   5 1305.74 234.183   2
  21 -11   5 1395.47 232.920   4
  21 -11   5 1152.63 230.926   2
 -21  10   5 1277.48 222.878   3
  10  11   5 1518.19 253.038   1
  10  11   5 1378.79 150.403   2
 -10  21   5 1068.57 232.971   1
  11 -21   5 1386.31 212.794   3
 -11 -10   5 1265.15 232.626   3
  11 -21   8 1146.76 229.449   3
  11 -21   8 1043.33 246.353   2
  11 -21   8 676.157 237.239   4
  21 -11   8 590.757 183.735   4
  21 -11   8 838.358 217.542   2
  21 -11   8 1124.53 148.849   3
 -10  21   8 1218.46 255.522   1
 -21  10   8 1057.11 244.444   3
  10  11   8 1078.77 274.372   1
 -21  10   8 925.351 218.487   1
 -11 -10   8 1374.24 278.102   3
  10 -21  -8 920.810 158.696   4
  21 -10  -8 1194.77 300.880   2
  21 -10  -8 1343.19 283.464   4
  21 -10  -5 1534.95 276.239   2
 -10 -11  -5 1243.49 116.331   2
  10 -21  -5 1259.47 192.317   4
 -10 -11  -5 1332.20 182.332   4
  21 -10  -5 1170.56 246.294   4
  11  10  -5 981.585 76.1297   1
  10 -21  -5 1033.81 93.7796   2
  11  10  -5 1132.02 88.1441   1
 -10 -11  -2 1018.93 215.255   3
  11  10  -2 1027.20 220.814   2
 -11  21  -2 955.549 192.388   1
  10 -21  -2 1070.13 201.210   4
  11  10  -2 1179.65 154.522   1
  10 -21  -2 1247.53 143.261   2
  21 -10  -2 1116.57 223.884   4
 -10 -11  -2 1259.36 164.668   2
  21 -10  -2 1138.99 213.540   2
  10 -21   1 1759.49 222.933   3
 -10 -11   1 1404.58 203.987   3
  10 -21   1 1554.92 192.567   2
  10 -21   1 1182.87 231.224   4
 -11  21   1 1673.67 241.685   1
  21 -10   1 1324.92 212.849   4
  11  10   1 1240.03 194.596   1
  21 -10   1 1210.50 208.985   2
 -21  11   1 1481.60 113.065   3
  11  10   1 1445.36 203.009   2
 -10 -11   4 888.122 203.983   3
  11  10   4 837.095 149.898   2
  10 -21   4 752.391 179.497   3
 -21  11   4 357.162 179.924   1
  10 -21   4 1136.55 227.302   4
  10 -21   4 589.734 176.933   2
  21 -10   4 807.597 198.078   4
  10 -21   4 548.056 142.088   1
  21 -10   4 771.920 178.321   2
  11  10   4 1025.57 226.962   1
 -21  11   4 617.469 156.568   3
 -11  21   4 1035.74 216.063   1
  10 -21   7 487.215 176.563   3
  10 -21   7 178.637 193.745   4
  21 -10   7 194.580 177.354   4
 -21  11   7 56.1900 174.428   1
  21 -10   7 332.450 178.596   2
  11  10   7 368.525 221.043   1
 -21  11   7 372.725 184.808   3
  21 -10   7 272.151 90.9040   3
 -11  21   7 362.691 209.211   1
 -10 -11   7 449.099 204.500   3
  11  10   7 245.088 92.9556   2
  21  -9  -9 839.906 287.064   2
  21  -9  -9 558.416 239.601   4
  21  -9  -6 251.319 229.424   2
   9 -21  -6 341.066 133.276   4
  -9 -12  -6 201.786 111.981   4
  21  -9  -6 160.957 206.832   4
  -9 -12  -3 1624.06 155.277   2
  12   9  -3 1752.12 271.745   2
  -9 -12  -3 1407.54 226.493   3
   9 -21  -3 2077.41 246.917   4
 -12  21  -3 1840.65 230.004   1
  12   9  -3 1708.24 165.391   1
  21  -9  -3 2081.91 287.015   4
   9 -21  -3 1679.70 135.295   2
  21  -9  -3 1732.78 271.131   2
 -21  12   0 404.437 49.4470   3
  12   9   0 406.790 166.801   2
  -9 -12   0 508.666 160.188   3
   9 -21   0 614.332 176.823   3
   9 -21   0 705.402 196.502   4
   9 -21   0 648.403 144.428   2
  21  -9   0 645.190 192.384   4
  12   9   0 655.437 164.857   1
  12   9   0 477.728 179.381   4
 -12  21   0 673.700 182.991   1
  21  -9   0 294.323 155.035   2
 -21  12   0 322.203 40.4605   3
   9 -21   3 2315.17 256.338   2
  21  -9   3 2510.73 283.586   4
  21  -9   3 2358.53 266.148   2
 -12  21   3 2326.63 288.081   1
 -21  12   3 2585.20 302.085   1
 -21  12   3 2479.13 211.919   3
  12   9   3 2567.64 277.366   1
  12   9   3 2680.49 234.286   2
  -9 -12   3 2303.23 254.888   3
   9 -21   3 2739.30 253.039   3
   9 -21   6 224.240 160.169   3
  21  -9   6 124.447 69.2723   3
 -12  21   6 98.6942 67.8257   2
 -21  12   6 210.966 170.397   1
   9 -21   6 240.102 110.726   1
  21  -9   6 206.938 159.670   4
  21  -9   6 231.559 160.352   2
  12   9   6-119.893 168.960   1
 -21  12   6 217.665 166.666   3
  21  -9   6 122.618 65.8342   3
  12   9   6 69.9081 103.558   2
 -12  21   6 226.479 174.202   1
  -9 -12   6 233.602 186.289   3
 -21  12   9 525.451 195.921   1
   9 -21   9 901.198 263.233   4
  21  -9   9 1087.15 272.324   1
  21  -9   9 641.097 221.668   2
 -21  12   9 1062.46 275.773   3
  12   9   9 737.568 261.267   1
  21  -9   9 792.725 154.794   3
  -9 -12   9 1074.72 261.074   3
 -12  21   9 469.460 218.611   1
   9 -21   9 868.962 223.434   3
  21  -8  -7 1297.73 300.705   2
   8 -21  -7 680.762 148.783   4
  21  -8  -7 1294.12 261.975   4
  21  -8  -4 374.805 200.299   2
  13   8  -4 694.725 122.738   1
  13   8  -4 303.223 206.568   2
   8 -21  -4 756.851 170.020   4
  -8 -13  -4 563.501 87.7112   2
  13   8  -4 752.594 116.229   1
  21  -8  -4 693.108 217.700   4
  -8 -13  -4 488.010 153.629   4
  13   8  -4 727.899 227.908   4
   8 -21  -4 402.246 62.6648   2
  13   8  -1 419.037 176.752   2
 -13  21  -1 730.866 175.715   1
  -8 -13  -1 739.965 169.415   3
   8 -21  -1 997.755 191.614   3
   8 -21  -1 682.557 184.428   4
   8 -21  -1 713.965 123.178   2
  13   8  -1 916.869 160.978   1
  21  -8  -1 867.324 219.503   4
  13   8  -1 738.184 214.014   4
  21  -8  -1 600.804 201.833   2
  -8 -13  -1 833.874 152.637   2
  13   8   2 2484.23 273.344   1
  21  -8   2 2907.89 292.673   4
  13   8   2 2340.36 259.552   4
 -13  21   2 2342.78 267.483   1
  21  -8   2 2248.33 268.061   2
 -21  13   2 2244.22 288.148   1
 -21  13   2 2100.90 170.727   3
  13   8   2 2498.96 243.806   2
  -8 -13   2 2312.77 260.105   3
   8 -21   2 2287.38 246.964   3
  -8 -13   5 253.794 156.888   3
   8 -21   5 388.705 184.626   3
 -13  21   5 112.359 170.517   1
  21  -8   5 148.143 50.2158   3
 -21  13   5 17.7762 179.691   1
 -13  21   5 161.968 82.6433   2
  21  -8   5 117.866 158.398   4
  21  -8   5 168.622 164.389   2
  13   8   5 327.971 202.272   1
 -21  13   5 498.979 162.462   3
   8 -21   5 306.164 115.372   1
  21  -8   5 205.381 51.8197   3
  13   8   5 344.183 132.626   2
   8 -21   8 657.744 219.771   3
  21  -8   8 1043.96 241.179   1
 -13  21   8 1055.13 266.699   1
  21  -8   8 601.538 176.595   4
  21  -8   8 970.663 231.846   2
  13   8   8 1031.63 256.420   1
 -21  13   8 1071.37 257.530   3
  21  -8   8 758.268 134.772   3
 -21  13   8 664.383 220.248   1
  13   8   8 820.879 144.582   2
  -8 -13   8 804.842 244.563   3
  21  -7  -8 1748.36 338.201   2
   7 -21  -8 1115.76 147.877   4
  21  -7  -8 1558.09 294.337   4
   7 -21  -5 1992.41 224.280   4
  14   7  -5 1632.90 128.507   1
  -7 -14  -5 1711.20 205.145   4
  21  -7  -5 2076.45 297.681   4
  14   7  -5 2374.53 339.209   4
  14   7  -5 1482.03 132.726   1
  21  -7  -5 1795.21 309.378   2
  14   7  -2 927.764 237.901   2
  -7 -14  -2 797.984 211.525   3
  14   7  -2 1144.94 167.218   1
   7 -21  -2 1015.88 193.539   4
   7 -21  -2 972.683 118.348   2
  21  -7  -2 1016.40 233.351   4
  14   7  -2 1097.37 264.743   4
  -7 -14  -2 835.105 139.575   2
 -14  21  -2 953.640 157.623   3
 -14  21  -2 1031.32 201.177   1
  21  -7  -2 806.504 216.932   2
   7 -21   1 3344.51 286.894   3
   7 -21   1 3244.01 266.479   2
  21  -7   1 3253.34 322.674   4
  14   7   1 2947.60 304.950   4
  21  -7   1 3492.22 302.158   2
  14   7   1 3578.10 303.315   1
 -14  21   1 2869.18 292.094   1
 -21  14   1 3304.04 171.682   3
  14   7   1 3447.61 292.921   2
 -21  14   1 3079.11 314.821   1
  -7 -14   1 2706.57 276.889   3
  21  -7   4 1739.99 247.144   2
   7 -21   4 1347.27 223.212   3
  14   7   4 1835.28 268.620   1
 -14  21   4 1339.45 155.539   2
 -14  21   4 1563.76 251.652   1
 -21  14   4 2003.85 270.500   1
  14   7   4 2034.49 237.170   4
  21  -7   4 1490.01 228.807   4
   7 -21   4 1406.38 164.839   1
 -21  14   4 1552.46 199.246   3
  14   7   4 1589.14 194.149   2
  21  -7   4 1103.82 66.2059   3
  -7 -14   4 1719.88 244.014   3
   7 -21   7 992.019 223.298   3
 -14  21   7 1137.15 243.628   1
  21  -7   7 1546.79 231.337   4
  21  -7   7 1016.65 224.981   2
  14   7   7 1088.32 261.485   1
 -21  14   7 1290.19 254.273   1
  21  -7   7 1099.65 144.652   3
 -21  14   7 1052.24 234.507   3
  14   7   7 1180.29 169.591   2
  -7 -14   7 1247.72 250.731   3
  21  -6  -9 721.120 264.570   4
  21  -6  -6 524.141 249.693   2
   6 -21  -6 787.293 162.290   4
  15   6  -6 538.148 76.3520   1
  -6 -15  -6 703.763 145.157   4
  21  -6  -6 646.686 242.954   4
  15   6  -6 591.174 257.414   4
  15   6  -6 540.730 78.3236   1
  21  -6  -3 797.388 249.412   2
  15   6  -3 936.056 230.050   2
  -6 -15  -3 745.347 199.317   3
   6 -21  -3 735.476 187.603   4
  15   6  -3 740.098 138.645   1
   6 -21  -3 646.886 81.4126   2
 -15  21  -3 693.251 193.178   1
  21  -6  -3 763.358 238.702   4
  15   6  -3 420.195 199.086   4
  -6 -15  -3 665.885 107.069   2
 -15  21  -3 524.085 125.191   3
  -6 -15   0 979.222 175.351   2
  15   6   0 1221.20 221.659   2
 -15  21   0 916.375 149.351   3
  -6 -15   0 803.506 191.009   3
 -15  21   0 546.113 171.375   1
   6 -21   0 972.543 199.285   3
   6 -21   0 1322.06 169.902   2
  21  -6   0 1270.09 240.763   4
  15   6   0 1039.78 184.938   1
  15   6   0 1415.18 255.932   4
  21  -6   0 993.717 107.882   3
 -21  15   0 929.760 75.7523   3
  21  -6   0 1115.14 211.701   2
 -21  15   0 953.863 81.6865   3
  -6 -15   3 1035.67 202.096   3
 -21  15   3 1500.96 263.143   1
   6 -21   3 953.675 202.747   3
 -15  21   3 993.244 157.256   2
  15   6   3 1480.47 250.738   1
 -15  21   3 1110.10 227.004   1
  21  -6   3 1305.18 236.286   4
   6 -21   3 1006.93 161.148   1
  15   6   3 1198.34 210.984   4
  21  -6   3 1060.57 213.132   2
 -21  15   3 1213.17 160.033   3
  21  -6   3 766.839 57.0975   3
  15   6   3 1004.82 182.047   2
  -6 -15   6 658.586 210.823   3
   6 -21   6 285.522 168.941   3
 -15  21   6 106.076 174.310   1
  21  -6   6 482.743 180.431   4
  15   6   6 782.128 234.686   1
  21  -6   6 469.345 189.726   2
 -21  15   6 436.384 208.323   1
  21  -6   6 523.203 105.634   3
 -21  15   6 441.178 179.952   3
  15   6   6 196.725 123.342   2
 -21  15   9 316.063 203.254   1
 -15  21   9 320.817 229.323   1
  21  -6   9 121.259 222.367   1
  21  -6   9 506.260 201.208   2
  15   6   9 486.883 241.998   1
 -21  15   9 530.719 235.576   3
  21  -6   9 274.458 139.162   3
  -6 -15   9 465.782 237.494   3
   6 -21   9 388.872 207.685   3
  21  -5  -7 286.995 256.754   2
  -5 -16  -7 170.902 83.3096   4
   5 -21  -7 5.06418 102.304   4
  21  -5  -7 65.3908 204.815   4
   5 -21  -4 429.067 151.085   4
  21  -5  -4 257.401 208.468   2
  16   5  -4 283.829 202.988   2
  -5 -16  -4 182.175 36.3702   2
  21  -5  -4 359.838 213.319   4
  16   5  -4 417.877 215.886   4
 -16  21  -4 275.146 114.412   3
  16   5  -4 517.265 129.737   1
 -16  21  -1 405.507 115.725   3
  16   5  -1 569.280 202.465   2
  -5 -16  -1 446.374 181.117   3
   5 -21  -1 366.796 166.480   3
   5 -21  -1 411.630 114.958   2
  21  -5  -1 756.080 234.102   4
  16   5  -1 838.781 231.342   4
  21  -5  -1 502.436 112.674   3
 -16  21  -1 152.241 142.140   1
  21  -5  -1 542.961 189.228   2
  -5 -16  -1 292.649 117.390   2
  -5 -16   2 1302.09 219.782   3
   5 -21   2 1410.16 219.910   3
  16   5   2 1879.06 252.987   1
  21  -5   2 1281.88 232.679   4
  16   5   2 1135.56 223.028   4
 -21  16   2 1217.07 139.976   3
 -21  16   2 1653.73 248.358   1
  16   5   2 1466.13 222.374   2
  21  -5   2 1086.60 86.7153   3
  21  -5   2 1192.18 217.814   2
 -16  21   2 1290.53 239.647   1
  -5 -16   5-108.001 156.353   3
   5 -21   5 29.4417 154.985   3
  21  -5   5 153.178 80.1099   3
 -16  21   5 271.633 119.084   2
 -16  21   5 250.825 198.411   1
  16   5   5-112.330 200.172   1
  21  -5   5 266.997 160.843   4
  16   5   5 98.7200 137.857   4
 -21  16   5 116.844 189.597   1
  21  -5   5 217.630 162.011   2
 -21  16   5 252.856 149.482   3
  16   5   5 94.3115 125.460   2
   5 -21   5 111.139 92.2960   1
   5 -21   8 337.953 207.246   3
 -16  21   8 457.495 240.338   1
 -21  16   8 60.5631 177.011   1
  21  -5   8 223.788 192.460   1
  21  -5   8 331.446 148.635   4
  21  -5   8 490.231 190.639   2
  16   5   8 105.009 194.818   1
  21  -5   8 328.187 127.747   3
 -21  16   8 134.384 177.349   3
  16   5   8 417.339 144.007   2
  -5 -16   8 389.628 214.356   3
  21  -4  -8 1521.46 331.497   2
  21  -4  -8 1537.84 320.940   4
   4 -21  -5 2446.08 243.717   4
  21  -4  -5 2667.34 341.152   4
  -4 -17  -5 2146.98 238.532   4
  17   4  -5 2937.80 364.251   4
  17   4  -5 2047.23 186.481   1
 -17  21  -5 1947.07 191.556   3
  21  -4  -5 2356.97 336.997   2
  17   4  -5 2393.46 355.098   2
  -4 -17  -2 1456.90 258.246   3
   4 -21  -2 1388.09 237.260   3
   4 -21  -2 1699.39 141.938   2
  17   4  -2 1505.63 280.129   4
 -17  21  -2 1507.84 247.835   1
  21  -4  -2 1413.91 274.002   4
  -4 -17  -2 1536.78 157.659   2
  21  -4  -2 1423.46 181.338   3
 -17  21  -2 1464.35 154.270   3
  17   4  -2 1732.48 273.004   2
   4 -21  -2 1594.64 165.377   2
  21  -4  -2 1495.20 257.628   2
   4 -21   1 3548.29 308.849   3
 -21  17   1 3619.68 206.426   3
  21  -4   1 4128.93 352.489   4
  17   4   1 4512.68 375.524   4
 -21  17   1 4267.59 362.260   1
  21  -4   1 4302.64 357.001   2
  21  -4   1 3559.17 177.743   3
  17   4   1 3777.25 315.877   2
 -17  21   1 3142.13 310.982   1
  -4 -17   1 3537.81 306.308   3
 -17  21   1 3619.52 254.227   3
  21  -4   4 481.973 88.9851   3
  -4 -17   4 313.977 165.456   3
   4 -21   4 593.687 188.891   3
  17   4   4 826.519 229.318   1
  21  -4   4 859.195 203.504   4
  17   4   4 863.361 207.871   4
 -21  17   4 698.693 217.265   1
 -17  21   4 628.630 184.719   1
 -21  17   4 461.677 145.265   3
  21  -4   4 712.591 185.217   2
   4 -21   4 868.926 140.871   1
  17   4   4 893.290 176.823   2
  21  -4   7 2638.11 343.069   1
  17   4   7 2467.35 354.203   1
  21  -4   7 2262.15 274.229   2
  21  -4   7 2714.37 268.579   4
 -17  21   7 2450.95 323.622   1
  17   4   7 2602.52 257.187   2
  17   4   7 2373.76 221.807   4
  21  -4   7 2451.94 214.685   3
 -21  17   7 2483.77 314.519   3
  -4 -17   7 2280.95 297.632   3
   4 -21   7 2206.90 320.247   3
 -21  17   7 2155.55 302.728   1
  21  -3  -9 503.732 260.368   4
  21  -3  -6-136.840 219.718   2
  18   3  -6 650.606 246.645   2
  -3 -18  -6 176.392 115.713   4
   3 -21  -6 489.902 140.565   4
  21  -3  -6 309.494 216.729   4
  18   3  -6 358.455 225.999   4
  21  -3  -3 697.432 221.482   2
  18   3  -3 396.653 222.137   2
  -3 -18  -3 550.114 194.881   3
   3 -21  -3 617.095 68.6810   2
  -3 -18  -3 662.221 94.6276   2
  21  -3  -3 707.306 254.824   4
  18   3  -3 825.977 254.457   4
   3 -21  -3 536.785 80.3962   2
 -18  21  -3 838.284 123.841   3
  18   3   0 473.139 201.507   2
  -3 -18   0 437.951 156.615   2
 -18  21   0 187.957 105.717   3
 -21  18   0 307.079 77.0876   3
  -3 -18   0 159.594 147.229   3
   3 -21   0 616.616 185.308   3
   3 -21   0 364.640 145.518   2
  21  -3   0 417.194 187.277   4
  18   3   0 114.326 190.832   4
 -18  21   0 250.153 163.762   1
 -21  18   0 197.912 184.167   1
  21  -3   0 450.451 105.156   3
  21  -3   0 459.606 177.874   2
  18   3   3 310.548 113.608   3
  -3 -18   3 572.963 186.632   3
   3 -21   3-7.09807 163.006   3
  -3 -18   3 202.225 104.216   1
  18   3   3 234.901 188.097   1
  21  -3   3 180.801 166.052   4
  18   3   3 36.8680 163.871   4
  21  -3   3 372.815 181.045   2
 -21  18   3 136.843 177.154   1
   3 -21   3 203.281 118.677   1
  18   3   3 23.9656 145.218   2
 -18  21   3 32.6005 161.097   1
  21  -3   3 372.151 91.8818   3
  -3 -18   6 1547.18 254.332   3
   3 -21   6 734.403 207.135   3
 -21  18   6 975.615 251.564   1
  21  -3   6 977.215 257.952   1
  18   3   6 1336.18 286.900   1
  21  -3   6 999.806 199.614   4
  18   3   6 1225.57 194.882   4
 -18  21   6 1075.43 271.281   1
  21  -3   6 962.617 206.602   2
 -21  18   6 1300.95 238.639   3
  18   3   6 1303.82 202.436   2
   3 -21   9 82.8554 199.241   3
 -21  18   9-247.134 209.201   1
  21  -3   9 400.542 239.201   1
 -18  21   9-52.7793 206.989   1
  21  -3   9 439.711 186.873   2
  18   3   9 383.986 239.561   1
 -18  21   9 458.997 249.296   3
  18   3   9-280.713 172.368   2
  21  -3   9-3.95430 137.283   3
 -21  18   9 14.2550 213.302   3
  -3 -18   9 70.9152 194.119   3
  21  -2  -7-4.84200 270.924   2
  19   2  -7 212.053 278.885   2
  -2 -19  -7 71.9406 92.2139   4
   2 -21  -7-36.0280 101.593   4
  21  -2  -7-220.184 245.129   4
  19   2  -7 334.708 229.760   4
  21  -2  -4 630.723 244.149   2
  19   2  -4 619.063 234.741   2
   2 -21  -4 693.778 186.669   4
  21  -2  -4 641.957 262.550   4
  19   2  -4 843.292 269.766   4
 -19  21  -4 413.039 102.972   3
 -19  21  -1 62.6703 84.8558   3
  19   2  -1-363.367 202.862   2
  -2 -19  -1 76.2009 116.968   2
   2 -21  -1 48.2393 114.551   2
  -2 -19  -1 70.4340 158.256   3
   2 -21  -1 20.4392 178.999   3
 -21  19  -1 437.823 208.684   1
  21  -2  -1 287.371 223.779   4
  19   2  -1 125.357 192.317   4
 -19  21  -1 177.998 173.266   1
  21  -2  -1 197.867 120.199   3
 -21  19  -1-38.8086 57.3399   3
  21  -2  -1-97.2052 184.430   2
  -2 -19   2-36.3142 165.723   3
   2 -21   2 95.4476 165.749   3
 -21  19   2 107.378 113.283   3
 -19  21   2 90.1064 156.683   1
  -2 -19   2 32.1060 111.464   1
  21  -2   2-366.243 187.427   4
  19   2   2-10.5439 168.472   4
  21  -2   2 103.513 150.453   2
  21  -2   2 71.4775 78.3288   3
  19   2   2-54.2870 143.037   2
  19   2   2 24.7484 102.375   3
 -21  19   2-129.622 177.449   1
  -2 -19   5 48.1688 167.791   3
   2 -21   5 246.699 182.208   3
  21  -2   5-36.5998 92.4942   3
 -21  19   5 33.5845 175.748   1
  19   2   5-227.376 186.001   1
   2 -21   5 114.128 78.9247   1
  21  -2   5 174.460 149.920   4
  19   2   5-61.4330 155.077   4
  21  -2   5 501.368 179.429   2
  19   2   5 56.9980 146.757   2
 -19  21   5 414.797 229.296   1
  -2 -19   8 322.441 206.359   3
   2 -21   8 614.459 218.822   3
 -21  19   8 743.620 235.579   1
  21  -2   8 816.013 250.262   1
  19   2   8 937.097 267.601   1
  21  -2   8 981.944 220.686   2
  21  -2   8 846.045 179.466   3
 -19  21   8 855.528 260.278   1
 -21  19   8 761.688 251.462   3
  19   2   8 746.974 195.275   2
  21  -1  -8 432.009 288.888   2
  21  -1  -8 463.460 241.796   4
  20   1  -8 579.060 266.738   4
  20   1  -5 2038.27 340.233   2
   1 -21  -5 2865.39 272.499   4
  21  -1  -5 2601.47 376.350   4
  20   1  -5 2749.02 370.128   4
 -20  21  -5 1819.43 164.848   3
  21  -1  -5 2741.25 364.640   2
  21  -1  -2 478.392 199.445   2
   1 -21  -2 676.348 130.559   2
  20   1  -2 430.077 203.956   2
  -1 -20  -2 372.515 203.008   3
   1 -21  -2 691.924 206.972   3
  21  -1  -2 93.9037 202.975   4
  20   1  -2 566.644 226.881   4
 -20  21  -2 589.911 183.654   1
 -21  20  -2 408.984 72.8330   3
 -20  21  -2 556.080 100.123   3
  -1 -20  -2 336.709 105.118   2
  -1 -20   1 6015.14 406.592   3
 -21  20   1 5731.79 283.996   3
   1 -21   1 5959.57 406.398   3
 -20  21   1 5563.59 415.371   1
 -21  20   1 5090.80 397.289   1
  21  -1   1 5835.07 431.105   4
  20   1   1 5856.60 426.939   4
  21  -1   1 5961.30 404.311   2
  20   1   1 5366.58 389.365   2
  21  -1   1 5645.03 268.191   3
  20   1   1 4967.09 271.926   3
 -20  21   1 5265.78 284.794   3
  21  -1   4 662.511 124.127   3
   1 -21   4 850.133 143.090   1
  20   1   4 539.714 132.266   3
  -1 -20   4 572.451 183.729   3
   1 -21   4 695.657 206.014   3
 -20  21   4 665.160 218.319   1
  20   1   4 924.509 232.954   1
  -1 -20   4 529.256 113.201   1
 -21  20   4 550.450 228.466   1
  21  -1   4 724.304 209.813   4
  20   1   4 967.330 225.049   4
  21  -1   4 733.326 196.770   2
  20   1   4 775.962 190.059   2
  20   1   7 1084.07 192.648   4
  -1 -20   7 1172.62 261.500   3
   1 -21   7 1130.36 263.482   3
 -21  20   7 1000.91 256.911   1
  20   1   7 2051.22 329.631   1
  21  -1   7 1561.56 236.630   4
  21  -1   7 1487.77 289.238   1
  21  -1   7 1628.53 254.285   2
 -21  20   7 1150.66 255.328   3
  20   1   7 1677.04 229.105   2
 -20  21   7 1585.65 300.527   1
  21   0  -6 316.826 258.694   2
   0 -21  -6 457.925 147.225   4
  21   0  -6 371.402 238.670   4
  21   0  -3 181.603 218.696   2
   0 -21  -3 22.6803 51.2700   2
  21   0  -3 85.4390 198.964   4
 -21  21  -3-35.8907 62.5187   3
   0 -21  -3 41.1440 61.0733   2
 -21  21   0 586.803 117.966   3
   0 -21   0 1199.53 232.454   3
  21   0   0 718.973 224.291   4
 -21  21   0 458.195 214.780   1
  21   0   0 686.614 139.956   3
  21   0   0 475.436 197.503   2
   0 -21   3 214.260 193.642   3
 -21  21   3-157.658 189.109   1
   0 -21   3 44.3100 112.325   1
  21   0   3 14.5510 173.577   4
  21   0   3-85.7509 155.012   2
  21   0   3 117.698 105.197   3
 -21  21   6 1857.77 296.819   1
   0 -21   6 1543.96 265.080   3
  21   0   6 2774.50 361.603   1
  21   0   6 2242.33 264.005   4
  21   0   6 2211.58 270.460   2
  22 -22  -7-247.120 194.957   2
  22 -22  -7-99.1665 203.047   4
   0  22  -4 2624.85 210.821   1
  22 -22  -4 2225.96 262.433   2
 -22   0  -1 120.807 126.590   3
  22 -22  -1 178.136 186.758   4
   0  22  -1 29.2601 132.565   1
  22 -22  -1 191.403 168.021   2
  22 -22   2 1751.48 256.586   2
  22 -22   2 1852.49 275.831   4
   0  22   2 1564.98 262.081   1
 -22   0   2 1343.86 194.308   3
  22 -22   5-18.4362 85.8644   3
   0  22   5 28.9325 179.464   1
  22 -22   5 35.2995 169.856   4
  22 -22   5-97.6935 167.197   2
 -22   0   5 13.3515 168.618   3
  22 -22   8 1245.98 275.365   4
  22 -22   8 550.824 238.526   2
   0  22   8 1481.10 315.904   1
 -22   0   8 947.840 264.002   3
  22 -21  -8-221.536 207.786   2
  21 -22  -8 122.733 173.460   2
  22 -21  -8-184.613 205.300   4
  21 -22  -8-291.526 206.977   4
   1  21  -5 732.127 111.174   1
  21 -22  -5 1090.04 254.611   4
  22 -21  -5 1309.77 266.567   4
  -1  22  -5 820.232 127.305   1
  21 -22  -5 1119.49 226.997   2
  22 -21  -5 1127.65 234.505   2
 -21  -1  -2 116.535 130.960   3
 -22   1  -2 229.486 106.233   3
  21 -22  -2 279.051 195.227   4
  22 -21  -2 340.267 191.387   4
   1  21  -2 296.522 130.961   1
  21 -22  -2 463.029 171.618   2
  22 -21  -2 209.257 150.128   2
  -1  22  -2 235.931 128.432   1
 -22   1   1 802.058 158.277   3
 -21  -1   1 594.609 149.596   3
  22 -21   1 747.214 220.337   4
   1  21   1 710.647 186.935   1
  -1  22   1 616.222 190.526   1
  21 -22   1 374.802 184.510   4
  21 -22   1 809.228 197.918   2
  22 -21   1 734.725 201.610   2
  21 -22   4 78.0504 93.2842   3
   1  21   4-118.972 183.438   1
  22 -21   4 30.4534 62.4387   3
  -1  22   4 123.269 182.872   1
  21 -22   4 75.0300 166.582   4
  22 -21   4-372.192 199.484   4
  21 -22   4-60.3040 169.844   2
  22 -21   4 451.482 185.568   2
 -22   1   4-138.488 130.604   3
 -21  -1   4-3.79054 133.148   3
  21 -22   7 457.719 211.293   4
  21 -22   7 368.305 137.127   3
   1  21   7 537.079 237.364   1
  -1  22   7 639.863 249.532   1
  22 -21   7 218.398 206.134   4
  21 -22   7 355.982 227.422   2
  22 -21   7 548.657 240.596   2
 -22   1   7 687.344 216.945   3
 -21  -1   7 596.805 202.371   3
  20 -22  -6 691.676 204.218   2
  22 -20  -6 457.043 215.145   2
  20 -22  -6 236.859 178.623   4
  22 -20  -6 677.242 245.196   4
  -2  22  -3-29.4413 116.754   1
  20 -22  -3 456.768 200.646   4
  22 -20  -3 527.444 194.768   4
  20 -22  -3 351.429 153.414   2
  22 -20  -3 39.2030 151.342   2
   2  20  -3 133.371 99.6203   1
 -22   2   0 76.7013 98.5936   3
 -20  -2   0 60.7408 133.583   3
   2  20   0-23.2178 129.011   1
  20 -22   0 300.622 193.487   4
  20 -22   0 183.666 146.039   2
  -2  22   0 253.846 155.730   1
  22 -20   0 335.093 206.825   4
  22 -20   0-12.9103 141.578   2
 -20  -2   3 131.804 122.507   3
  22 -20   3 535.500 194.880   4
   2  20   3 705.784 206.298   1
  20 -22   3 507.232 121.875   3
  20 -22   3 679.837 213.351   4
  -2  22   3 493.337 196.680   1
  20 -22   3 558.882 183.882   2
  22 -20   3 616.223 197.033   2
 -22   2   3 183.540 118.357   3
  20 -22   6 170.036 121.635   3
  22 -20   6 120.475 79.8850   3
   2  20   6 498.517 236.095   1
  -2  22   6 258.081 195.839   1
  22 -20   6 272.436 189.778   4
  20 -22   6 285.121 212.975   2
  22 -20   6-41.9078 181.613   2
  20 -22   6 354.859 183.816   4
 -22   2   6 808.723 203.903   3
 -20  -2   6 297.740 184.886   3
  22 -19  -7 180.088 200.158   2
  19 -22  -7-96.9162 164.789   2
  19 -22  -7-39.6238 164.637   4
  22 -19  -7 304.783 187.222   4
  22 -19  -4 1310.13 256.357   4
   3  19  -4 980.959 130.722   1
  19 -22  -4 1136.28 218.895   4
  -3  22  -4 1147.46 166.914   1
  19 -22  -4 925.887 183.700   2
  22 -19  -4 1427.44 235.252   2
 -19  -3  -1 53.6988 131.468   3
 -22   3  -1 82.8850 91.4443   3
   3  19  -1 287.175 145.504   1
  19 -22  -1 114.791 167.454   4
  22 -19  -1 89.4273 154.113   4
  19 -22  -1 155.491 133.553   2
  22 -19  -1 62.6264 161.547   2
  -3  22  -1 83.7627 122.113   1
  22 -19   2 3617.93 327.367   2
  19 -22   2 2978.40 211.755   3
  19 -22   2 3096.90 336.369   4
  22 -19   2 2927.50 314.132   4
   3  19   2 3601.77 322.999   1
 -22   3   2 3360.57 235.322   3
  -3  22   2 3706.37 327.827   1
  19 -22   2 3331.67 310.182   2
 -19  -3   2 3451.72 267.056   3
   3  19   5 261.538 203.233   1
  19 -22   5-131.847 118.420   3
  22 -19   5 58.4832 172.787   2
  22 -19   5 29.7655 49.5610   3
  19 -22   5-128.902 177.643   4
  -3  22   5 172.874 196.945   1
  22 -19   5 111.132 174.486   4
  19 -22   5-280.087 202.532   2
 -22   3   5 200.330 158.094   3
 -19  -3   5 93.3391 151.703   3
  22 -19   8 2734.60 356.398   2
  19 -22   8 1627.91 282.517   4
  19 -22   8 2127.98 324.266   2
  -3  22   8 1935.91 339.674   1
   3  19   8 2194.96 350.603   1
  22 -19   8 1976.64 287.596   4
 -22   3   8 1424.91 275.307   3
  19 -22   8 1977.47 236.750   3
 -19  -3   8 1660.95 294.198   3
  22 -18  -8 591.921 253.194   2
  18 -22  -8-24.4624 142.120   2
  18 -22  -8 175.320 167.105   4
  22 -18  -8 52.2634 183.480   4
  -4  22  -5-43.3675 98.9331   1
   4  18  -5 110.839 48.0301   1
  18 -22  -5-35.0298 151.955   4
  22 -18  -5-69.3082 178.762   4
  18 -22  -5-38.3228 138.812   2
  22 -18  -5-19.4110 162.848   2
  -4  22  -2 240.230 131.252   1
 -18  -4  -2 591.658 171.934   3
  18 -22  -2 387.282 174.885   4
   4  18  -2 657.646 134.276   1
  22 -18  -2 165.157 196.137   4
  18 -22  -2 253.777 141.232   2
  22 -18  -2 264.633 168.529   2
 -22   4   1 79.9033 97.1638   3
 -18  -4   1 202.055 130.534   3
   4  18   1 468.731 164.178   1
  18 -22   1 342.274 178.854   4
  22 -18   1-74.3986 177.330   4
  18 -22   1 136.217 131.184   2
  -4  22   1 547.690 181.838   1
  22 -18   1 398.956 161.552   2
   4  18   4 181.753 190.743   1
  18 -22   4-12.0014 159.606   2
  18 -22   4-1.44507 107.825   3
  18 -22   4 158.220 188.176   4
  22 -18   4-205.856 163.952   4
  -4  22   4-161.509 171.425   1
  22 -18   4 227.474 173.777   2
 -22   4   4 1.45362 113.817   3
 -18  -4   4 181.518 145.764   3
  22 -18   7 144.246 86.7316   3
  18 -22   7 346.033 156.667   3
   4  18   7-289.441 222.965   1
  18 -22   7 57.7525 175.417   4
  18 -22   7 351.398 207.658   2
  22 -18   7 193.713 182.754   4
  22 -18   7-353.907 226.675   2
 -22   4   7-45.7216 165.052   3
 -18  -4   7-92.6595 167.421   3
  -4  22   7-91.7355 214.981   1
  22 -17  -9-104.013 211.777   2
  17 -22  -9 289.169 165.032   4
  22 -17  -9 430.930 217.674   4
  17 -22  -6 281.048 159.830   2
  22 -17  -6 479.069 226.150   2
  17 -22  -6-54.8491 155.931   4
  22 -17  -6 208.827 184.412   4
   5  17  -3 968.384 129.761   1
  22 -17  -3 814.130 225.732   4
  17 -22  -3 820.515 219.764   4
  17 -22  -3 934.805 173.132   2
  -5  22  -3 559.405 137.891   1
  22 -17  -3 928.542 210.623   2
   5  17   0 145.372 137.329   1
 -22   5   0 193.199 91.7923   3
 -17  -5   0-9.71099 125.413   3
  17 -22   0 0.74860 168.845   4
  22 -17   0 169.389 187.686   4
  17 -22   0 195.723 150.859   2
  22 -17   0 437.520 178.796   2
  -5  22   0 72.7044 124.531   1
   5  17   3 563.034 185.018   1
 -17  -5   3 490.149 162.311   3
  17 -22   3 257.953 116.035   3
  17 -22   3 471.984 208.166   4
  22 -17   3 431.738 191.698   4
  17 -22   3 368.769 183.445   2
  -5  22   3 444.607 189.669   1
  22 -17   3 375.786 186.816   2
 -22   5   3 278.945 118.647   3
  17 -22   6 566.591 191.107   2
   5  17   6 226.672 198.952   1
  17 -22   6 397.884 155.262   3
  22 -17   6 477.107 75.3975   3
  17 -22   6 494.199 192.573   4
  22 -17   6 520.206 190.161   4
  -5  22   6 986.766 243.309   1
  22 -17   6 605.745 219.758   2
 -22   5   6 393.212 179.652   3
 -17  -5   6 985.387 220.909   3
  17 -22   9 737.418 199.698   3
   5  17   9 1076.72 303.894   1
  17 -22   9 285.191 194.004   4
  22 -17   9 752.315 234.955   4
  22 -17   9 500.770 224.075   2
  -5  22   9 1091.62 321.470   1
  17 -22   9 328.522 237.785   2
 -22   5   9 434.178 236.138   3
 -17  -5   9 724.106 260.010   3
  22 -16  -7 203.089 219.961   2
  16 -22  -7 183.839 129.842   2
  16 -22  -7 546.080 186.836   4
  -6  22  -4 2531.05 230.526   1
  16 -22  -4 2583.10 276.446   4
  22 -16  -4 2226.55 300.248   4
  16 -22  -4 2053.39 219.409   2
  22 -16  -4 2634.26 311.920   2
   6  16  -4 2431.82 154.996   1
   6  16  -1-67.5959 115.143   1
  -6  22  -1 229.726 144.650   1
 -16  -6  -1 119.747 139.256   3
 -22   6  -1 137.310 62.5715   3
  16 -22  -1 124.073 166.401   4
  22 -16  -1 359.733 183.373   4
  16 -22  -1 36.0906 121.176   2
  22 -16  -1 219.106 158.658   2
  -6  22   2 2493.48 285.578   1
  16 -22   2 3011.77 248.835   3
  16 -22   2 2545.87 294.643   4
  16 -22   2 2468.97 272.532   2
  22 -16   2 3322.40 332.400   4
  22 -16   2 3355.89 322.998   2
   6  16   2 3130.15 294.067   1
 -22   6   2 2879.78 199.120   3
 -16  -6   2 3066.55 266.133   3
  16 -22   5-33.2045 120.312   3
  16 -22   5 289.356 196.534   4
  16 -22   5 46.6525 159.272   2
  22 -16   5 209.265 155.461   4
  22 -16   5 124.952 164.885   2
  -6  22   5 295.910 185.230   1
 -22   6   5 339.915 163.957   3
   6  16   5 247.440 184.384   1
 -16  -6   5 9.80588 145.676   3
  16 -22   8 3313.30 365.854   4
  16 -22   8 2644.38 339.035   2
  22 -16   8 2831.20 331.164   4
   6  16   8 2952.51 393.983   1
 -22   6   8 3633.88 386.102   3
 -16  -6   8 2702.13 345.041   3
  22 -16   8 2668.72 338.911   2
  16 -22   8 2534.58 273.341   3
  -6  22   8 2656.38 353.733   1
  22 -15  -8 135.927 239.743   2
  15 -22  -8 243.556 155.660   4
  22 -15  -8 224.315 200.975   4
  22 -15  -5-34.4043 160.656   2
  -7  22  -5 348.818 137.979   1
 -15  -7  -5 118.715 104.082   2
  15 -22  -5 242.558 159.422   4
  22 -15  -5 409.596 211.402   4
  15 -22  -5-53.7092 132.301   2
 -15  -7  -2 1964.52 245.914   3
  15 -22  -2 2035.53 274.649   4
  22 -15  -2 2078.18 288.041   4
  15 -22  -2 1783.79 189.266   2
   7  15  -2 2266.42 200.486   1
  22 -15  -2 1858.31 244.339   2
  -7  22  -2 1999.08 222.188   1
 -15  -7   1 301.879 165.496   3
  15 -22   1 51.5418 117.122   3
  15 -22   1 320.958 175.337   4
  22 -15   1-159.518 168.042   4
  22 -15   1 490.513 179.396   2
  15 -22   1 174.213 129.602   2
  -7  22   1 120.456 154.704   1
   7  15   1 63.4291 151.675   1
 -22   7   1 114.804 80.0982   3
  15 -22   4-55.5919 115.373   3
  15 -22   4 264.945 187.820   4
  22 -15   4 31.7063 148.148   4
  22 -15   4 362.243 192.851   2
  -7  22   4 179.729 179.743   1
  15 -22   4 101.708 154.387   2
 -22   7   4 61.9651 120.666   3
   7  15   4 117.001 183.835   1
 -15  -7   4 253.293 147.349   3
  15 -22   7 242.081 148.615   3
  15 -22   7 21.7833 194.415   2
  22 -15   7-126.414 170.459   4
  22 -15   7-55.7870 182.861   2
  -7  22   7 225.624 218.171   1
 -22   7   7 466.781 196.980   3
  15 -22   7 605.352 219.892   4
 -15  -7   7 103.210 172.631   3
   7  15   7 79.1733 185.143   1
  22 -15   7 293.956 85.7664   3
  22 -14  -9 534.079 261.383   2
  22 -14  -9 704.807 247.655   4
  22 -14  -6 605.388 237.640   2
  14 -22  -6 531.748 129.840   2
  14 -22  -6 519.333 170.591   4
  22 -14  -6 365.159 196.143   4
  -8  22  -3 995.329 169.631   1
 -14  -8  -3 1141.58 208.870   3
  14 -22  -3 1203.50 236.334   4
  22 -14  -3 842.285 224.009   4
  14 -22  -3 1126.33 156.878   2
 -14  -8  -3 747.569 153.109   2
   8  14  -3 1106.19 143.224   1
  22 -14  -3 945.324 202.975   2
 -22   8   0 415.389 71.6679   3
  -8  22   0 420.128 164.898   1
 -14  -8   0 204.841 151.086   3
  14 -22   0 322.797 141.687   3
  14 -22   0 505.354 180.015   4
  22 -14   0 322.018 182.205   4
  14 -22   0 409.000 155.372   2
  22 -14   0 413.507 175.388   2
   8  14   0 534.352 153.855   1
 -14  -8   3 1092.73 197.953   3
  14 -22   3 1044.02 176.592   3
  14 -22   3 927.852 211.455   4
  22 -14   3 1035.73 216.200   4
  22 -14   3 724.676 192.568   2
  14 -22   3 991.508 197.599   2
  -8  22   3 1058.16 234.665   1
 -22   8   3 1047.74 156.306   3
   8  14   3 1451.32 229.465   1
  22 -14   6 117.123 43.1791   3
  14 -22   6 260.864 145.634   3
  14 -22   6 213.356 206.797   4
  14 -22   6 341.953 178.191   2
  22 -14   6 395.295 186.372   2
  -8  22   6 245.911 185.901   1
  22 -14   6 154.913 175.742   4
 -22   8   6 205.982 160.127   3
   8  14   6-176.481 205.254   1
 -14  -8   6 369.107 185.463   3
   8  14   9 1307.60 312.198   1
  14 -22   9 504.780 197.942   3
  14 -22   9 561.655 240.791   4
  14 -22   9 1091.79 308.133   2
  22 -14   9 713.927 222.198   4
  22 -14   9 913.894 255.670   2
  -8  22   9 871.607 274.520   1
 -22   8   9 140.665 197.422   3
 -14  -8   9 874.583 244.354   3
  22 -13  -7 131.092 205.382   2
  22 -13  -7 265.789 197.000   4
  13 -22  -7 526.560 174.734   4
  13 -22  -4 2159.63 250.139   4
  -9  22  -4 2688.33 251.713   1
 -13  -9  -4 1998.03 187.552   2
  22 -13  -4 2112.82 305.604   4
  13 -22  -4 2269.58 190.026   2
   9  13  -4 2387.00 149.313   1
  22 -13  -4 2073.60 284.521   2
 -13  -9  -1 455.024 162.167   3
  22 -13  -1 452.453 212.468   4
  13 -22  -1 692.471 195.810   4
  13 -22  -1 667.597 142.977   2
  -9  22  -1 746.937 171.322   1
  22 -13  -1 917.851 208.620   2
   9  13  -1 610.610 143.014   1
  13 -22   2 3113.93 256.904   3
  -9  22   2 3796.63 322.730   1
  13 -22   2 3543.78 339.381   4
  22 -13   2 3924.47 346.012   4
   9  13   2 3527.34 298.961   1
  13 -22   2 3941.25 305.206   2
  22 -13   2 3126.27 297.976   2
 -22   9   2 3342.95 197.139   3
 -13  -9   2 3580.20 293.958   3
   9  13   2 3797.05 270.378   2
  13 -22   5 182.615 152.822   3
   9  13   5 154.001 77.4391   2
  13 -22   5 111.501 186.713   4
  13 -22   5 110.580 149.264   2
  22 -13   5-129.292 153.971   4
  22 -13   5 83.9131 161.264   2
  -9  22   5 132.772 172.587   1
   9  13   5 115.829 170.880   1
 -22   9   5-23.0823 147.359   3
 -13  -9   5 33.6990 152.755   3
  13 -22   8 1541.29 267.901   4
  22 -13   8 1544.86 249.460   4
  13 -22   8 1560.08 300.620   2
  -9  22   8 1332.38 284.527   1
  22 -13   8 1445.05 274.675   2
 -22   9   8 1642.33 280.461   3
  13 -22   8 1549.26 247.594   3
   9  13   8 1444.97 297.620   1
 -13  -9   8 1422.77 269.725   3
  22 -12  -8 585.578 238.824   2
  12 -22  -8 494.242 152.996   4
  22 -12  -8 853.291 247.066   4
  12 -22  -5 520.920 102.357   2
  10  12  -5 533.587 60.1049   1
  22 -12  -5 718.710 236.050   2
 -12 -10  -5 383.042 98.0206   2
  12 -22  -5 819.325 183.130   4
 -12 -10  -5 636.672 156.893   4
  22 -12  -5 826.234 233.296   4
 -12 -10  -2 2767.03 279.013   3
  12 -22  -2 2573.13 283.327   4
  10  12  -2 2267.26 203.594   1
  12 -22  -2 2384.46 191.717   2
  22 -12  -2 2887.99 331.248   4
 -12 -10  -2 2251.28 213.709   2
  22 -12  -2 2521.19 292.533   2
 -10  22  -2 2789.36 259.006   1
 -12 -10   1 390.401 161.807   3
 -10  22   1 753.028 197.486   1
  12 -22   1 378.747 160.063   3
  10  12   1 639.243 169.320   2
  12 -22   1 871.049 178.098   2
  22 -12   1 976.029 211.946   4
  22 -12   1 613.235 178.989   2
  10  12   1 828.749 176.464   1
 -22  10   1 588.832 84.5671   3
  12 -22   1 845.203 210.036   4
 -12 -10   4 839.428 198.058   3
  12 -22   4 642.758 166.171   3
  10  12   4 676.303 130.974   2
  12 -22   4 771.244 211.360   4
  12 -22   4 560.707 165.967   2
  22 -12   4 522.138 189.443   4
  22 -12   4 467.584 183.126   2
  10  12   4 487.246 188.536   1
 -22  10   4 744.825 168.822   3
 -10  22   4 460.008 197.651   1
  12 -22   7-129.254 160.921   3
 -22  10   7 210.780 197.949   1
  12 -22   7 258.500 215.125   2
  22 -12   7 137.332 162.502   4
  22 -12   7 196.563 179.792   2
 -10  22   7-280.654 210.075   1
 -22  10   7-20.4142 149.738   3
  10  12   7 135.511 187.797   1
  22 -12   7 28.9875 67.6476   3
  12 -22   7 452.803 208.434   4
 -12 -10   7 300.033 193.902   3
  22 -11  -9 1764.03 355.851   2
  22 -11  -9 1458.36 295.895   4
  22 -11  -6 119.645 183.590   2
  11 -22  -6 340.834 146.581   4
  22 -11  -6 669.568 240.848   4
 -11 -11  -3 2241.76 262.230   3
 -11  22  -3 2466.00 248.401   1
  11 -22  -3 3018.04 287.066   4
  11  11  -3 2874.09 201.533   1
 -11 -11  -3 2572.36 203.120   2
  22 -11  -3 2708.43 319.431   4
  11 -22  -3 2428.98 174.504   2
  22 -11  -3 2366.17 288.120   2
 -11 -11   0 840.643 190.551   3
  11  11   0 778.222 200.847   2
  11 -22   0 859.389 189.265   3
  11 -22   0 681.520 193.686   4
  11 -22   0 666.493 152.875   2
  22 -11   0 415.017 185.693   4
 -11  22   0 459.448 173.786   1
  11  11   0 494.344 153.034   1
  22 -11   0 342.443 159.974   2
 -11  22   3 2591.62 295.612   1
  11 -22   3 1942.46 261.439   4
  11 -22   3 2440.31 270.266   2
  11  11   3 2706.84 290.463   1
  22 -11   3 2400.34 281.736   4
  22 -11   3 2127.96 266.814   2
 -22  11   3 2701.66 211.773   3
  11  11   3 2352.35 217.172   2
 -11 -11   3 2632.14 271.827   3
  11 -22   3 2428.16 262.251   3
  11  11   6 508.513 112.007   2
  11 -22   6 295.906 175.774   3
  11 -22   6 609.309 223.801   4
  11 -22   6 389.130 215.735   2
  22 -11   6 495.530 188.652   4
  22 -11   6 574.724 186.135   2
 -22  11   6 465.319 196.987   1
  11  11   6 639.245 224.127   1
 -22  11   6 303.678 166.438   3
 -11  22   6 748.607 242.203   1
  22 -11   6 402.856 60.1629   3
 -11 -11   6 688.925 224.110   3
  11 -22   9 1443.87 256.896   3
  11 -22   9 1629.93 319.923   4
  11 -22   9 1274.24 280.199   2
  22 -11   9 1907.00 293.733   1
  22 -11   9 1717.17 256.372   4
  22 -11   9 1606.90 283.980   2
 -22  11   9 1446.62 292.155   3
  11  11   9 1472.28 335.180   1
 -11  22   9 1353.43 286.538   1
 -11 -11   9 1304.71 276.326   3
 -22  11   9 1546.66 266.079   1
  22 -10  -7-169.527 243.623   2
  10 -22  -7 255.741 136.698   4
  22 -10  -7 306.596 228.054   4
  22 -10  -4 766.347 241.072   2
  10 -22  -4 629.068 173.479   4
 -10 -12  -4 336.598 95.4721   2
  22 -10  -4 391.052 211.716   4
 -12  22  -4 552.768 172.942   1
  12  10  -4 658.058 108.072   1
  10 -22  -4 514.555 93.3409   2
 -10 -12  -1 530.489 172.053   3
  12  10  -1 674.619 218.729   2
  10 -22  -1 518.585 166.165   3
  10 -22  -1 632.936 182.943   4
  10 -22  -1 677.960 139.148   2
  22 -10  -1 604.083 206.393   4
  12  10  -1 736.402 151.623   1
 -10 -12  -1 540.532 142.280   2
  22 -10  -1 409.987 190.504   2
 -12  22  -1 587.264 178.421   1
  10 -22   2 2168.30 236.195   3
  10 -22   2 2499.17 299.398   4
  10 -22   2 2463.84 252.544   2
  12  10   2 2412.34 258.844   1
 -12  22   2 2260.56 271.293   1
  22 -10   2 2429.70 278.135   4
  22 -10   2 2485.13 262.305   2
 -22  12   2 2431.83 177.537   3
  12  10   2 2414.01 244.115   2
 -10 -12   2 2325.71 253.748   3
 -10 -12   5 829.144 207.252   3
  12  10   5 570.799 138.569   2
  10 -22   5 384.832 172.419   3
  10 -22   5 1059.33 238.436   4
 -22  12   5 458.528 190.023   1
  22 -10   5 535.673 184.737   4
  10 -22   5 773.544 153.747   1
  22 -10   5 919.010 211.531   2
  12  10   5 697.699 204.865   1
 -22  12   5 502.497 162.201   3
 -12  22   5 675.768 227.988   1
  10 -22   8 794.925 210.064   3
  10 -22   8 593.860 224.968   4
  22 -10   8 915.631 205.121   4
 -22  12   8 996.638 239.838   1
  22 -10   8 803.739 232.381   2
 -22  12   8 633.688 220.222   3
  12  10   8 835.716 270.187   1
 -12  22   8 670.401 249.957   1
 -10 -12   8 691.285 254.611   3
  22  -9  -8 1414.94 318.219   2
   9 -22  -8 1289.50 170.210   4
  22  -9  -8 1149.19 282.368   4
  22  -9  -5 175.986 211.507   2
  13   9  -5 2.91859 65.1557   1
  -9 -13  -5 8.49660 56.4049   2
   9 -22  -5 69.5207 131.098   4
  -9 -13  -5 269.843 143.453   4
  22  -9  -5 10.9303 175.892   4
  13   9  -5 131.601 63.0461   1
 -13  22  -2 3554.20 300.813   1
  -9 -13  -2 4204.23 343.362   3
   9 -22  -2 4138.19 334.571   4
  13   9  -2 4054.84 261.055   1
   9 -22  -2 3886.89 212.575   2
  22  -9  -2 3957.50 372.799   4
  -9 -13  -2 3488.82 240.515   2
  13   9  -2 4143.59 387.332   4
  22  -9  -2 3510.35 337.187   2
  13   9  -2 3890.14 375.466   2
  13   9   1 761.005 187.879   2
  -9 -13   1 890.343 189.342   3
   9 -22   1 771.700 183.226   3
   9 -22   1 647.523 205.525   4
  22  -9   1 650.486 193.921   4
  13   9   1 730.209 181.243   1
 -13  22   1 394.638 167.830   1
   9 -22   1 694.449 154.211   2
  13   9   1 477.536 170.307   4
  22  -9   1 505.376 196.213   2
 -22  13   1 602.498 87.7127   3
 -13  22   4 2431.81 310.279   1
  13   9   4 2225.63 288.973   1
  22  -9   4 2304.15 272.024   4
 -22  13   4 1914.71 267.398   1
  22  -9   4 1703.70 243.805   2
 -22  13   4 2464.40 233.877   3
  13   9   4 2093.58 216.344   2
   9 -22   4 1910.61 202.756   1
  -9 -13   4 2758.64 288.598   3
   9 -22   4 1991.23 244.538   3
  22  -9   7 368.016 180.046   2
 -13  22   7 274.555 194.429   1
   9 -22   7 66.0806 164.930   3
 -22  13   7 224.459 176.215   1
  22  -9   7 289.298 161.725   4
  13   9   7 669.338 259.605   1
 -22  13   7 157.799 174.735   3
  22  -9   7 422.699 98.2944   3
  13   9   7 397.937 125.254   2
  -9 -13   7 243.262 185.095   3
  22  -8  -9 987.760 299.453   2
  22  -8  -9 1011.32 293.907   4
  22  -8  -6-292.605 242.733   2
   8 -22  -6 165.205 130.508   4
  22  -8  -6 545.875 246.265   4
  -8 -14  -3 1619.97 264.126   3
  14   8  -3 1232.59 156.662   1
   8 -22  -3 1252.11 114.996   2
  22  -8  -3 1142.00 257.266   4
  -8 -14  -3 1086.52 136.260   2
  14   8  -3 1162.93 285.593   4
 -14  22  -3 1030.56 191.633   1
   8 -22  -3 1353.37 216.176   4
  14   8  -3 1740.97 315.765   2
  22  -8  -3 1247.68 244.287   2
  14   8   0 478.674 184.640   2
 -22  14   0 283.929 45.3144   3
  -8 -14   0 512.328 170.666   3
   8 -22   0 653.250 140.689   2
   8 -22   0 591.351 166.640   3
   8 -22   0 591.702 187.293   4
  14   8   0 587.177 170.514   1
  22  -8   0 743.363 209.409   4
  14   8   0 271.924 171.552   4
 -22  14   0 366.134 41.1700   3
  22  -8   0 634.350 193.693   2
 -14  22   0 1048.71 210.189   1
  14   8   3 1173.71 192.594   2
  -8 -14   3 800.589 202.382   3
   8 -22   3 1147.83 208.527   3
 -14  22   3 959.078 221.637   1
  14   8   3 1176.46 221.654   1
  22  -8   3 1132.35 218.434   4
  14   8   3 844.939 192.190   4
 -22  14   3 1340.65 169.909   3
  22  -8   3 919.965 207.028   2
 -22  14   3 1164.93 248.651   1
   8 -22   6 527.186 202.651   3
 -14  22   6 528.584 225.843   1
 -22  14   6 640.243 203.096   1
  22  -8   6 454.520 185.364   4
  22  -8   6 818.439 210.133   2
  14   8   6 491.588 216.655   1
 -22  14   6 598.824 199.199   3
  22  -8   6 339.149 76.9338   3
  14   8   6 597.863 157.867   2
  -8 -14   6 482.158 200.221   3
   8 -22   9 750.146 241.141   3
 -14  22   9 416.679 226.978   1
   8 -22   9 637.963 238.354   4
  22  -8   9-88.7554 191.575   2
  14   8   9 693.289 273.888   1
 -22  14   9 447.375 227.570   3
  22  -8   9 638.607 246.803   1
 -22  14   9 757.856 243.981   1
  -8 -14   9 1350.37 305.184   3
  22  -7  -7-11.0599 230.040   2
   7 -22  -7 266.806 123.649   4
  22  -7  -7 296.658 232.092   4
  22  -7  -4 280.118 204.110   2
   7 -22  -4-19.1450 26.9115   2
   7 -22  -4 132.115 155.305   4
  15   7  -4 117.439 104.954   1
  -7 -15  -4 12.6998 55.6099   2
  22  -7  -4 20.6769 185.725   4
  15   7  -4 132.524 107.947   1
  15   7  -4 309.644 249.390   4
 -15  22  -1-12.4170 96.4726   3
  15   7  -1 69.5560 171.699   2
  -7 -15  -1 320.576 178.444   3
   7 -22  -1-65.4045 155.509   3
   7 -22  -1 86.4125 102.603   2
   7 -22  -1 9.27631 154.939   4
  15   7  -1-33.6581 122.852   1
 -15  22  -1-15.4590 151.993   1
  22  -7  -1 56.1902 173.479   4
  15   7  -1 204.900 188.377   4
  22  -7  -1 79.3169 167.341   2
  -7 -15  -1 176.893 119.746   2
  15   7   2 2237.26 261.673   1
  22  -7   2 2526.33 294.655   4
  22  -7   2 2016.75 259.946   2
  15   7   2 2090.14 260.915   4
 -15  22   2 2674.89 297.521   1
 -22  15   2 2198.23 285.381   1
 -22  15   2 2046.33 171.442   3
  15   7   2 2368.27 253.404   2
  -7 -15   2 2322.86 261.547   3
   7 -22   2 2156.21 254.420   3
  -7 -15   5 47.9872 168.600   3
  22  -7   5 150.611 52.0013   3
   7 -22   5 183.515 155.936   3
   7 -22   5 104.162 98.9496   1
 -22  15   5-19.6078 178.824   1
 -15  22   5-202.084 198.286   1
  22  -7   5 260.225 187.536   4
  15   7   5 10.6371 180.760   1
 -15  22   5 102.804 103.748   2
  22  -7   5 347.496 175.801   2
  15   7   5 305.072 150.257   4
 -22  15   5 548.688 166.452   3
  22  -7   5 51.3753 47.7583   3
  15   7   5 217.065 147.773   2
   7 -22   8-30.5547 205.175   3
 -15  22   8-95.0766 187.660   1
  22  -7   8 101.290 229.694   1
  22  -7   8 69.0322 147.329   4
  22  -7   8-117.551 183.918   2
  15   7   8 158.042 206.326   1
 -22  15   8 199.965 197.126   1
 -22  15   8 208.756 218.089   3
  22  -7   8 185.477 114.669   3
  15   7   8 4.20337 120.860   2
  -7 -15   8-246.420 184.756   3
  22  -6  -8 2733.03 394.668   2
  22  -6  -8 3179.45 419.077   4
  22  -6  -5 147.383 207.653   2
  16   6  -5-22.4002 222.901   2
  16   6  -5-10.9706 87.0402   1
   6 -22  -5 131.752 141.211   4
  22  -6  -5 200.818 203.700   4
  16   6  -5 80.5103 243.883   4
  16   6  -5-57.1797 97.5905   1
  -6 -16  -2 3183.68 325.101   3
   6 -22  -2 3015.31 305.688   3
   6 -22  -2 3149.51 306.082   4
  16   6  -2 3274.34 253.246   1
   6 -22  -2 3564.05 204.279   2
 -16  22  -2 3035.18 305.612   1
  22  -6  -2 3537.14 362.972   4
  16   6  -2 3318.68 375.623   4
  -6 -16  -2 3133.41 216.343   2
  22  -6  -2 2659.63 306.563   2
 -16  22  -2 2460.14 205.015   3
  16   6  -2 2895.08 324.388   2
  16   6   1 6.92744 158.353   2
  -6 -16   1-215.545 157.708   3
 -22  16   1 67.3534 167.083   1
   6 -22   1-29.9399 138.097   3
 -22  16   1 105.905 79.9163   3
  16   6   1 14.1689 150.100   1
  22  -6   1-75.2675 197.551   4
  16   6   1 174.147 172.312   4
 -22  16   1 96.2636 74.5932   3
  22  -6   1 105.738 57.2880   3
  22  -6   1 480.989 195.712   2
 -16  22   1 207.943 165.748   1
 -16  22   4 1797.20 190.967   2
 -22  16   4 2730.06 329.833   1
  16   6   4 3345.55 329.763   1
  22  -6   4 2276.00 287.936   4
  22  -6   4 2240.09 272.048   2
 -16  22   4 2742.10 314.073   1
  16   6   4 2143.27 262.633   4
   6 -22   4 1934.85 192.100   1
  16   6   4 2328.22 241.992   2
 -22  16   4 2438.83 235.321   3
  22  -6   4 1729.34 96.7163   3
  -6 -16   4 2215.14 275.826   3
   6 -22   4 2215.22 263.376   3
   6 -22   7 120.612 172.924   3
  22  -6   7-47.9369 152.196   4
 -16  22   7 207.077 215.024   1
  16   6   7-120.788 201.720   1
 -22  16   7 385.068 217.714   1
  22  -6   7-186.216 165.734   2
 -22  16   7 337.759 184.865   3
  22  -6   7 214.123 108.478   3
  16   6   7-2.30558 127.227   2
  -6 -16   7 134.649 183.424   3
  22  -5  -9 565.773 276.901   4
  22  -5  -6 664.082 255.773   2
  17   5  -6 595.085 267.109   2
   5 -22  -6 627.860 152.661   4
  17   5  -6 413.806 90.0974   1
  22  -5  -6 776.397 257.830   4
  17   5  -6 138.544 200.338   4
  22  -5  -3 473.076 227.239   2
   5 -22  -3 438.902 88.2542   2
  17   5  -3 489.182 248.063   2
  -5 -17  -3 657.164 208.135   3
   5 -22  -3 166.508 157.971   4
   5 -22  -3 318.438 67.8049   2
  22  -5  -3 353.371 210.479   4
  17   5  -3 404.793 216.670   4
  -5 -17  -3 463.009 96.5222   2
 -17  22  -3 324.274 195.120   1
 -17  22  -3 243.649 104.717   3
  17   5  -3 185.708 128.997   1
  17   5   0-64.6701 173.838   2
 -17  22   0 79.5569 115.521   3
 -22  17   0-24.5329 54.8222   3
  -5 -17   0 233.574 159.489   3
   5 -22   0 113.002 166.627   3
  17   5   0 40.6180 131.376   1
 -17  22   0 341.908 186.563   1
  22  -5   0 385.909 184.071   4
  17   5   0-258.685 191.333   4
 -22  17   0 171.499 56.3268   3
  22  -5   0-7.59424 81.2313   3
  22  -5   0 174.085 208.225   2
  -5 -17   3 708.351 185.457   3
   5 -22   3 749.878 191.428   3
 -22  17   3 1068.86 239.854   1
  17   5   3 811.624 218.697   1
  22  -5   3 1200.67 231.052   4
  17   5   3 773.065 194.041   4
 -22  17   3 986.858 159.698   3
  22  -5   3 867.205 209.255   2
 -17  22   3 870.191 210.504   1
  22  -5   3 790.905 78.0945   3
   5 -22   3 927.625 159.172   1
  17   5   3 909.958 189.507   2
  -5 -17   6 119.107 172.604   3
   5 -22   6 21.7182 171.405   3
 -17  22   6 1.55647 211.092   1
  22  -5   6-24.1297 150.882   4
  17   5   6-195.219 203.373   1
 -22  17   6 244.241 190.731   1
  17   5   6 75.0012 143.375   4
  22  -5   6 439.866 207.460   2
  22  -5   6 160.670 93.5868   3
 -22  17   6-110.890 164.160   3
  17   5   6 193.984 143.024   2
   5 -22   9 123.742 219.608   3
 -17  22   9 301.559 236.236   1
 -22  17   9 272.506 222.012   1
  22  -5   9 179.196 230.019   1
  22  -5   9 111.191 172.778   2
  17   5   9 645.407 271.958   1
 -22  17   9 30.7750 205.466   3
  -5 -17   9 229.989 217.335   3
  22  -4  -7 182.304 244.833   2
  -4 -18  -7 17.3513 96.2978   4
   4 -22  -7 86.0053 111.916   4
  22  -4  -7-210.335 233.329   4
  18   4  -7 58.7405 215.601   4
  22  -4  -4 145.424 219.858   2
  18   4  -4 302.637 212.181   2
   4 -22  -4 122.542 141.368   4
  22  -4  -4 129.796 241.464   4
  18   4  -4-87.5548 231.323   4
  18   4  -4-39.9685 111.972   1
 -18  22  -4-174.880 107.026   3
 -18  22  -1 469.085 120.917   3
  18   4  -1 165.974 181.771   2
 -18  22  -1 228.630 170.788   1
  -4 -18  -1 56.6670 158.430   3
   4 -22  -1 208.996 176.300   3
   4 -22  -1 227.360 129.780   2
   4 -22  -1 299.811 109.894   2
  22  -4  -1 497.895 222.990   4
  18   4  -1 262.072 194.990   4
  22  -4  -1 296.856 109.806   3
 -22  18  -1 138.737 35.0881   3
  22  -4  -1 200.118 164.931   2
  -4 -18  -1 244.822 133.355   2
 -18  22   2 45.8783 176.730   1
  -4 -18   2 591.504 194.576   3
   4 -22   2 356.885 181.523   3
 -22  18   2 309.707 124.516   3
  -4 -18   2 373.709 130.598   1
  18   4   2 417.756 185.148   1
 -22  18   2 160.757 166.007   1
  18   4   2 202.448 167.509   4
  22  -4   2 283.918 181.325   4
  22  -4   2 401.358 180.280   2
  22  -4   2 259.765 71.6105   3
  18   4   2 788.206 202.035   2
  -4 -18   5 173.385 180.942   3
   4 -22   5-120.694 173.857   3
  18   4   5 315.875 214.876   1
  22  -4   5 122.129 165.085   4
 -22  18   5-249.533 199.487   1
  18   4   5-144.376 145.240   4
 -18  22   5 441.779 205.855   1
  22  -4   5-92.8236 159.450   2
 -22  18   5 2.66809 145.882   3
  18   4   5 102.093 139.787   2
   4 -22   8 204.081 181.582   3
 -22  18   8 195.403 191.852   1
  22  -4   8-15.9008 192.929   1
 -18  22   8-273.188 214.983   1
  22  -4   8 449.294 162.790   4
  18   4   8-594.089 243.748   1
  22  -4   8 370.528 194.071   2
  22  -4   8 245.754 132.568   3
 -22  18   8 29.8078 187.550   3
  18   4   8 32.4025 148.121   2
  -4 -18   8 25.9930 190.736   3
  22  -3  -8 1676.07 345.219   2
  22  -3  -8 2096.49 370.831   4
  19   3  -8 1685.10 326.458   4
  22  -3  -5-215.776 231.489   2
  19   3  -5 221.009 221.674   2
   3 -22  -5 158.373 156.624   4
  22  -3  -5 206.294 236.975   4
  19   3  -5-25.3316 204.040   4
  -3 -19  -2 3266.44 333.283   3
   3 -22  -2 3024.19 316.836   3
   3 -22  -2 3791.22 207.391   2
  22  -3  -2 3807.52 389.601   4
  19   3  -2 3877.25 394.261   4
 -19  22  -2 3628.23 342.865   1
  -3 -19  -2 3358.03 222.629   2
  22  -3  -2 3280.91 349.754   2
 -19  22  -2 3442.33 212.262   3
  19   3  -2 3415.12 358.825   2
   3 -22  -2 3273.81 217.765   2
 -19  22   1-15.6722 107.460   3
  -3 -19   1 280.299 171.599   3
   3 -22   1 329.613 179.247   3
 -22  19   1 144.924 94.5973   3
 -19  22   1 25.1894 171.604   1
  22  -3   1 394.760 193.767   4
  19   3   1 25.3485 177.058   4
  22  -3   1-38.0609 85.5032   3
 -22  19   1 293.062 178.082   1
  22  -3   1-73.5458 161.380   2
  19   3   1 125.274 171.193   2
  -3 -19   4 1079.10 223.073   3
   3 -22   4 1368.61 242.145   3
  19   3   4 1127.73 244.351   1
  22  -3   4 1647.39 252.513   2
  22  -3   4 1108.00 232.136   4
  19   3   4 1187.37 221.948   4
 -22  19   4 1140.86 262.595   1
   3 -22   4 889.484 140.822   1
  19   3   4 1028.03 206.299   2
  22  -3   4 1018.20 121.817   3
 -19  22   4 1191.04 243.892   1
  -3 -19   7-25.2568 184.340   3
   3 -22   7 85.7438 175.053   3
 -22  19   7-60.5883 181.158   1
  22  -3   7 160.054 196.087   1
  19   3   7 656.521 238.682   1
  22  -3   7-140.265 156.119   4
  19   3   7 151.786 138.034   4
  22  -3   7 72.6158 173.330   2
 -19  22   7-68.3537 222.530   1
 -22  19   7 209.102 191.512   3
  19   3   7 74.1913 154.952   2
  22  -2  -6 626.978 277.118   2
  20   2  -6-142.166 228.277   2
  -2 -20  -6 127.141 127.336   4
   2 -22  -6 187.178 130.364   4
  22  -2  -6 429.567 255.178   4
  20   2  -6 255.082 249.582   4
  22  -2  -3 423.027 222.834   2
  20   2  -3 443.968 231.128   2
   2 -22  -3 362.884 64.3729   2
  22  -2  -3 414.859 231.965   4
  20   2  -3 503.279 240.801   4
 -22  20  -3 266.127 45.7322   3
  -2 -20  -3 449.529 88.3804   2
 -20  22  -3 453.425 99.6592   3
   2 -22  -3 378.943 76.6243   2
  20   2   0 19.1208 164.798   2
 -22  20   0-228.990 215.103   1
 -20  22   0 122.303 103.615   3
 -22  20   0 19.5821 79.2071   3
 -20  22   0 117.795 161.894   1
  -2 -20   0 66.1480 159.360   3
   2 -22   0 152.956 162.537   3
  22  -2   0 75.5333 177.539   4
  20   2   0 348.602 194.407   4
  22  -2   0 151.479 96.5624   3
  22  -2   0 149.932 169.437   2
  20   2   3 273.848 120.724   3
  -2 -20   3 65.7474 160.050   3
   2 -22   3 22.0622 153.236   3
 -20  22   3-82.6291 170.275   1
  20   2   3 155.168 171.455   1
  -2 -20   3 247.408 116.490   1
  22  -2   3 364.869 188.726   4
  20   2   3 194.577 166.504   4
   2 -22   3 227.347 120.359   1
 -22  20   3 558.590 210.285   1
  22  -2   3 90.7192 171.156   2
  20   2   3-12.6412 157.793   2
  22  -2   3 114.660 87.4889   3
  -2 -20   6 850.075 244.297   3
   2 -22   6 532.591 199.572   3
 -22  20   6 832.279 254.121   1
  22  -2   6 140.350 218.322   1
  20   2   6 376.250 228.745   1
  22  -2   6 842.437 206.812   4
  20   2   6 384.896 176.380   4
 -22  20   6 546.908 201.869   3
  22  -2   6 488.616 184.800   2
  20   2   6 406.751 176.215   2
 -20  22   6 761.278 259.696   1
  22  -1  -7 392.671 251.144   2
  21   1  -7 506.755 288.334   2
  -1 -21  -7 409.332 134.466   4
   1 -22  -7 125.545 115.591   4
  22  -1  -7 683.692 282.626   4
  21   1  -7 406.344 253.439   4
  22  -1  -4-71.8346 203.653   2
  21   1  -4-50.1490 215.389   2
  22  -1  -4 483.182 252.959   4
 -22  21  -4 135.674 63.4929   3
 -21  22  -4 22.8347 79.9225   3
  21   1  -4 212.998 224.136   4
  22  -1  -1 249.427 196.354   2
  21   1  -1 728.712 235.238   2
  -1 -21  -1 389.950 135.184   2
 -22  21  -1 363.458 210.057   1
   1 -22  -1 273.240 135.600   2
  -1 -21  -1 448.606 201.527   3
   1 -22  -1 715.783 203.396   3
 -21  22  -1 292.620 193.339   1
  22  -1  -1 478.885 244.439   4
  21   1  -1 313.365 219.891   4
 -22  21  -1 389.299 86.0189   3
 -21  22  -1 506.464 108.711   3
  -1 -21   2 97.3416 162.503   3
   1 -22   2 425.371 197.337   3
 -22  21   2 221.528 125.552   3
 -21  22   2 467.172 205.771   1
  22  -1   2 400.724 220.083   4
  21   1   2 126.012 181.580   4
  22  -1   2 396.038 181.077   2
  22  -1   2 516.884 111.202   3
  21   1   2 666.081 202.200   2
 -22  21   2 171.191 176.124   1
  21   1   2 330.712 115.484   3
  -1 -21   5 750.968 232.059   3
 -21  22   5 905.091 246.892   1
   1 -22   5 955.229 232.712   3
 -22  21   5 598.742 220.689   1
  22  -1   5 931.248 248.599   1
  21   1   5 978.782 276.456   1
  22  -1   5 539.021 199.656   4
  21   1   5 1222.83 231.046   4
  22  -1   5 1097.88 221.627   2
  21   1   5 970.574 222.044   2
  -1 -21   8-46.7130 197.315   3
   1 -22   8 149.092 198.308   3
 -22  21   8-71.7331 198.904   1
  22  -1   8 123.573 216.729   1
  21   1   8 131.558 219.451   1
 -21  22   8-235.998 219.917   3
  22  -1   8 120.281 166.910   2
 -22  21   8-117.498 212.984   3
  21   1   8-87.6439 163.995   2
 -21  22   8 169.175 249.985   1
  22   0  -8 2174.19 378.963   4
  22   0  -5-117.979 250.446   2
   0 -22  -5 158.957 153.345   4
  22   0  -5 58.2989 236.301   4
  22   0  -2 1287.15 271.819   2
   0 -22  -2 1602.64 277.086   3
  22   0  -2 1358.74 305.260   4
   0 -22  -2 1410.84 168.366   2
 -22  22  -2 1025.26 107.466   3
 -22  22   1-51.0781 108.760   3
   0 -22   1 221.125 175.649   3
 -22  22   1-219.197 191.882   1
  22   0   1 125.078 178.374   4
  22   0   1 7.22247 101.922   3
  22   0   1-172.904 188.258   2
  22   0   4 2692.21 313.128   4
  22   0   4 2668.17 300.136   2
   0 -22   4 2635.61 315.295   3
 -22  22   4 2268.09 339.308   1
   0 -22   7 105.043 188.026   3
 -22  22   7-152.595 237.857   1
  22   0   7 348.174 226.078   1
  22   0   7 220.494 170.494   4
 -22  22   7-395.473 216.043   3
  22   0   7-89.1831 161.167   2
  23 -23  -5 310.598 199.243   4
   0  23  -5 135.320 90.9102   1
   0  23  -2 1819.70 218.464   1
 -23   0  -2 1745.51 199.948   3
  23 -23  -2 1683.90 281.505   4
  23 -23  -2 1595.54 235.861   2
 -23   0   1 220.134 137.625   3
   0  23   1 92.1735 171.508   1
  23 -23   1-44.3063 163.796   2
  23 -23   1-46.2425 179.414   4
   0  23   4 419.154 207.003   1
  23 -23   4 505.735 232.313   4
  23 -23   4 129.092 194.101   2
 -23   0   4 543.247 175.891   3
   0  23   7-30.9350 221.334   1
  23 -23   7 9.70596 186.864   4
  23 -23   7 249.190 216.479   2
 -23   0   7 53.6878 175.290   3
  22 -23  -6 397.955 203.263   2
  23 -22  -6 317.980 200.428   2
  22 -23  -6 346.601 200.545   4
  23 -22  -6 269.594 188.414   4
  -1  23  -3 996.676 179.149   1
  22 -23  -3 395.298 194.880   4
  23 -22  -3 503.695 215.079   4
  22 -23  -3 533.667 169.375   2
  23 -22  -3 776.231 189.715   2
   1  22  -3 713.378 150.139   1
 -23   1   0 756.968 148.342   3
 -22  -1   0 663.718 158.104   3
  22 -23   0 720.549 218.980   4
  23 -22   0 482.336 198.084   4
   1  22   0 741.160 193.703   1
  -1  23   0 920.172 200.256   1
  22 -23   0 696.088 197.561   2
  23 -22   0 486.746 182.887   2
 -23   1   3 236.420 138.235   3
 -22  -1   3 227.308 140.118   3
   1  22   3 174.794 174.559   1
  -1  23   3 193.627 182.657   1
  22 -23   3 55.5162 176.191   4
  23 -22   3 312.629 194.712   4
  22 -23   3 147.787 167.272   2
  23 -22   3 581.836 208.936   2
  22 -23   6 344.223 123.363   3
   1  22   6 427.362 222.004   1
  -1  23   6 674.237 255.919   1
  22 -23   6 527.949 223.357   4
  23 -22   6 345.164 204.898   4
  22 -23   6 467.235 215.866   2
  23 -22   6 110.963 182.289   2
 -23   1   6 452.546 185.751   3
 -22  -1   6 341.353 178.497   3
  23 -21  -7 889.417 264.531   2
  21 -23  -7 1326.76 261.162   4
  23 -21  -7 1634.63 301.221   4
  21 -23  -7 1525.08 272.961   2
   2  21  -4 521.815 121.117   1
  21 -23  -4 384.184 183.577   4
  23 -21  -4 472.650 226.084   4
  21 -23  -4 454.428 172.099   2
  -2  23  -4 86.2777 115.564   1
  23 -21  -4 530.522 198.633   2
 -21  -2  -1 1891.06 219.267   3
 -23   2  -1 1673.06 183.848   3
  -2  23  -1 1657.20 215.930   1
  21 -23  -1 2267.23 304.158   4
  23 -21  -1 1863.26 287.642   4
  21 -23  -1 1610.75 227.184   2
  23 -21  -1 1475.10 236.243   2
   2  21  -1 2173.64 236.685   1
 -23   2   2 819.514 155.278   3
 -21  -2   2 676.648 171.660   3
  21 -23   2 1392.56 273.127   4
   2  21   2 901.494 223.539   1
  -2  23   2 895.357 207.145   1
  21 -23   2 971.352 217.458   2
  23 -21   2 1180.51 243.557   4
  23 -21   2 1235.31 234.033   2
  21 -23   5 1210.04 160.374   3
  23 -21   5 863.938 90.4584   3
   2  21   5 1563.29 281.435   1
  23 -21   5 1868.57 294.522   2
  21 -23   5 1334.81 263.113   4
  -2  23   5 1761.62 296.353   1
  23 -21   5 1432.71 266.932   4
  21 -23   5 1310.33 259.549   2
 -21  -2   5 1776.35 261.808   3
 -23   2   5 1466.12 226.245   3
  -2  23   8-78.2946 213.048   1
   2  21   8 120.235 215.801   1
  21 -23   8 563.592 223.917   4
  23 -21   8 570.742 242.854   4
  21 -23   8 742.093 247.966   2
  23 -21   8 326.853 221.097   2
 -23   2   8 354.336 205.033   3
 -21  -2   8 291.339 215.552   3
  23 -20  -8 598.419 237.905   2
  20 -23  -8 464.951 188.002   2
  20 -23  -8 336.306 189.756   4
  23 -20  -8 631.753 240.408   4
  -3  23  -5 244.832 116.542   1
   3  20  -5 55.6739 67.5142   1
  20 -23  -5 121.225 178.786   4
  23 -20  -5 357.025 201.249   4
  20 -23  -5-58.4064 152.991   2
  23 -20  -5-13.6520 174.689   2
 -20  -3  -2 1804.14 221.069   3
  -3  23  -2 1928.59 222.236   1
  23 -20  -2 2057.58 300.528   4
  20 -23  -2 1612.51 255.007   4
  20 -23  -2 1632.58 223.528   2
  23 -20  -2 1757.32 263.979   2
   3  20  -2 1836.05 200.251   1
 -23   3   1 231.575 112.638   3
 -20  -3   1-102.580 127.272   3
   3  20   1 1.79606 156.592   1
  20 -23   1 159.817 185.118   4
  23 -20   1 100.966 180.338   4
  20 -23   1-74.8542 154.572   2
  -3  23   1 74.3415 143.134   1
  23 -20   1 166.537 173.900   2
   3  20   4 634.048 209.055   1
  20 -23   4 499.609 132.926   3
  20 -23   4 355.411 196.707   4
  23 -20   4 149.124 199.015   4
  -3  23   4 662.268 218.698   1
  20 -23   4 217.873 189.631   2
  23 -20   4 48.4539 180.928   2
 -23   3   4 458.047 153.891   3
 -20  -3   4 552.828 169.549   3
  20 -23   7 185.078 136.762   3
   3  20   7-173.885 210.608   1
  -3  23   7 350.111 229.134   1
  20 -23   7 355.919 209.915   4
  23 -20   7 783.826 223.732   4
  20 -23   7 340.682 209.772   2
  23 -20   7 195.719 226.469   2
 -23   3   7 17.3005 170.478   3
 -20  -3   7-213.318 176.650   3
  19 -23  -6 1095.32 219.229   2
  23 -19  -6 1217.38 265.889   2
  19 -23  -6 1303.99 246.355   4
  23 -19  -6 520.827 206.882   4
  19 -23  -3 231.368 166.801   4
  23 -19  -3 20.6733 193.108   4
  -4  23  -3 380.452 129.234   1
   4  19  -3 374.651 115.408   1
  19 -23  -3 278.508 144.456   2
  23 -19  -3 257.816 160.278   2
  -4  23   0 1472.45 220.936   1
   4  19   0 1170.05 189.517   1
  19 -23   0 1116.24 249.991   4
  23 -19   0 1205.89 243.457   4
  23 -19   0 1521.10 241.686   2
  19 -23   0 1406.10 211.078   2
 -23   4   0 1206.06 150.068   3
 -19  -4   0 1245.46 207.901   3
 -19  -4   3 233.464 151.599   3
   4  19   3 46.6725 156.805   1
  19 -23   3 144.307 126.374   3
  19 -23   3 154.076 170.762   4
  23 -19   3 229.938 171.068   4
  19 -23   3 54.6213 175.729   2
  -4  23   3-112.083 187.910   1
  23 -19   3 285.758 198.497   2
 -23   4   3-50.4395 115.891   3
  23 -19   6 1102.25 242.165   4
  19 -23   6 907.453 178.290   3
   4  19   6 1222.29 265.251   1
  19 -23   6 671.935 224.513   4
  19 -23   6 779.388 240.034   2
  -4  23   6 1314.37 278.461   1
  23 -19   6 895.425 237.039   2
 -23   4   6 1220.45 228.656   3
 -19  -4   6 1198.50 241.068   3
  18 -23  -7 1174.23 208.227   2
  18 -23  -7 1397.80 240.014   4
  23 -18  -7 1679.91 283.336   4
  23 -18  -7 1947.61 334.754   2
  23 -18  -4 305.841 200.070   4
  18 -23  -4 369.030 178.527   4
   5  18  -4 194.823 87.3909   1
  18 -23  -4 186.914 152.777   2
  -5  23  -4 233.333 138.624   1
  23 -18  -4 196.016 183.679   2
 -18  -5  -1 2458.18 244.548   3
 -23   5  -1 1892.91 145.049   3
  -5  23  -1 1888.49 226.031   1
  18 -23  -1 1846.77 275.873   4
  23 -18  -1 2181.91 298.410   4
  18 -23  -1 1919.51 220.480   2
  23 -18  -1 2093.11 270.160   2
   5  18  -1 1986.22 216.804   1
   5  18   2 688.556 191.103   1
 -18  -5   2 617.519 161.328   3
  18 -23   2 672.565 145.489   3
  18 -23   2 788.024 216.390   4
  23 -18   2 676.869 211.028   4
  18 -23   2 414.285 188.768   2
  23 -18   2 218.819 161.169   2
  -5  23   2 572.806 201.469   1
 -23   5   2 449.715 120.542   3
   5  18   5 1258.28 270.332   1
  23 -18   5 1708.58 282.656   4
  18 -23   5 1085.08 250.011   4
  18 -23   5 1106.32 232.863   2
  -5  23   5 1371.54 274.474   1
  23 -18   5 1338.97 255.209   2
 -23   5   5 1333.44 221.702   3
  18 -23   5 1424.60 193.180   3
 -18  -5   5 1443.87 240.973   3
  18 -23   8 93.9402 146.902   3
   5  18   8-167.918 223.284   1
  18 -23   8 120.353 184.799   4
  18 -23   8-76.2689 198.676   2
  23 -18   8 362.464 203.397   4
  23 -18   8 242.212 224.098   2
  -5  23   8 104.730 196.837   1
 -23   5   8 591.616 233.211   3
 -18  -5   8 87.1215 199.508   3
  23 -17  -8 50.2842 218.661   2
  17 -23  -8 284.218 168.824   4
  23 -17  -8-66.6003 192.347   4
  -6  23  -5 46.6741 109.547   1
  23 -17  -5 78.8139 171.342   4
  17 -23  -5-39.0407 155.986   4
  17 -23  -5 142.184 142.013   2
  23 -17  -5-67.1150 174.239   2
   6  17  -2 43.3819 104.474   1
 -17  -6  -2 229.142 152.992   3
  17 -23  -2-104.234 177.822   4
  -6  23  -2 71.5724 129.910   1
  23 -17  -2 229.119 181.272   4
  17 -23  -2 148.892 139.034   2
  23 -17  -2-361.249 187.065   2
   6  17   1-10.8223 144.620   1
 -23   6   1 202.295 86.6459   3
 -17  -6   1 118.097 128.201   3
  17 -23   1 36.5574 116.529   3
  17 -23   1 269.059 185.189   4
  23 -17   1-135.501 179.127   4
  17 -23   1 142.680 142.048   2
  23 -17   1 553.657 196.123   2
  -6  23   1 267.200 164.051   1
 -17  -6   4 227.624 168.473   3
  17 -23   4 107.934 134.618   3
  17 -23   4 337.248 188.341   4
  17 -23   4 281.369 177.685   2
  23 -17   4 221.645 175.060   4
  23 -17   4 534.178 199.800   2
  -6  23   4 537.175 202.813   1
 -23   6   4 136.030 122.518   3
   6  17   4 242.184 177.224   1
   6  17   7 178.014 201.086   1
  17 -23   7 248.508 146.030   3
  17 -23   7-273.658 205.593   4
  17 -23   7-157.609 214.892   2
  23 -17   7-20.1844 184.050   4
  23 -17   7 274.299 206.465   2
  -6  23   7-77.9824 189.310   1
 -23   6   7-124.600 163.536   3
 -17  -6   7 385.340 196.820   3
  23 -16  -6 1653.17 300.855   2
  16 -23  -6 986.905 169.004   2
  16 -23  -6 965.643 202.532   4
  23 -16  -6 1185.75 251.287   4
   7  16  -3 59.7191 93.8765   1
 -16  -7  -3-9.64991 160.950   3
  16 -23  -3 7.03519 156.187   4
  23 -16  -3-100.432 182.315   4
  16 -23  -3 178.391 134.826   2
  23 -16  -3 59.5782 150.885   2
  -7  23  -3 6.52614 131.548   1
  -7  23   0 2644.19 269.488   1
  16 -23   0 2174.49 291.093   4
  16 -23   0 2357.40 234.004   2
  23 -16   0 2447.86 303.022   4
  23 -16   0 2104.35 260.770   2
   7  16   0 2402.32 246.198   1
 -23   7   0 2034.74 137.328   3
 -16  -7   0 2068.90 230.124   3
 -16  -7   3-189.481 166.256   3
  16 -23   3 114.990 140.894   3
  16 -23   3 340.220 196.346   4
  16 -23   3 87.5953 153.497   2
  23 -16   3 22.1874 154.762   4
  23 -16   3-144.447 166.786   2
  -7  23   3 98.4098 162.054   1
 -23   7   3-41.2653 119.102   3
   7  16   3-32.5071 169.183   1
  16 -23   6 2118.12 297.741   4
  16 -23   6 1561.41 268.935   2
  23 -16   6 1528.83 254.586   4
  23 -16   6 1591.93 265.447   2
 -23   7   6 1439.46 229.335   3
  16 -23   6 1763.00 232.312   3
   7  16   6 1614.23 299.321   1
  -7  23   6 2108.24 309.374   1
 -16  -7   6 1326.20 253.892   3
  23 -15  -7 1238.76 287.972   2
  15 -23  -7 1257.65 217.629   4
  23 -15  -7 1460.29 281.776   4
  15 -23  -7 1211.76 150.115   2
   8  15  -4 686.202 101.277   1
  15 -23  -4 208.683 143.936   4
  23 -15  -4 762.581 228.697   4
  15 -23  -4 499.231 134.484   2
  -8  23  -4 557.259 158.431   1
  23 -15  -4 503.367 194.969   2
 -15  -8  -1 3204.34 286.735   3
  15 -23  -1 3906.22 348.204   4
  23 -15  -1 3144.03 348.277   4
  15 -23  -1 3406.32 253.819   2
  -8  23  -1 2885.84 269.777   1
   8  15  -1 3282.64 259.551   1
  23 -15  -1 3468.21 317.106   2
 -15  -8   2 272.565 158.319   3
  15 -23   2 190.160 135.050   3
  15 -23   2 231.456 187.201   4
  15 -23   2 221.339 157.523   2
  23 -15   2 425.567 178.281   4
  23 -15   2 525.022 186.708   2
  -8  23   2 118.737 149.101   1
   8  15   2 436.700 171.851   1
 -23   8   2 263.643 95.9982   3
  15 -23   5 1433.22 261.544   2
  15 -23   5 1409.16 260.984   4
  23 -15   5 1719.25 269.288   4
  23 -15   5 1535.70 259.846   2
  -8  23   5 1492.22 271.668   1
 -23   8   5 1670.91 231.736   3
   8  15   5 1440.99 275.689   1
  15 -23   5 1364.21 209.545   3
 -15  -8   5 1437.20 235.694   3
  15 -23   8 542.966 193.726   3
  15 -23   8 322.637 213.346   4
  15 -23   8 188.359 215.633   2
  23 -15   8 198.013 190.144   4
  23 -15   8 273.562 200.709   2
  -8  23   8 324.021 208.563   1
 -23   8   8 402.741 200.855   3
 -15  -8   8 81.6960 192.320   3
   8  15   8 549.690 253.505   1
  23 -14  -8-6.09369 240.785   2
  14 -23  -8-137.933 139.717   4
  23 -14  -8 104.284 210.450   4
  23 -14  -5 869.843 242.011   2
   9  14  -5 460.346 60.8797   1
 -14  -9  -5 378.400 117.083   2
  23 -14  -5 741.854 219.058   4
  14 -23  -5 609.901 160.903   4
  14 -23  -5 386.852 118.165   2
 -14  -9  -2 843.777 194.939   3
  14 -23  -2 662.325 187.625   4
  23 -14  -2 920.057 226.535   4
  14 -23  -2 723.019 139.790   2
  23 -14  -2 875.343 217.156   2
  -9  23  -2 862.132 175.747   1
   9  14  -2 759.844 148.175   1
  -9  23   1 832.776 206.455   1
 -14  -9   1 812.760 192.418   3
  14 -23   1 822.315 172.124   3
  14 -23   1 440.489 206.506   4
  14 -23   1 760.217 173.397   2
  23 -14   1 659.840 200.305   4
  23 -14   1 761.182 185.986   2
   9  14   1 981.827 189.753   1
 -23   9   1 706.674 100.436   3
 -14  -9   4 428.675 159.897   3
  14 -23   4 67.4640 127.766   3
  14 -23   4 24.2470 181.462   4
  14 -23   4 511.537 202.305   2
  23 -14   4 56.7471 163.133   4
  23 -14   4 81.0545 162.147   2
  -9  23   4 356.829 188.964   1
   9  14   4-322.802 196.171   1
 -23   9   4 209.891 124.588   3
  14 -23   7 1199.49 226.740   3
  14 -23   7 1132.55 257.382   2
  23 -14   7 806.470 215.500   4
  23 -14   7 1078.18 260.290   2
  14 -23   7 921.311 270.022   4
  -9  23   7 894.284 269.779   1
 -23   9   7 1366.89 243.929   3
   9  14   7 1651.41 309.341   1
 -14  -9   7 730.176 247.427   3
  23 -13  -9 165.783 247.525   2
  23 -13  -9-0.35416 204.014   4
  13 -23  -6 1639.24 228.604   4
  23 -13  -6 1395.46 276.439   4
  23 -13  -6 2009.97 327.416   2
  13 -23  -6 1220.86 124.477   2
 -13 -10  -3 312.611 177.952   3
  13 -23  -3-130.502 157.205   4
 -10  23  -3 52.4988 132.441   1
  23 -13  -3 54.7115 168.391   4
 -13 -10  -3-56.0989 115.401   2
  13 -23  -3 46.7233 97.3904   2
  23 -13  -3-138.305 200.461   2
  10  13  -3 53.9845 90.7843   1
  10  13   0 2111.39 262.612   2
  13 -23   0 1586.83 214.556   3
  13 -23   0 1699.65 248.798   4
  13 -23   0 1780.27 203.755   2
 -10  23   0 1551.76 230.464   1
  10  13   0 1903.80 218.754   1
  23 -13   0 1683.26 254.003   4
  23 -13   0 1686.44 257.549   2
 -23  10   0 1310.13 84.8979   3
 -13 -10   0 1610.05 220.446   3
 -13 -10   3 144.346 152.215   3
  13 -23   3 189.460 155.104   3
  10  13   3 81.9593 113.916   2
  13 -23   3 134.143 169.809   4
  13 -23   3-5.56463 167.218   2
  23 -13   3 141.557 152.828   4
  23 -13   3 275.353 174.676   2
  10  13   3 442.906 177.420   1
 -23  10   3-0.13684 97.4008   3
 -10  23   3 27.2440 157.223   1
  13 -23   6 552.598 185.628   3
  10  13   6 486.358 83.7729   2
  13 -23   6 1228.25 272.560   4
  13 -23   6 701.326 209.704   2
  23 -13   6 733.290 211.340   4
  23 -13   6 811.181 213.692   2
 -10  23   6 1083.23 272.133   1
 -23  10   6 707.176 190.939   3
  10  13   6 483.352 216.206   1
 -13 -10   6 562.484 213.436   3
  13 -23   9-364.654 195.393   3
  13 -23   9 193.994 213.935   4
  13 -23   9 383.817 230.314   2
  23 -13   9-25.3487 179.857   4
  23 -13   9-276.662 209.999   2
 -10  23   9 115.558 213.726   1
 -23  10   9 324.774 212.225   3
  10  13   9-37.3988 208.060   1
 -13 -10   9 20.5798 204.015   3
  23 -12  -7 530.525 262.722   2
  12 -23  -7 569.657 169.360   4
  23 -12  -7 637.832 239.101   4
  12 -23  -4 822.768 186.243   4
 -12 -11  -4 384.756 120.670   2
  23 -12  -4 215.067 196.067   4
  12 -23  -4 622.901 119.028   2
 -11  23  -4 761.743 178.561   1
  11  12  -4 502.171 100.082   1
  23 -12  -4 286.008 207.073   2
 -12 -11  -1 2071.62 254.845   3
  11  12  -1 1885.71 256.468   2
  12 -23  -1 2314.55 286.174   4
  12 -23  -1 1834.53 190.820   2
  11  12  -1 2478.08 227.868   1
  23 -12  -1 2167.50 289.998   4
  23 -12  -1 2321.31 283.859   2
 -11  23  -1 1780.26 235.424   1
 -12 -11   2 1113.40 208.490   3
 -11  23   2 867.004 190.618   1
  12 -23   2 874.868 172.775   2
  11  12   2 845.651 180.003   2
  12 -23   2 946.723 195.868   3
  12 -23   2 948.913 230.570   4
  23 -12   2 853.187 211.336   4
  23 -12   2 1026.21 223.667   2
  11  12   2 884.720 207.619   1
 -23  11   2 821.636 124.842   3
  12 -23   5 1351.32 248.712   2
  23 -12   5 1944.21 273.701   2
  23 -12   5 1541.85 242.687   4
 -23  11   5 1715.90 223.109   3
  11  12   5 1476.67 265.779   1
  12 -23   5 1534.81 267.584   4
  11  12   5 1627.18 166.161   2
 -12 -11   5 1856.23 265.749   3
 -11  23   5 1690.79 267.613   1
  12 -23   5 1599.44 236.074   3
  12 -23   8 119.962 166.458   3
  12 -23   8-108.784 201.657   4
  12 -23   8-31.6589 213.984   2
  23 -12   8 130.444 205.121   2
 -23  11   8-270.481 211.496   3
 -11  23   8-279.467 222.743   1
 -23  11   8-223.542 191.234   1
  11  12   8-243.012 217.724   1
  23 -12   8 82.5706 174.346   4
 -12 -11   8-142.847 208.342   3
  23 -11  -8-248.369 249.578   2
  11 -23  -8 192.413 133.713   4
  23 -11  -8 106.707 199.897   4
  23 -11  -5 1436.32 278.117   2
 -11 -12  -5 1037.11 118.536   2
  11 -23  -5 1658.99 219.409   4
  23 -11  -5 1446.44 276.482   4
  12  11  -5 1305.77 97.7051   1
  11 -23  -5 1235.34 106.817   2
  12  11  -5 1302.89 111.314   1
 -11 -12  -2 620.128 195.086   3
  12  11  -2 949.065 223.808   2
 -12  23  -2 952.734 196.141   1
  11 -23  -2 1178.39 232.085   4
  12  11  -2 1052.35 167.124   1
  11 -23  -2 993.793 135.130   2
  23 -11  -2 1000.16 225.500   4
 -11 -12  -2 928.375 158.458   2
  23 -11  -2 786.275 198.214   2
  11 -23   1 2114.10 258.420   3
  11 -23   1 2135.03 283.427   4
  11 -23   1 2266.27 245.396   2
  12  11   1 2333.84 262.909   1
  23 -11   1 2121.88 277.025   4
  23 -11   1 2082.64 266.561   2
 -12  23   1 2139.51 263.630   1
 -23  12   1 1960.80 125.780   3
  12  11   1 2389.95 260.228   2
 -11 -12   1 2258.38 257.171   3
 -11 -12   4 498.157 173.325   3
 -12  23   4 195.086 170.197   1
  12  11   4 587.328 154.273   2
  11 -23   4 599.203 173.525   3
  11 -23   4 373.871 194.988   4
  11 -23   4 316.599 190.485   2
  23 -11   4 415.342 193.307   4
  23 -11   4 367.945 197.109   2
  12  11   4 957.177 230.017   1
 -23  12   4 541.820 157.730   3
  11 -23   7 583.910 214.743   3
  11 -23   7 294.419 195.961   4
 -23  12   7 909.707 223.669   1
  11 -23   7 912.884 248.450   2
  23 -11   7 913.030 200.771   4
  23 -11   7 740.063 237.053   2
  12  11   7 897.438 257.466   1
 -23  12   7 367.124 195.750   3
 -12  23   7 974.186 267.889   1
 -11 -12   7 170.708 181.705   3
  23 -10  -9-203.357 266.678   2
  23 -10  -9-287.062 241.161   4
  10 -23  -6 834.466 176.678   4
  23 -10  -6 679.652 239.860   4
 -13  23  -3 70.9222 147.063   1
 -10 -13  -3 565.550 187.241   3
  13  10  -3 7.56601 189.127   2
  10 -23  -3 311.863 151.490   4
  23 -10  -3 428.970 224.215   4
 -10 -13  -3 248.004 108.922   2
  10 -23  -3 92.8699 82.4565   2
  13  10  -3 308.609 111.877   1
  23 -10  -3 427.157 207.517   2
  10 -23   0 1728.84 248.288   3
 -10 -13   0 1529.26 223.348   3
  10 -23   0 1878.78 261.293   4
  10 -23   0 1502.29 188.966   2
  23 -10   0 1649.28 262.412   4
  23 -10   0 1771.29 263.010   2
  13  10   0 1382.31 197.455   1
 -13  23   0 1345.00 226.021   1
  13  10   0 1522.60 255.222   2
 -10 -13   3-279.151 177.584   3
  13  10   3 47.9600 128.890   2
  10 -23   3 163.533 145.138   3
 -13  23   3 392.593 201.337   1
  10 -23   3 132.545 174.131   4
  10 -23   3 311.070 160.770   2
  23 -10   3-52.9622 161.332   4
  13  10   3 82.4221 165.248   1
  23 -10   3 64.4818 150.488   2
 -23  13   3 119.038 101.034   3
 -13  23   6 1292.91 274.945   1
 -23  13   6 1454.46 272.573   1
  10 -23   6 1379.27 229.974   3
  10 -23   6 1865.67 301.237   4
  23 -10   6 1681.93 250.082   4
  23 -10   6 1341.77 237.407   2
  13  10   6 1131.91 271.263   1
  13  10   6 1220.38 165.760   2
  23 -10   6 870.340 67.8079   3
 -23  13   6 1011.05 211.141   3
 -10 -13   6 1413.74 266.071   3
  10 -23   9 373.631 227.428   3
 -13  23   9 87.4436 207.407   1
  10 -23   9 376.642 255.658   4
  10 -23   9 226.933 221.730   2
  23 -10   9-395.617 223.124   1
  23 -10   9 147.470 198.384   2
 -23  13   9-137.727 200.443   1
 -23  13   9 250.405 210.805   3
  13  10   9 540.663 251.772   1
 -10 -13   9 536.913 253.851   3
  23  -9  -7 547.575 243.687   2
   9 -23  -7 1040.54 169.584   4
  23  -9  -7 680.418 243.083   4
  23  -9  -4 367.918 237.213   2
 -14  23  -4 16.4098 145.617   1
  14   9  -4 411.103 241.902   2
   9 -23  -4 37.1925 150.717   4
  -9 -14  -4 138.104 83.4230   2
  23  -9  -4 161.526 218.266   4
  14   9  -4 46.2242 88.1776   1
  14   9  -4 258.711 108.635   1
   9 -23  -4 154.316 60.7550   2
  14   9  -1 705.056 203.422   2
  -9 -14  -1 535.969 170.938   3
 -14  23  -1 310.482 163.396   1
   9 -23  -1 714.086 198.045   3
   9 -23  -1 848.623 197.751   4
   9 -23  -1 796.834 141.715   2
  14   9  -1 957.161 181.656   1
  14   9  -1 982.488 237.919   4
  23  -9  -1 910.541 236.378   4
  -9 -14  -1 832.452 162.825   2
  23  -9  -1 1299.95 235.431   2
  14   9   2 1123.22 212.685   2
  -9 -14   2 694.161 201.067   3
   9 -23   2 717.061 198.245   3
   9 -23   2 945.714 193.148   2
 -14  23   2 594.977 204.893   1
  23  -9   2 518.832 198.766   4
  14   9   2 950.109 211.643   1
  14   9   2 870.424 198.223   4
 -23  14   2 899.952 132.229   3
  23  -9   2 704.690 199.073   2
  -9 -14   5 624.450 210.729   3
   9 -23   5 528.139 180.654   3
 -14  23   5 487.784 206.682   1
  23  -9   5 569.425 192.546   4
  23  -9   5 370.866 177.917   2
  14   9   5 535.032 199.527   1
 -23  14   5 930.625 191.010   3
 -23  14   5 568.874 214.759   1
  14   9   5 514.993 149.026   2
   9 -23   8 151.979 198.073   3
 -14  23   8-34.2420 217.449   1
   9 -23   8 354.515 229.989   4
 -23  14   8-160.842 200.240   1
  23  -9   8 156.386 163.933   4
  23  -9   8 153.692 213.744   2
  14   9   8-5.85446 202.151   1
 -23  14   8 244.725 190.196   3
  -9 -14   8 247.356 214.935   3
  23  -8  -8 233.894 250.419   2
  23  -8  -8 347.929 238.006   4
  23  -8  -5 703.994 258.629   2
  15   8  -5 876.617 119.734   1
   8 -23  -5 1428.61 214.734   4
  15   8  -5 1285.29 128.911   1
  23  -8  -5 1317.68 291.035   4
  15   8  -2 431.679 199.794   2
  -8 -15  -2 740.880 219.282   3
   8 -23  -2 594.021 184.540   4
   8 -23  -2 530.817 111.388   2
  15   8  -2 252.003 121.604   1
  23  -8  -2 807.947 246.883   4
  15   8  -2 1231.81 282.093   4
  -8 -15  -2 404.846 118.491   2
 -15  23  -2 557.567 185.290   1
  23  -8  -2 587.976 207.970   2
   8 -23   1 3250.20 306.977   3
 -23  15   1 3000.37 171.368   3
   8 -23   1 3408.18 272.842   2
  15   8   1 3505.67 307.148   1
  23  -8   1 3741.76 355.492   4
  15   8   1 3372.09 340.426   4
  23  -8   1 3306.03 320.189   2
 -15  23   1 3028.35 332.206   1
 -23  15   1 3119.17 161.921   3
  15   8   1 3151.30 303.292   2
  -8 -15   1 3115.14 297.901   3
  -8 -15   4 616.181 191.255   3
   8 -23   4 972.709 217.044   3
 -15  23   4 275.126 122.512   2
 -15  23   4 590.646 206.938   1
  23  -8   4 812.400 200.705   4
  15   8   4 691.324 215.522   1
  15   8   4 375.085 172.705   4
  23  -8   4 581.600 195.815   2
 -23  15   4 638.571 152.570   3
 -23  15   4 24.2888 176.355   1
  15   8   4 365.992 156.615   2
   8 -23   7 983.427 227.956   3
 -23  15   7 1065.23 273.421   1
 -15  23   7 1113.54 258.711   1
  23  -8   7 1163.55 226.203   4
  23  -8   7 1572.90 263.920   2
  15   8   7 1221.43 296.257   1
  23  -8   7 1209.62 124.442   3
 -23  15   7 982.334 241.700   3
  15   8   7 1063.86 172.796   2
  -8 -15   7 1319.53 278.361   3
  23  -7  -6 1778.64 320.414   2
  16   7  -6 1090.13 99.4665   1
   7 -23  -6 1364.28 192.620   4
  23  -7  -6 1881.80 325.928   4
  23  -7  -3 69.8337 184.269   2
  16   7  -3 302.462 202.996   2
  -7 -16  -3 190.385 176.194   3
 -16  23  -3 445.931 189.211   1
   7 -23  -3 101.610 154.465   4
  16   7  -3 212.254 122.985   1
  23  -7  -3 238.008 200.552   4
   7 -23  -3 165.763 66.5938   2
  16   7  -3 42.3077 205.430   4
  -7 -16  -3 17.4913 85.8307   2
  -7 -16   0 2140.65 273.131   3
   7 -23   0 2191.14 270.160   3
   7 -23   0 2582.72 226.354   2
  16   7   0 2288.28 251.191   1
  23  -7   0 2419.00 310.839   4
  16   7   0 2210.45 309.059   4
  23  -7   0 2508.44 296.796   2
 -23  16   0 1651.05 82.2161   3
  16   7   0 2771.95 301.550   2
 -16  23   0 2372.05 290.951   1
 -23  16   0 1636.27 88.1696   3
  16   7   3-422.276 177.074   2
  -7 -16   3 101.560 163.380   3
 -23  16   3-86.1098 177.184   1
   7 -23   3 1.84110 147.629   3
  16   7   3-313.310 197.507   1
  23  -7   3 14.3896 162.557   4
 -16  23   3-67.4280 183.052   1
  16   7   3 60.0100 160.619   4
  23  -7   3-99.4206 151.265   2
 -23  16   3-88.4791 112.104   3
  -7 -16   6 1061.14 251.214   3
 -23  16   6 1304.85 267.141   1
   7 -23   6 724.026 197.965   3
 -16  23   6 1047.47 252.241   1
  23  -7   6 815.807 221.066   4
  16   7   6 1227.37 298.995   1
  23  -7   6 889.037 227.565   2
  23  -7   6 758.217 97.2705   3
 -23  16   6 1225.02 220.156   3
  16   7   6 817.485 169.947   2
  23  -6  -7 329.547 279.376   2
  -6 -17  -7 23.6603 98.9653   4
   6 -23  -7 131.818 119.975   4
  23  -6  -7-61.3447 230.208   4
  23  -6  -4 169.807 206.187   2
  17   6  -4 296.672 237.516   2
  17   6  -4 84.5915 121.482   1
   6 -23  -4 108.677 152.532   4
  17   6  -4 172.719 105.109   1
  -6 -17  -4 209.004 53.8661   2
  23  -6  -4-21.8459 206.299   4
  17   6  -4 241.894 222.521   4
 -17  23  -1 143.765 109.354   3
  17   6  -1 332.779 200.738   2
  -6 -17  -1-146.148 178.200   3
   6 -23  -1 54.9179 178.973   3
   6 -23  -1 236.418 109.798   2
  17   6  -1 243.495 150.708   1
  17   6  -1 16.6367 207.964   4
  23  -6  -1 153.562 100.370   3
 -17  23  -1-64.9043 164.754   1
  23  -6  -1-150.592 210.653   4
  23  -6  -1 173.139 172.565   2
  -6 -17  -1 164.105 129.261   2
  17   6   2 305.213 174.495   2
  -6 -17   2-17.6157 149.778   3
   6 -23   2-139.315 169.722   3
 -23  17   2 2.54675 173.763   1
  17   6   2-200.972 169.512   1
  23  -6   2 16.5431 154.646   4
  17   6   2 225.407 177.258   4
 -23  17   2 105.520 96.7828   3
  23  -6   2 23.7481 37.8071   3
  23  -6   2-146.424 168.584   2
 -17  23   2-59.3024 166.791   1
 -23  17   5 79.6395 196.324   1
  -6 -17   5-142.350 176.124   3
   6 -23   5 66.2029 166.747   3
 -17  23   5 33.7581 169.176   1
  23  -6   5 113.229 157.152   4
  17   6   5-177.085 191.568   1
  17   6   5-33.0307 146.933   4
  23  -6   5 174.951 167.150   2
  23  -6   5 137.702 60.4732   3
 -23  17   5 144.197 143.581   3
  17   6   5 51.9175 129.828   2
   6 -23   8 126.691 183.368   3
 -17  23   8 354.752 235.558   1
  23  -6   8 201.092 213.521   1
  23  -6   8 215.304 156.347   4
  23  -6   8 116.006 165.583   2
  17   6   8 53.2409 208.223   1
 -23  17   8-206.829 180.138   1
 -23  17   8 440.303 190.173   3
  17   6   8 134.602 132.424   2
  -6 -17   8-24.0565 219.317   3
  23  -5  -8 19.9839 262.382   2
  23  -5  -8 357.853 258.264   4
  23  -5  -5 1253.86 314.999   2
  18   5  -5 1063.20 308.271   2
   5 -23  -5 1023.67 199.602   4
  23  -5  -5 1164.86 284.695   4
  18   5  -5 1456.17 300.762   4
  18   5  -2 548.549 228.544   2
   5 -23  -2 510.479 131.237   2
  -5 -18  -2 669.387 217.603   3
   5 -23  -2 379.731 198.958   3
   5 -23  -2 612.255 114.861   2
  23  -5  -2 746.754 259.018   4
  18   5  -2 338.499 210.391   4
  23  -5  -2 512.416 139.746   3
 -18  23  -2 634.687 203.268   1
  -5 -18  -2 419.707 123.496   2
 -18  23  -2 458.481 115.889   3
  23  -5  -2 847.085 243.513   2
   5 -23   1 1630.98 246.596   3
 -23  18   1 1787.53 151.613   3
  -5 -18   1 1796.20 257.448   3
  18   5   1 2211.95 255.646   1
  23  -5   1 2040.02 296.206   4
  18   5   1 2099.49 295.638   4
  23  -5   1 2439.48 294.388   2
 -23  18   1 2150.77 303.066   1
 -23  18   1 1715.37 142.569   3
  23  -5   1 1779.83 131.333   3
  18   5   1 2102.22 281.066   2
 -18  23   1 1843.69 279.085   1
  -5 -18   4 276.514 169.714   3
 -23  18   4 108.647 199.852   1
   5 -23   4 298.904 178.211   3
  18   5   4 558.351 231.819   1
  23  -5   4-92.2397 174.296   4
  18   5   4 211.124 170.833   4
 -23  18   4 581.719 161.363   3
  23  -5   4 318.144 185.131   2
 -18  23   4 679.511 212.454   1
   5 -23   4 152.593 121.308   1
  18   5   4 172.798 147.451   2
  23  -5   4 145.391 60.2655   3
   5 -23   7 1586.86 288.385   3
  23  -5   7 1379.81 300.723   1
 -18  23   7 975.422 274.593   1
  23  -5   7 1388.97 235.060   4
 -23  18   7 1215.49 265.996   1
  18   5   7 1367.26 302.125   1
  23  -5   7 1155.86 243.906   2
  23  -5   7 1538.65 162.593   3
 -23  18   7 1286.17 254.773   3
  18   5   7 1175.63 198.494   2
  -5 -18   7 2054.79 310.504   3
  23  -4  -6 637.215 272.955   2
  19   4  -6 874.409 282.891   2
   4 -23  -6 1285.97 194.392   4
  23  -4  -6 1215.84 298.137   4
  19   4  -6 1120.48 313.294   4
  23  -4  -3-172.913 203.589   2
   4 -23  -3 17.3524 65.3122   2
  19   4  -3 126.161 216.085   2
  -4 -19  -3 265.008 195.204   3
   4 -23  -3 137.248 178.819   4
   4 -23  -3 105.634 56.6322   2
  23  -4  -3-281.896 211.761   4
  19   4  -3-287.886 234.187   4
  -4 -19  -3 40.1122 77.8381   2
 -19  23  -3-176.272 105.195   3
  19   4   0 1005.22 233.807   2
  -4 -19   0 1107.11 237.557   3
   4 -23   0 836.768 216.921   3
  23  -4   0 1442.81 289.435   4
  19   4   0 1387.02 265.205   4
  23  -4   0 943.580 133.902   3
 -19  23   0 1360.08 263.721   1
 -23  19   0 1741.56 286.716   1
  23  -4   0 1173.13 249.675   2
 -19  23   0 1149.65 165.082   3
 -23  19   0 1044.27 105.103   3
  -4 -19   3 154.123 167.288   3
   4 -23   3 20.2930 153.065   3
 -23  19   3-83.6121 179.183   1
  19   4   3 254.180 179.023   1
  23  -4   3 509.258 199.113   4
  19   4   3 282.133 166.625   4
 -23  19   3 229.083 128.040   3
  23  -4   3 223.718 166.271   2
  23  -4   3 117.806 66.8839   3
  19   4   3 330.220 186.526   2
 -19  23   3 54.0951 175.398   1
  -4 -19   6 879.686 231.332   3
   4 -23   6 796.208 236.926   3
  19   4   6 916.456 260.231   1
 -23  19   6 520.854 243.037   1
  23  -4   6 1141.84 235.842   4
  19   4   6 746.393 198.216   4
  23  -4   6 1012.18 226.974   2
 -19  23   6 896.015 275.944   1
 -23  19   6 673.955 215.331   3
  19   4   6 987.415 210.385   2
  23  -3  -7 6.87267 241.260   2
  -3 -20  -7 103.833 111.329   4
   3 -23  -7-88.5093 115.613   4
  23  -3  -7 143.270 229.057   4
  20   3  -7-26.8049 223.002   4
  23  -3  -4 179.276 240.129   2
  20   3  -4 379.924 235.095   2
   3 -23  -4 397.268 180.279   4
  23  -3  -4 797.013 258.299   4
  20   3  -4 880.690 285.795   4
 -20  23  -4 285.797 110.982   3
 -20  23  -1 43.8273 94.8140   3
  -3 -20  -1 96.4845 123.204   2
  20   3  -1 344.170 193.691   2
   3 -23  -1 204.777 143.379   2
  -3 -20  -1-130.106 189.831   3
   3 -23  -1 26.0000 165.964   3
 -20  23  -1 170.701 174.088   1
  23  -3  -1 152.830 197.964   4
  20   3  -1-42.9747 219.537   4
  23  -3  -1 134.841 112.831   3
 -23  20  -1 50.1221 41.7116   3
  23  -3  -1 123.907 186.163   2
  -3 -20   2 968.102 211.523   3
   3 -23   2 1421.28 242.584   3
 -23  20   2 1073.25 165.266   3
 -20  23   2 1126.26 244.805   1
 -23  20   2 1364.33 271.455   1
  20   3   2 1506.24 253.960   1
  23  -3   2 1577.30 262.266   4
  20   3   2 1441.78 256.624   4
  23  -3   2 1568.97 140.633   3
  23  -3   2 1733.43 260.925   2
  20   3   2 1648.75 255.014   2
  -3 -20   5 325.370 192.450   3
   3 -23   5-57.2830 184.136   3
  20   3   5-82.8876 197.388   1
 -23  20   5-109.757 198.197   1
  23  -3   5 252.434 186.405   4
  20   3   5-296.443 188.687   4
 -23  20   5 273.373 159.628   3
  23  -3   5 75.1833 178.195   2
  20   3   5 113.178 156.476   2
 -20  23   5 109.890 187.042   1
  -3 -20   8 353.190 231.952   3
   3 -23   8 232.334 206.117   3
 -23  20   8 215.269 215.821   1
  23  -3   8 336.554 252.193   1
  20   3   8 379.348 232.970   1
  23  -3   8 666.678 224.385   2
 -23  20   8 597.872 249.604   3
 -20  23   8 438.627 254.261   1
  20   3   8 440.284 183.775   2
  23  -2  -8 396.409 291.003   2
  23  -2  -8 553.703 296.054   4
  21   2  -8 453.547 293.643   4
  23  -2  -5 1118.20 294.731   2
  21   2  -5 1973.59 361.753   2
   2 -23  -5 1732.68 238.443   4
  23  -2  -5 1812.65 362.406   4
  21   2  -5 1420.20 328.683   4
  23  -2  -2 1331.80 280.181   2
   2 -23  -2 731.495 136.872   2
  21   2  -2 918.468 274.445   2
  -2 -21  -2 1018.00 245.566   3
   2 -23  -2 1050.63 250.301   3
   2 -23  -2 1156.95 145.139   2
 -21  23  -2 1087.36 269.651   1
  23  -2  -2 856.892 276.303   4
  21   2  -2 1180.31 277.821   4
 -23  21  -2 663.093 65.5071   3
 -21  23  -2 864.784 126.970   3
  -2 -21  -2 959.832 149.932   2
  -2 -21   1 2009.76 281.269   3
   2 -23   1 1794.30 277.298   3
 -21  23   1 2566.96 320.074   1
  21   2   1 2251.71 309.028   4
  23  -2   1 1759.10 289.175   4
  23  -2   1 1915.68 282.062   2
  23  -2   1 1809.03 163.517   3
 -23  21   1 1809.38 292.092   1
 -21  23   1 1721.01 186.556   3
  21   2   1 1660.70 270.111   2
 -23  21   1 1507.38 160.637   3
  -2 -21   4 189.457 165.958   3
   2 -23   4 293.890 185.652   3
 -21  23   4 113.932 200.599   1
  21   2   4 284.419 204.248   1
  23  -2   4 332.240 203.286   4
  21   2   4 503.496 193.858   4
 -23  21   4 361.491 219.692   1
  23  -2   4 478.547 204.090   2
  21   2   4 261.971 167.939   2
  -2 -21   7 1092.83 267.938   3
   2 -23   7 1390.18 266.771   3
 -23  21   7 1322.35 278.661   1
  23  -2   7 1770.15 322.635   1
  21   2   7 1772.71 237.639   4
  21   2   7 1318.32 309.694   1
  21   2   7 1742.43 257.952   2
  23  -2   7 955.099 212.089   4
 -23  21   7 1771.69 311.163   3
  23  -2   7 1403.64 261.411   2
 -21  23   7 2107.92 350.105   1
  23  -1  -6 509.478 263.287   2
  22   1  -6 149.056 237.791   2
  -1 -22  -6 474.203 156.602   4
   1 -23  -6 463.191 168.600   4
  23  -1  -6 649.128 285.086   4
  22   1  -6 678.689 266.357   4
  23  -1  -3 301.041 223.378   2
  22   1  -3-197.287 231.199   2
  -1 -22  -3 246.752 72.5917   2
   1 -23  -3 249.669 62.8985   2
  23  -1  -3 259.248 236.521   4
 -23  22  -3 89.9541 52.4836   3
  -1 -22  -3 161.841 77.7039   2
 -22  23  -3 149.663 77.4826   3
   1 -23  -3 125.325 67.7828   2
  22   1   0 948.134 237.271   2
 -23  22   0 445.714 108.833   3
 -22  23   0 584.419 124.350   3
  -1 -22   0 414.443 209.169   3
   1 -23   0 612.820 227.947   3
 -23  22   0 740.947 238.614   1
 -22  23   0 1006.36 244.623   1
  23  -1   0 916.507 260.603   4
  22   1   0 1107.92 294.790   4
  23  -1   0 368.144 124.976   3
  23  -1   0 1191.50 245.351   2
  -1 -22   3 857.446 223.959   3
   1 -23   3 468.690 205.355   3
 -22  23   3 456.925 219.428   1
  23  -1   3 647.899 230.403   4
  22   1   3 599.649 211.376   4
 -23  22   3 497.508 205.330   1
  23  -1   3 974.510 236.809   2
  22   1   3 942.530 233.900   2
  23  -1   3 557.820 124.384   3
  -1 -22   6 117.330 187.601   3
   1 -23   6 344.332 203.843   3
 -22  23   6 374.748 236.085   1
 -23  22   6 44.6689 200.748   1
  23  -1   6 332.315 227.501   1
  23  -1   6 230.992 186.425   4
  22   1   6 399.152 180.131   4
  22   1   6 178.182 207.865   1
 -23  22   6 457.738 197.849   3
  23  -1   6 242.864 187.618   2
  22   1   6 169.187 180.889   2
  23   0  -7 32.9103 251.403   2
  23   0  -7-159.196 241.899   4
  23   0  -4 109.535 208.976   2
  23   0  -4 297.809 271.414   4
  23   0  -1 60.2791 181.100   2
   0 -23  -1 102.006 134.061   2
   0 -23  -1-65.2302 191.894   3
 -23  23  -1-86.3616 194.841   1
  23   0  -1 82.5008 212.676   4
 -23  23  -1-45.4595 81.2854   3
   0 -23   2 1524.65 254.474   3
  23   0   2 2087.93 317.138   4
  23   0   2 1475.40 173.037   3
 -23  23   2 1316.84 274.687   1
  23   0   2 1566.90 268.786   2
   0 -23   5-194.720 185.505   3
 -23  23   5-197.448 207.621   1
  23   0   5-188.777 196.061   1
  23   0   5 324.929 221.119   4
  23   0   5 294.953 191.388   2
  24 -24  -6 792.455 239.400   2
  24 -24  -6 946.362 267.638   4
   0  24  -3 189.112 124.706   1
  24 -24  -3 444.778 236.398   4
  24 -24  -3 53.3643 174.932   2
  24 -24   0 1155.69 258.421   4
  24 -24   0 1666.65 265.673   2
   0  24   0 1237.47 226.358   1
 -24   0   0 1703.78 209.877   3
 -24   0   3-37.7975 138.827   3
   0  24   3-144.730 185.248   1
  24 -24   3-291.667 229.656   4
  24 -24   3-50.2614 184.505   2
  24 -24   6-20.9581 226.092   4
   0  24   6 582.025 228.179   1
  24 -24   6-47.3601 195.272   2
 -24   0   6 463.448 203.582   3
  24 -23  -7 1064.51 260.246   2
  23 -24  -7 958.639 249.811   2
  23 -24  -7 1161.50 262.474   4
  24 -23  -7 1108.25 254.072   4
  23 -24  -4 27.8707 188.449   4
   1  23  -4 303.538 119.662   1
  24 -23  -4 231.626 185.818   4
  -1  24  -4 263.592 133.632   1
  23 -24  -4 279.658 174.321   2
  24 -23  -4 640.021 196.727   2
  -1  24  -1 1793.46 239.630   1
 -23  -1  -1 1965.70 224.134   3
 -24   1  -1 1949.60 210.004   3
  23 -24  -1 2151.03 316.249   4
  24 -23  -1 2137.44 312.212   4
  23 -24  -1 1892.16 270.124   2
  24 -23  -1 2342.49 282.551   2
   1  23  -1 1716.46 236.534   1
 -24   1   2 50.7571 124.955   3
 -23  -1   2 40.5102 126.461   3
   1  23   2 105.403 168.663   1
  23 -24   2 327.841 231.583   4
  24 -23   2-101.479 180.558   4
  -1  24   2 91.5137 166.548   1
  23 -24   2-210.344 173.278   2
  24 -23   2 185.527 169.153   2
  23 -24   5 1103.19 141.987   3
   1  23   5 1958.05 309.584   1
  -1  24   5 1286.02 281.828   1
  23 -24   5 1403.23 285.670   4
  24 -23   5 1479.83 276.781   4
  23 -24   5 1801.65 294.527   2
  24 -23   5 1615.22 300.898   2
 -23  -1   5 1607.17 252.673   3
 -24   1   5 1427.15 226.882   3
   2  22  -5 684.652 107.375   1
  22 -24  -5 1064.64 240.419   4
  24 -22  -5 880.333 242.478   4
  -2  24  -5 852.812 148.749   1
  22 -24  -5 953.971 217.916   2
  24 -22  -5 1115.76 239.719   2
  -2  24  -2 627.816 168.086   1
 -22  -2  -2 874.105 191.427   3
  22 -24  -2 1337.23 269.849   4
  24 -22  -2 980.976 238.489   4
   2  22  -2 845.443 164.097   1
  22 -24  -2 649.563 176.478   2
  24 -22  -2 675.491 203.408   2
 -24   2   1 875.253 157.894   3
 -22  -2   1 1088.16 182.319   3
   2  22   1 1209.23 218.306   1
  22 -24   1 1029.53 243.041   4
  24 -22   1 1310.27 265.428   4
  -2  24   1 1241.71 239.330   1
  22 -24   1 1396.74 251.683   2
  24 -22   1 765.306 234.886   2
  22 -24   4 762.079 142.974   3
   2  22   4 316.941 220.552   1
  22 -24   4 323.059 207.790   4
  24 -22   4 412.832 214.593   4
  -2  24   4 430.239 210.275   1
  22 -24   4 376.994 211.701   2
  24 -22   4-36.1711 193.498   2
 -24   2   4 184.322 142.617   3
 -22  -2   4 311.503 181.910   3
   2  22   7 595.258 268.977   1
  22 -24   7 1103.88 274.966   4
  -2  24   7 1070.80 270.122   1
  22 -24   7 1427.61 307.066   2
  24 -22   7 1133.51 272.328   2
  24 -22   7 860.211 242.783   4
 -24   2   7 531.034 212.720   3
 -22  -2   7 1192.03 275.692   3
  21 -24  -6 367.991 182.950   2
  24 -21  -6 460.873 229.792   2
  21 -24  -6 192.523 198.753   4
  24 -21  -6 680.367 249.666   4
  21 -24  -3 96.0664 166.757   4
  24 -21  -3 35.2624 208.558   4
   3  21  -3 86.8191 110.358   1
  21 -24  -3-65.2483 137.482   2
  -3  24  -3 132.051 125.360   1
  24 -21  -3 70.1918 167.103   2
 -24   3   0 1038.53 151.542   3
 -21  -3   0 961.952 193.875   3
  21 -24   0 950.496 235.132   4
  24 -21   0 528.953 206.662   4
  21 -24   0 952.984 194.308   2
  24 -21   0 892.626 222.208   2
  -3  24   0 1037.01 207.580   1
   3  21   0 1237.51 229.327   1
 -21  -3   3 536.313 175.517   3
   3  21   3 69.0389 177.819   1
  21 -24   3 413.043 136.871   3
  21 -24   3 442.317 212.456   4
  24 -21   3 373.359 210.926   4
  -3  24   3 475.829 205.160   1
  21 -24   3 362.058 163.264   2
  24 -21   3 258.687 176.214   2
 -24   3   3 386.805 148.447   3
  21 -24   6 126.176 120.507   3
   3  21   6 868.916 271.714   1
  21 -24   6 140.014 184.906   4
  24 -21   6 30.6426 181.548   4
  -3  24   6-57.8707 195.115   1
  21 -24   6 88.3366 183.827   2
  24 -21   6 157.383 188.018   2
 -24   3   6-6.01578 157.743   3
 -21  -3   6 272.319 177.903   3
  24 -20  -7 1241.81 292.148   2
  20 -24  -7 987.587 225.358   2
  20 -24  -7 882.336 224.795   4
  24 -20  -7 1093.41 263.032   4
   4  20  -4 444.900 110.789   1
  -4  24  -4 202.797 118.188   1
  20 -24  -4 754.594 203.470   4
  24 -20  -4 398.638 210.845   4
  20 -24  -4 448.107 166.309   2
  24 -20  -4 395.466 192.112   2
 -20  -4  -1 1599.32 221.421   3
 -24   4  -1 1405.15 146.021   3
  -4  24  -1 1654.48 217.978   1
  20 -24  -1 1356.05 239.755   4
  20 -24  -1 1412.24 203.159   2
  24 -20  -1 1241.18 224.564   2
  24 -20  -1 1435.54 281.487   4
   4  20  -1 1591.06 209.058   1
 -24   4   2 280.481 119.261   3
 -20  -4   2 150.403 137.862   3
   4  20   2 78.6454 169.828   1
  20 -24   2 303.636 179.882   4
  24 -20   2 78.2723 174.497   4
  20 -24   2 99.5361 158.949   2
  -4  24   2 499.685 195.968   1
  24 -20   2 177.885 198.226   2
  20 -24   5 1322.04 185.601   3
   4  20   5 1242.58 270.488   1
  20 -24   5 1651.74 296.647   4
  20 -24   5 1893.20 293.110   2
  24 -20   5 1656.85 276.509   4
  24 -20   5 2088.32 302.362   2
  -4  24   5 1152.24 275.850   1
 -24   4   5 1441.21 228.162   3
 -20  -4   5 1008.96 225.338   3
  20 -24   8 361.186 156.989   3
   4  20   8 456.328 239.306   1
  20 -24   8 751.349 254.018   4
  24 -20   8 557.481 212.874   4
  20 -24   8 547.364 253.501   2
  -4  24   8 546.515 250.774   1
  24 -20   8 247.017 236.641   2
 -24   4   8 481.623 229.900   3
 -20  -4   8 646.034 246.795   3
  24 -19  -8 180.979 254.574   2
  19 -24  -8 149.134 174.627   4
  24 -19  -8-86.3753 196.113   4
  19 -24  -5 521.351 201.426   4
  -5  24  -5 419.979 134.434   1
  24 -19  -5 589.400 220.233   4
   5  19  -5 196.863 60.7253   1
  19 -24  -5 515.609 173.339   2
  24 -19  -5 283.294 203.775   2
 -19  -5  -2 400.281 169.082   3
  -5  24  -2 425.695 151.871   1
   5  19  -2 845.872 152.409   1
  19 -24  -2 545.634 220.587   4
  24 -19  -2 342.390 194.860   4
  19 -24  -2 299.300 144.163   2
  24 -19  -2 285.091 180.066   2
 -24   5   1 489.886 117.565   3
   5  19   1 520.561 173.624   1
 -19  -5   1 721.835 183.068   3
  19 -24   1 825.540 232.313   4
  24 -19   1 287.735 181.594   4
  19 -24   1 296.807 178.391   2
  24 -19   1 676.802 201.068   2
  -5  24   1 266.006 157.440   1
 -19  -5   4 161.688 148.260   3
   5  19   4 448.873 213.812   1
  19 -24   4 314.700 122.646   3
  19 -24   4 665.242 203.135   4
  24 -19   4 176.813 193.686   4
  19 -24   4 394.394 197.004   2
  -5  24   4 132.468 181.658   1
  24 -19   4 79.7775 171.918   2
 -24   5   4 377.355 147.627   3
  19 -24   7 219.753 145.008   3
   5  19   7 792.776 277.779   1
  19 -24   7 622.050 228.205   4
  19 -24   7 497.123 228.543   2
  24 -19   7 460.459 211.776   4
  24 -19   7 459.646 207.268   2
  -5  24   7 423.617 231.146   1
 -24   5   7 513.001 220.379   3
 -19  -5   7 360.160 193.850   3
  18 -24  -6 287.726 150.562   2
  24 -18  -6 521.958 234.230   2
  18 -24  -6 514.843 200.406   4
  24 -18  -6 357.018 200.122   4
  18 -24  -3 1520.79 249.024   4
  24 -18  -3 1054.84 263.151   4
  18 -24  -3 1397.10 193.974   2
   6  18  -3 1095.11 151.375   1
  -6  24  -3 744.272 163.734   1
  24 -18  -3 941.000 229.127   2
 -18  -6   0 1179.10 201.613   3
  -6  24   0 1237.57 223.852   1
  18 -24   0 1241.19 265.482   4
  18 -24   0 1413.07 209.018   2
  24 -18   0 1132.42 232.897   4
   6  18   0 1454.77 216.505   1
  24 -18   0 1029.01 223.578   2
 -24   6   0 1032.73 123.360   3
   6  18   3 1413.05 246.794   1
 -18  -6   3 1097.94 207.577   3
  18 -24   3 1486.77 203.291   3
  24 -18   3 1000.23 225.517   4
  18 -24   3 1153.94 243.029   2
  24 -18   3 598.545 195.681   2
  18 -24   3 1036.36 236.861   4
  -6  24   3 1044.97 235.438   1
 -24   6   3 1454.03 174.366   3
   6  18   6 338.956 214.709   1
  18 -24   6 221.669 149.401   3
  18 -24   6 784.786 246.928   4
  18 -24   6 291.541 205.825   2
  24 -18   6 1048.95 240.105   4
  24 -18   6 836.354 237.308   2
  -6  24   6 619.443 232.548   1
 -24   6   6 909.026 203.965   3
 -18  -6   6 650.214 205.377   3
  24 -17  -7 316.631 260.569   2
  17 -24  -7 438.516 148.504   2
  17 -24  -7 744.396 210.316   4
  24 -17  -7 629.832 244.697   4
  17 -24  -4 1084.02 224.623   4
  24 -17  -4 1292.24 279.502   4
  17 -24  -4 1358.99 185.077   2
  -7  24  -4 1090.80 188.800   1
   7  17  -4 1008.61 123.759   1
  24 -17  -4 1189.58 277.105   2
 -17  -7  -1 2200.23 253.291   3
 -24   7  -1 1626.02 104.541   3
  -7  24  -1 2165.01 245.119   1
  24 -17  -1 2439.57 318.965   4
  17 -24  -1 2353.56 240.992   2
  24 -17  -1 2022.67 278.706   2
   7  17  -1 2468.21 238.113   1
 -17  -7   2 864.967 190.686   3
  17 -24   2 845.296 176.138   3
  17 -24   2 1070.38 247.398   4
  24 -17   2 901.992 227.397   4
  17 -24   2 816.991 199.457   2
  24 -17   2 1002.45 221.733   2
  -7  24   2 726.249 206.551   1
   7  17   2 941.854 215.988   1
 -24   7   2 730.116 129.818   3
  24 -17   5 1754.48 295.995   2
  17 -24   5 2226.31 303.645   2
  17 -24   5 1584.17 289.363   4
  24 -17   5 1577.31 282.862   4
   7  17   5 2262.53 314.776   1
 -24   7   5 1895.81 240.684   3
  17 -24   5 1673.77 221.361   3
  -7  24   5 2032.79 311.794   1
 -17  -7   5 1286.93 238.978   3
   7  17   8 812.678 274.810   1
  17 -24   8 1212.08 223.948   3
  17 -24   8 612.307 255.479   4
  17 -24   8 1194.00 273.224   2
  24 -17   8 1234.22 269.131   4
  24 -17   8 1376.31 276.158   2
  -7  24   8 853.406 278.621   1
 -24   7   8 1248.59 262.868   3
 -17  -7   8 1375.19 292.428   3
  24 -16  -8 352.741 237.149   2
  16 -24  -8-33.7958 151.590   4
  24 -16  -8 445.652 244.986   4
  24 -16  -5-257.727 207.702   2
  16 -24  -5 11.0601 148.483   4
  24 -16  -5-188.223 208.284   4
  -8  24  -5 90.6630 123.245   1
  16 -24  -5-223.224 130.501   2
   8  16  -2 468.226 136.976   1
 -16  -8  -2 532.866 179.323   3
  16 -24  -2 746.526 222.747   4
  24 -16  -2 654.083 224.402   4
  16 -24  -2 688.687 156.972   2
  -8  24  -2 419.283 158.960   1
  24 -16  -2 383.102 206.372   2
 -24   8   1 394.348 93.3385   3
 -16  -8   1 492.135 166.813   3
  16 -24   1 390.296 190.090   4
  16 -24   1 543.391 167.642   3
  24 -16   1 377.096 194.199   4
  16 -24   1 511.356 164.135   2
  24 -16   1 572.384 206.495   2
   8  16   1 432.161 158.723   1
  -8  24   1 590.976 177.111   1
 -16  -8   4 511.937 172.337   3
  16 -24   4 655.473 174.775   3
  16 -24   4 623.730 217.194   4
  16 -24   4 714.717 209.919   2
  24 -16   4 815.297 214.056   4
  24 -16   4 458.990 197.763   2
  -8  24   4 183.401 191.914   1
 -24   8   4 586.264 163.255   3
   8  16   4 682.831 203.631   1
  16 -24   7-167.147 160.467   3
  16 -24   7 399.560 209.755   2
  24 -16   7 81.0900 185.660   4
  24 -16   7-429.364 229.791   2
  -8  24   7-241.674 209.479   1
 -24   8   7-22.0708 175.058   3
  16 -24   7-271.418 204.554   4
 -16  -8   7 184.321 204.312   3
   8  16   7 212.120 230.929   1
  24 -15  -6 1161.90 277.222   2
  15 -24  -6 1413.89 221.581   4
  24 -15  -6 1026.91 278.084   4
  15 -24  -6 1145.98 158.329   2
  -9  24  -3 864.257 187.353   1
 -15  -9  -3 892.743 218.932   3
  15 -24  -3 922.188 219.326   4
  24 -15  -3 929.352 229.639   4
   9  15  -3 1159.07 154.961   1
  15 -24  -3 837.868 144.100   2
  24 -15  -3 600.004 199.416   2
 -24   9   0 189.970 59.1684   3
 -15  -9   0 247.825 147.951   3
  -9  24   0 218.878 153.065   1
  15 -24   0 441.167 208.489   4
  24 -15   0 214.542 181.511   4
  15 -24   0 309.331 134.068   2
  24 -15   0 135.158 172.343   2
   9  15   0 30.0560 125.313   1
  15 -24   3 1498.86 216.593   3
  -9  24   3 1912.39 287.939   1
  15 -24   3 1704.14 286.135   4
  15 -24   3 1314.55 225.490   2
  24 -15   3 1681.39 267.511   2
   9  15   3 1800.78 277.001   1
  24 -15   3 1546.91 253.162   4
 -24   9   3 1667.39 176.852   3
 -15  -9   3 1842.02 258.966   3
  15 -24   6 599.233 194.214   3
  15 -24   6 415.790 221.436   4
  15 -24   6 806.502 225.347   2
  24 -15   6 637.427 214.830   4
  24 -15   6 641.272 220.067   2
  -9  24   6 211.057 190.033   1
 -24   9   6 698.340 191.626   3
   9  15   6 669.854 264.048   1
 -15  -9   6 732.992 207.807   3
  24 -14  -7 155.241 226.001   2
  14 -24  -7 688.092 185.726   4
  24 -14  -7 330.334 210.813   4
  10  14  -4 124.980 83.8239   1
 -10  24  -4 84.2362 148.368   1
  14 -24  -4 302.382 163.649   4
 -14 -10  -4 182.017 115.387   2
  24 -14  -4 38.4143 177.467   4
  14 -24  -4 112.088 117.387   2
  24 -14  -4 99.3196 171.026   2
 -14 -10  -1 1585.76 234.820   3
  14 -24  -1 1528.16 241.390   4
  14 -24  -1 1747.02 202.232   2
  10  14  -1 1850.88 218.711   1
  24 -14  -1 1284.17 260.632   4
  24 -14  -1 1858.39 272.039   2
 -10  24  -1 1855.51 245.780   1
  14 -24   2 2096.31 246.957   3
 -14 -10   2 1588.30 221.556   3
 -10  24   2 1703.90 258.266   1
  14 -24   2 2036.45 302.452   4
  14 -24   2 2261.05 254.212   2
  24 -14   2 2117.63 288.176   4
  10  14   2 2237.64 271.588   1
  24 -14   2 1872.37 261.485   2
 -24  10   2 1863.58 162.039   3
  10  14   2 1853.09 211.292   2
 -14 -10   5 1455.54 245.491   3
  14 -24   5 1224.94 207.874   3
  14 -24   5 1667.12 268.363   2
  14 -24   5 1323.10 262.003   4
  24 -14   5 1011.35 224.993   4
  24 -14   5 1489.91 259.191   2
 -24  10   5 1364.37 209.098   3
 -10  24   5 1344.81 275.480   1
  10  14   5 1356.53 268.568   1
  10  14   5 1048.92 129.414   2
  14 -24   8 310.811 177.607   3
  14 -24   8 608.061 233.745   4
  24 -14   8 219.368 203.971   4
  24 -14   8 708.578 250.235   2
  14 -24   8 522.202 243.903   2
 -10  24   8 719.744 268.986   1
 -24  10   8 380.982 204.957   3
  10  14   8 658.113 253.349   1
 -14 -10   8 684.534 249.741   3
  24 -13  -8 258.886 245.381   2
  13 -24  -8 418.127 166.862   4
  24 -13  -8 438.349 238.037   4
  11  13  -5 52.8451 54.1444   1
  24 -13  -5 76.2675 209.680   2
  11  13  -5 132.799 50.5573   1
  13 -24  -5 374.740 152.608   4
  24 -13  -5-61.1147 207.543   4
  13 -24  -5 66.3896 93.0295   2
 -11  24  -2 677.595 176.190   1
 -13 -11  -2 1196.60 242.566   3
  13 -24  -2 1141.57 226.034   4
  11  13  -2 1240.74 171.305   1
  24 -13  -2 900.433 266.464   4
  13 -24  -2 975.562 149.449   2
  24 -13  -2 1004.96 219.004   2
 -13 -11   1 324.002 168.367   3
  13 -24   1 146.143 169.879   4
  13 -24   1-139.053 145.738   3
  11  13   1 253.361 167.561   2
 -11  24   1-115.126 171.500   1
  13 -24   1 118.837 135.706   2
  24 -13   1 511.712 212.018   4
  24 -13   1 9.42298 178.023   2
  11  13   1 294.018 148.853   1
 -24  11   1 140.484 69.7338   3
 -13 -11   4 370.176 172.944   3
  13 -24   4 724.445 183.181   3
  11  13   4 432.656 136.807   2
  13 -24   4 619.836 224.109   4
  13 -24   4 359.613 169.829   2
  24 -13   4 792.338 214.137   4
  24 -13   4 615.857 206.076   2
  11  13   4 566.413 208.071   1
 -24  11   4 315.245 134.395   3
 -11  24   4 739.877 216.587   1
  13 -24   7 408.088 205.434   3
  13 -24   7 568.386 226.930   4
  13 -24   7 377.726 213.786   2
  24 -13   7 913.904 229.590   4
  24 -13   7 473.504 217.570   2
 -24  11   7 866.865 234.073   3
 -11  24   7 463.683 254.660   1
  11  13   7 972.142 276.832   1
 -13 -11   7 823.930 260.928   3
  24 -12  -6 563.147 250.365   2
  12 -24  -6 373.240 159.429   4
  24 -12  -6 289.395 234.621   4
 -12 -12  -3 719.138 203.874   3
  12 -24  -3 636.171 204.687   4
  12  12  -3 902.405 147.289   1
  24 -12  -3 680.967 221.168   4
 -12 -12  -3 570.652 137.653   2
  12 -24  -3 898.344 130.517   2
 -12  24  -3 899.055 182.615   1
  24 -12  -3 503.046 221.554   2
  12 -24   0 229.492 128.927   2
 -12 -12   0 207.683 151.000   3
  12  12   0 310.921 191.998   2
  12 -24   0 347.433 183.655   3
  12 -24   0 453.905 216.604   4
  24 -12   0 432.890 193.726   4
 -12  24   0 312.916 175.079   1
  12  12   0 435.122 153.837   1
  24 -12   0 295.278 177.701   2
 -12 -12   3 805.305 207.442   3
 -12  24   3 885.200 215.644   1
  12  12   3 768.260 172.147   2
  12 -24   3 536.484 185.897   3
  12 -24   3 356.214 185.386   4
  12 -24   3 970.879 203.794   2
  24 -12   3 1046.96 230.408   4
  24 -12   3 707.065 215.330   2
  12  12   3 880.125 217.545   1
 -24  12   3 736.405 143.005   3
  12 -24   6 499.058 183.861   3
  12  12   6 460.237 117.754   2
  12 -24   6 474.764 248.702   4
  12 -24   6 358.168 225.919   2
 -24  12   6 373.588 211.920   1
  24 -12   6 813.901 228.192   4
  24 -12   6 172.372 176.387   2
  12  12   6 98.6902 193.649   1
 -24  12   6 290.277 170.652   3
 -12  24   6-122.553 213.142   1
 -12 -12   6 144.386 175.394   3
  24 -11  -7 845.464 277.668   2
  11 -24  -7 740.901 178.845   4
  24 -11  -7 497.012 220.065   4
  24 -11  -4 599.121 228.585   2
  11 -24  -4 614.870 182.159   4
 -13  24  -4 596.604 188.767   1
 -11 -13  -4 219.572 100.137   2
  24 -11  -4 394.350 215.495   4
  13  11  -4 601.064 114.356   1
  11 -24  -4 436.612 97.6830   2
 -13  24  -1 366.367 185.803   1
 -11 -13  -1 344.590 171.788   3
  13  11  -1 306.015 200.201   2
  11 -24  -1 466.595 180.248   3
  11 -24  -1 486.980 195.264   4
  11 -24  -1-74.3473 107.390   2
  24 -11  -1 110.593 191.445   4
  13  11  -1 90.6193 118.156   1
  24 -11  -1 279.760 186.652   2
 -11 -13   2 858.752 206.967   3
  13  11   2 891.826 189.060   2
  11 -24   2 1222.45 219.726   3
  11 -24   2 1173.22 244.705   4
 -13  24   2 1306.26 241.027   1
  11 -24   2 1138.28 201.097   2
  24 -11   2 1277.30 229.941   4
  13  11   2 1455.61 240.295   1
  24 -11   2 1002.16 211.071   2
 -24  13   2 1447.78 139.985   3
 -11 -13   5 130.805 169.173   3
 -13  24   5 65.3299 197.157   1
  13  11   5-137.203 128.457   2
  11 -24   5 358.674 172.892   3
  11 -24   5-27.6552 208.612   4
  11 -24   5 454.071 192.992   2
  24 -11   5 296.652 199.489   4
  24 -11   5-60.9306 169.326   2
  13  11   5 228.024 195.942   1
 -24  13   5-76.9387 136.405   3
 -24  13   5 118.416 185.891   1
 -13  24   8 92.3112 216.552   1
  11 -24   8 347.043 185.779   3
 -24  13   8 334.515 206.793   1
  11 -24   8-277.859 217.095   4
  11 -24   8 185.662 238.785   2
  24 -11   8 209.645 193.464   4
  24 -11   8 503.265 224.961   2
 -24  13   8 160.125 181.127   3
  13  11   8-213.455 245.764   1
 -11 -13   8 322.082 206.997   3
  24 -10  -8 475.855 273.579   2
  10 -24  -8 564.655 150.687   4
  24 -10  -8 634.012 254.146   4
  24 -10  -5 1126.91 279.844   2
  10 -24  -5 1534.96 231.770   4
  14  10  -5 1103.60 111.738   1
  24 -10  -5 1577.11 294.420   4
 -14  24  -2 1632.47 247.848   1
 -10 -14  -2 2570.71 304.607   3
  10 -24  -2 2163.18 268.297   4
  14  10  -2 2155.84 220.566   1
  10 -24  -2 1951.16 173.223   2
  24 -10  -2 1345.89 263.552   4
 -10 -14  -2 1940.35 200.626   2
  24 -10  -2 1974.36 280.202   2
  14  10  -2 2621.99 316.624   2
  10 -24   1 1639.97 244.724   3
 -10 -14   1 1199.65 226.255   3
  10 -24   1 1872.77 237.664   2
  10 -24   1 1448.60 261.932   4
  14  10   1 1783.71 239.716   1
  24 -10   1 2049.11 301.375   4
  24 -10   1 1792.17 265.602   2
 -14  24   1 1838.59 261.046   1
  14  10   1 1516.65 249.462   4
 -24  14   1 1249.73 107.018   3
  14  10   1 1860.93 263.466   2
 -10 -14   4 86.5845 158.036   3
  14  10   4 92.6256 134.450   2
  10 -24   4 48.0614 154.390   3
 -14  24   4 403.446 220.485   1
  10 -24   4 229.857 193.114   4
  10 -24   4-107.943 154.860   2
  24 -10   4-250.372 196.576   4
  14  10   4 242.102 187.647   1
  24 -10   4 32.6557 163.905   2
 -24  14   4-124.095 178.347   1
 -24  14   4 211.210 137.223   3
  10 -24   7 278.820 191.392   3
 -14  24   7 897.254 264.731   1
  10 -24   7 459.608 234.343   4
  24 -10   7 470.687 191.860   4
  24 -10   7 704.353 228.901   2
  14  10   7 508.125 215.359   1
 -24  14   7 553.863 210.660   3
 -24  14   7 630.312 230.856   1
 -10 -14   7 520.598 228.415   3
  14  10   7 397.669 137.173   2
  24  -9  -6 1221.59 295.930   2
   9 -24  -6 835.360 179.846   4
  24  -9  -6 842.905 259.324   4
  15   9  -3 1813.42 308.173   2
  -9 -15  -3 1434.12 262.454   3
   9 -24  -3 1884.67 269.141   4
  15   9  -3 1662.42 188.136   1
   9 -24  -3 1647.74 141.294   2
  -9 -15  -3 1418.28 159.207   2
  24  -9  -3 1656.25 289.594   4
 -15  24  -3 1406.49 251.568   1
  15   9  -3 1239.98 277.357   4
  24  -9  -3 1498.76 284.677   2
  15   9   0 14.2030 161.528   2
  -9 -15   0 61.7339 160.263   3
   9 -24   0 94.9290 158.455   3
   9 -24   0 113.773 164.596   4
   9 -24   0 31.4392 112.793   2
  24  -9   0 473.193 207.820   4
  15   9   0 431.294 157.374   1
  15   9   0 175.611 185.717   4
  24  -9   0 365.697 193.079   2
 -15  24   0 26.7166 145.878   1
  15   9   3 536.338 167.078   2
  -9 -15   3 559.027 190.296   3
   9 -24   3 387.452 169.731   3
 -24  15   3 630.398 224.617   1
   9 -24   3 688.455 195.480   2
 -15  24   3 764.162 237.423   1
  24  -9   3 831.592 232.551   4
  15   9   3 776.682 223.583   1
  15   9   3 881.210 207.939   4
  24  -9   3 836.975 223.466   2
 -24  15   3 762.736 141.490   3
  -9 -15   6 1224.21 253.165   3
   9 -24   6 961.424 233.973   3
 -15  24   6 1058.87 262.059   1
  24  -9   6 1230.34 234.580   4
  24  -9   6 1090.04 244.499   2
  15   9   6 930.988 257.502   1
 -24  15   6 731.619 244.117   1
 -24  15   6 1073.29 218.695   3
  15   9   6 1152.31 178.850   2
  24  -8  -7-365.608 321.883   2
   8 -24  -7 107.827 124.745   4
  24  -8  -4 457.563 235.793   2
   8 -24  -4 255.825 53.9549   2
  16   8  -4 844.306 257.188   2
   8 -24  -4 456.753 191.349   4
  16   8  -4 403.579 115.651   1
  -8 -16  -4 486.274 90.8732   2
  24  -8  -4 352.308 217.387   4
  16   8  -4 811.727 280.652   4
   8 -24  -4 290.399 55.7996   2
  16   8  -4 355.523 133.390   1
  16   8  -1 726.248 213.871   2
  -8 -16  -1 160.875 169.623   3
   8 -24  -1 623.383 207.598   3
   8 -24  -1 396.191 198.988   4
   8 -24  -1 415.174 125.587   2
 -16  24  -1 692.548 206.957   1
  16   8  -1 473.052 160.698   1
  24  -8  -1 694.401 250.956   4
  16   8  -1 430.683 230.942   4
  24  -8  -1 124.301 167.630   2
  16   8   2 708.690 191.666   2
  -8 -16   2 681.644 210.192   3
   8 -24   2 535.341 184.720   3
   8 -24   2 681.380 184.293   2
  24  -8   2 500.108 193.891   4
  16   8   2 823.441 206.657   1
 -24  16   2 403.088 209.368   1
  16   8   2 756.386 206.390   4
 -16  24   2 877.205 226.651   1
  24  -8   2 767.517 217.878   2
 -24  16   2 696.914 119.221   3
  -8 -16   5 64.1945 177.511   3
   8 -24   5-40.3932 181.489   3
 -16  24   5 406.887 231.529   1
  24  -8   5-6.60647 171.560   4
  16   8   5 217.523 206.384   1
 -24  16   5 200.279 186.745   1
  24  -8   5 254.895 176.443   2
 -24  16   5 213.262 134.718   3
  16   8   5-143.827 147.771   2
   8 -24   8 687.568 224.790   3
 -24  16   8 408.549 215.126   1
 -16  24   8 832.942 287.981   1
  24  -8   8 241.589 195.667   4
  24  -8   8 443.487 195.183   2
  16   8   8 284.717 252.642   1
 -24  16   8 356.509 215.148   3
  24  -8   8 267.865 213.606   1
  -8 -16   8 75.1564 203.992   3
  24  -7  -8 1430.68 371.390   2
  24  -7  -8 1196.85 291.585   4
  24  -7  -5 1496.47 310.394   2
  17   7  -5 1552.98 319.168   2
   7 -24  -5 1707.10 232.959   4
  17   7  -5 1611.66 158.819   1
  24  -7  -5 1849.64 335.424   4
  17   7  -5 1603.84 324.861   4
  17   7  -2 954.514 251.377   2
  -7 -17  -2 1211.26 237.871   3
 -17  24  -2 695.136 207.854   1
   7 -24  -2 819.328 217.099   4
   7 -24  -2 879.199 131.514   2
  17   7  -2 771.132 161.399   1
  24  -7  -2 435.281 231.129   4
  17   7  -2 746.546 244.191   4
  -7 -17  -2 940.010 156.147   2
  24  -7  -2 848.120 240.778   2
 -17  24   1 1515.21 262.224   1
   7 -24   1 1563.99 261.421   3
 -24  17   1 1688.24 146.778   3
  -7 -17   1 1645.21 245.039   3
   7 -24   1 2225.31 235.074   2
  17   7   1 2320.02 272.359   1
  24  -7   1 2244.29 310.165   4
  17   7   1 1958.88 298.530   4
  24  -7   1 2187.30 284.028   2
 -24  17   1 1895.35 136.798   3
  17   7   1 2170.29 283.767   2
  -7 -17   4 603.141 200.969   3
   7 -24   4 980.850 215.646   3
  24  -7   4 932.679 223.160   4
  17   7   4 1014.11 235.307   1
 -17  24   4 418.651 213.263   1
  17   7   4 1010.67 223.424   4
 -24  17   4 1063.87 238.776   1
  24  -7   4 879.367 212.569   2
 -24  17   4 753.483 158.698   3
  17   7   4 813.687 180.449   2
  -7 -17   7 453.138 228.348   3
 -24  17   7-63.9348 197.857   1
   7 -24   7 540.390 218.134   3
 -17  24   7 360.316 233.008   1
  24  -7   7 328.136 185.961   4
  24  -7   7 482.488 202.488   2
  17   7   7 303.952 222.370   1
 -24  17   7 310.696 192.458   3
  17   7   7 293.150 157.656   2
  24  -6  -6 988.191 305.874   2
   6 -24  -6 905.063 187.746   4
  18   6  -6 400.587 99.8185   1
  24  -6  -6 202.761 220.116   4
  18   6  -6 178.441 252.291   4
  24  -6  -3 1510.34 296.401   2
  18   6  -3 1144.74 283.392   2
  -6 -18  -3 1137.75 240.910   3
 -18  24  -3 996.366 233.994   1
   6 -24  -3 1163.51 227.888   4
   6 -24  -3 951.138 101.283   2
  18   6  -3 1098.28 173.523   1
  -6 -18  -3 1052.66 132.688   2
  24  -6  -3 934.552 273.630   4
  18   6  -3 1135.55 296.988   4
   6 -24  -3 849.280 119.150   2
  18   6   0 1173.70 233.906   2
  -6 -18   0 861.287 206.732   3
   6 -24   0 1078.86 234.135   3
   6 -24   0 1036.78 172.561   2
  18   6   0 1042.13 195.781   1
 -18  24   0 740.549 204.972   1
  24  -6   0 1099.98 248.506   4
  18   6   0 756.156 229.673   4
  24  -6   0 832.837 112.391   3
 -24  18   0 750.398 71.1272   3
  24  -6   0 1088.39 237.847   2
 -24  18   0 711.624 75.1751   3
  -6 -18   3 874.324 204.366   3
   6 -24   3 837.540 210.906   3
  18   6   3 1092.51 238.147   1
  24  -6   3 1238.94 258.365   4
  18   6   3 1264.47 241.577   4
 -24  18   3 1164.21 173.093   3
  24  -6   3 647.906 55.7803   3
  24  -6   3 1100.83 220.488   2
 -18  24   3 601.597 209.895   1
 -24  18   3 885.922 242.525   1
  18   6   3 1041.47 209.082   2
  -6 -18   6 367.992 229.839   3
   6 -24   6 626.649 222.216   3
 -18  24   6 669.865 236.613   1
  24  -6   6 272.178 174.786   4
  18   6   6 754.441 270.888   1
  18   6   6 635.251 189.141   4
  24  -6   6 433.598 198.876   2
  24  -6   6 589.015 96.4280   3
 -24  18   6 703.932 209.662   3
  18   6   6 646.397 178.599   2
 -24  18   6 562.787 241.052   1
  24  -5  -7 485.420 312.508   2
   5 -24  -7 411.035 144.559   4
  24  -5  -7 440.693 230.355   4
  19   5  -7 620.599 259.360   4
  24  -5  -4 289.530 228.210   2
  19   5  -4 160.665 239.899   2
   5 -24  -4 360.596 174.978   4
  -5 -19  -4 148.400 38.7003   2
  24  -5  -4 136.057 208.438   4
  19   5  -4 512.797 250.144   4
 -19  24  -1 279.193 114.313   3
  19   5  -1 692.374 220.904   2
 -19  24  -1 754.545 228.385   1
  -5 -19  -1 411.711 202.509   3
   5 -24  -1 363.749 199.640   3
   5 -24  -1 466.211 126.661   2
  19   5  -1 258.041 153.636   1
  24  -5  -1 311.464 192.607   4
  19   5  -1 83.5098 196.747   4
  24  -5  -1 334.212 118.366   3
  24  -5  -1 565.451 216.390   2
  -5 -19  -1 70.5493 116.893   2
  19   5   2 459.978 195.215   2
 -19  24   2 391.673 193.115   1
  -5 -19   2 546.482 210.074   3
 -24  19   2 139.790 182.638   1
   5 -24   2 692.770 207.247   3
 -24  19   2 287.467 124.332   3
  19   5   2 417.990 175.638   1
  24  -5   2 511.449 210.190   4
  19   5   2 166.878 196.364   4
 -24  19   2 258.382 108.221   3
  24  -5   2 215.380 64.5344   3
  24  -5   2 341.981 169.243   2
  -5 -19   5 341.993 189.521   3
   5 -24   5 199.163 185.594   3
  19   5   5 737.340 243.247   1
  24  -5   5 182.985 175.614   4
  19   5   5 570.437 193.382   4
  24  -5   5 427.077 196.009   2
 -24  19   5 404.288 170.762   3
 -19  24   5 432.500 213.027   1
  19   5   5 365.481 164.581   2
 -24  19   5 241.993 199.874   1
  -5 -19   8 230.363 217.025   3
   5 -24   8 494.687 229.936   3
  24  -5   8 394.528 224.999   1
 -19  24   8-5.00130 208.557   1
 -24  19   8 559.539 242.369   1
  19   5   8 63.1852 223.516   1
  24  -5   8 348.795 213.233   2
 -24  19   8 220.166 199.367   3
  19   5   8 375.985 174.711   2
  24  -4  -8 780.972 318.063   2
  24  -4  -8 1017.34 331.686   4
  24  -4  -5 1736.75 331.012   2
  20   4  -5 1320.99 319.760   2
   4 -24  -5 1633.57 244.599   4
  24  -4  -5 1639.75 332.928   4
  20   4  -5 1663.97 341.861   4
  24  -4  -2 585.691 248.233   2
  20   4  -2-87.0463 195.172   2
   4 -24  -2 422.431 129.828   2
  -4 -20  -2 322.699 201.497   3
   4 -24  -2 81.8986 181.841   3
   4 -24  -2 253.820 104.733   2
 -20  24  -2 322.195 200.325   1
  24  -4  -2 37.7047 202.364   4
  20   4  -2 171.761 214.787   4
  -4 -20  -2 239.032 117.109   2
 -20  24  -2 339.554 109.342   3
  -4 -20   1 1754.63 266.800   3
 -24  20   1 1190.82 140.817   3
  20   4   1 1180.24 234.671   2
   4 -24   1 1351.00 253.919   3
  20   4   1 1105.14 229.090   1
 -20  24   1 1290.34 268.933   1
  24  -4   1 1447.44 293.975   4
  20   4   1 1222.49 256.511   4
 -24  20   1 1392.86 263.863   1
  24  -4   1 1265.32 133.710   3
  24  -4   1 1192.95 242.901   2
 -24  20   4 501.357 239.045   1
  -4 -20   4-151.655 172.658   3
   4 -24   4 360.789 195.096   3
  20   4   4 527.861 234.494   1
  24  -4   4 374.953 196.857   4
  20   4   4-42.0010 172.960   4
 -24  20   4 299.345 171.096   3
  24  -4   4 330.679 188.361   2
  20   4   4 264.913 177.795   2
 -20  24   4 70.4062 180.757   1
  -4 -20   7 953.707 250.079   3
   4 -24   7 653.151 230.869   3
  24  -4   7 1248.62 296.496   1
  24  -4   7 1444.11 261.921   4
 -24  20   7 1257.51 284.469   1
  20   4   7 406.831 248.644   1
  20   4   7 1028.22 193.787   4
  24  -4   7 1054.29 237.879   2
 -24  20   7 1010.76 240.981   3
 -20  24   7 649.233 237.966   1
  20   4   7 597.198 189.072   2
   3 -24  -6 264.836 156.337   4
  24  -3  -6 321.179 249.004   2
  21   3  -6 36.4189 232.875   2
  -3 -21  -6 266.646 155.710   4
  24  -3  -6-102.928 256.975   4
  21   3  -6 391.997 257.387   4
  24  -3  -3 50.2495 195.416   2
  21   3  -3 403.956 238.149   2
  -3 -21  -3 547.351 224.934   3
   3 -24  -3 144.649 57.7868   2
  24  -3  -3 253.423 233.820   4
  21   3  -3-36.0249 217.781   4
  -3 -21  -3 163.198 80.9544   2
 -21  24  -3 224.665 101.366   3
   3 -24  -3 264.841 82.5046   2
  21   3   0 1009.35 254.161   2
 -21  24   0 845.596 150.955   3
 -21  24   0 1308.75 268.917   1
  -3 -21   0 1206.50 251.852   3
   3 -24   0 1346.01 259.869   3
  24  -3   0 1019.92 273.596   4
  21   3   0 1593.49 304.023   4
  24  -3   0 808.933 136.720   3
 -24  21   0 1098.20 249.928   1
 -24  21   0 770.329 107.915   3
  24  -3   0 1361.72 259.856   2
  -3 -21   3-5.55249 170.532   3
 -24  21   3 220.370 195.170   1
   3 -24   3 34.7489 163.402   3
 -21  24   3 380.559 218.110   1
  21   3   3 273.435 179.283   1
  24  -3   3 268.682 178.280   4
  21   3   3 156.100 183.056   4
  24  -3   3 189.522 183.781   2
  21   3   3 225.752 173.658   2
  -3 -21   6 601.690 236.442   3
   3 -24   6 447.352 205.467   3
  24  -3   6 498.928 234.927   1
  21   3   6 419.970 222.994   1
 -24  21   6 809.750 271.673   1
  24  -3   6 789.156 222.420   4
  21   3   6 352.969 170.229   4
 -24  21   6 424.754 195.088   3
  24  -3   6 877.032 236.890   2
  21   3   6 790.642 216.570   2
 -21  24   6 424.255 252.913   1
  24  -2  -7 1072.89 348.228   2
  22   2  -7 715.338 341.432   2
   2 -24  -7 640.731 152.750   4
  24  -2  -7 1132.66 311.104   4
  22   2  -7 980.869 299.902   4
  24  -2  -4 455.114 258.714   2
  22   2  -4 608.101 243.010   2
   2 -24  -4 116.627 168.714   4
  24  -2  -4 963.784 312.703   4
  22   2  -4 654.389 276.448   4
  24  -2  -1 1089.86 247.993   2
  -2 -22  -1 795.298 179.313   2
  22   2  -1 1107.23 269.577   2
   2 -24  -1 1077.21 190.876   2
  -2 -22  -1 1559.02 277.386   3
 -22  24  -1 1406.92 281.604   1
   2 -24  -1 1270.35 262.307   3
  24  -2  -1 1636.60 326.541   4
  22   2  -1 711.137 231.501   4
 -24  22  -1 919.954 93.0648   3
 -22  24  -1 956.718 139.024   3
  -2 -22   2 883.052 225.557   3
   2 -24   2 543.040 204.887   3
 -24  22   2 757.720 231.041   1
 -22  24   2 512.372 221.984   1
  24  -2   2 1138.47 270.723   4
  22   2   2 562.420 241.479   4
  24  -2   2 720.884 122.322   3
  24  -2   2 1146.39 260.579   2
  22   2   2 396.464 167.882   2
  -2 -22   5 1154.37 263.318   3
   2 -24   5 714.644 220.639   3
 -22  24   5 702.729 237.179   1
  22   2   5 986.472 258.638   1
 -24  22   5 670.162 265.802   1
  24  -2   5 648.439 218.022   4
  22   2   5 1010.12 231.555   4
 -24  22   5 870.076 205.385   3
  24  -2   5 858.679 230.378   2
  22   2   5 1024.28 219.677   2
  24  -1  -5 1318.73 318.275   2
  23   1  -5 2069.49 364.178   2
   1 -24  -5 1460.24 235.226   4
  23   1  -5 2128.57 389.810   4
  24  -1  -5 1749.69 375.570   4
   1 -24  -2-90.8836 118.559   2
  24  -1  -2 212.294 224.323   2
  23   1  -2 135.595 223.097   2
  -1 -23  -2-60.5221 197.006   3
   1 -24  -2 70.8931 183.684   3
   1 -24  -2-231.912 104.894   2
  24  -1  -2 34.0362 244.105   4
  23   1  -2 23.0705 225.125   4
 -24  23  -2 14.7809 52.1608   3
 -23  24  -2-49.2499 80.1039   3
  -1 -23  -2-83.5644 116.693   2
 -23  24   1 1259.13 268.068   1
  -1 -23   1 1467.85 265.493   3
   1 -24   1 1367.38 267.483   3
  24  -1   1 1522.18 285.690   4
  23   1   1 1581.47 303.330   4
 -24  23   1 2032.39 321.718   1
  24  -1   1 1980.87 321.777   2
  24  -1   1 1648.50 180.992   3
 -24  23   1 1123.12 157.925   3
  23   1   1 1100.39 241.158   2
  -1 -23   4 304.047 223.952   3
   1 -24   4 431.120 230.975   3
 -23  24   4-114.647 199.870   1
  23   1   4 651.828 242.626   1
  24  -1   4 658.567 233.387   4
  23   1   4 438.729 202.583   4
 -24  23   4-19.8162 234.076   1
  24  -1   4 317.293 192.698   2
  23   1   4 477.198 217.092   2
  -1 -23   7 887.128 251.430   3
   1 -24   7 883.820 271.536   3
 -23  24   7 1008.11 292.449   1
 -24  23   7 1243.22 302.580   1
  24  -1   7 787.322 271.251   1
  23   1   7 923.078 287.632   1
  24  -1   7 865.261 216.455   4
  23   1   7 713.088 209.993   4
 -24  23   7 753.044 241.455   3
  24  -1   7 952.762 221.762   2
  23   1   7 1354.58 260.347   2
  24   0  -6 32.2023 255.991   2
   0 -24  -6 389.611 175.394   4
  24   0  -6 462.369 276.448   4
  24   0  -3 21.5265 211.286   2
   0 -24  -3-2.80452 59.5413   2
  24   0  -3 341.270 251.009   4
  24   0   0 1781.61 298.609   2
 -24  24   0 1161.44 259.452   1
   0 -24   0 1614.93 284.987   3
 -24  24   0 1103.07 149.212   3
   0 -24   3-10.2286 176.922   3
  24   0   3 41.6564 206.033   4
 -24  24   3-306.459 213.726   1
  24   0   3-167.065 204.038   2
   0 -24   6 971.669 285.046   3
 -24  24   6 1057.27 280.861   1
  24   0   6 1350.04 311.987   1
  24   0   6 1112.70 249.053   4
  24   0   6 1041.09 251.241   2
  25 -25  -4 1686.14 309.448   4
   0  25  -4 1236.95 180.377   1
  25 -25  -4 1782.81 273.010   2
 -25   0  -1-164.209 138.084   3
  25 -25  -1 298.974 228.725   4
   0  25  -1 201.297 156.795   1
  25 -25  -1 154.323 161.835   2
 -25   0   2 115.525 144.395   3
  25 -25   2 210.935 221.004   4
   0  25   2 707.794 224.755   1
  25 -25   2 629.234 220.773   2
   0  25   5 210.298 214.932   1
  25 -25   5-66.8586 209.168   4
  25 -25   5-145.346 189.779   2
 -25   0   5 39.0686 164.842   3
  24 -25  -5 1019.57 251.932   4
  25 -24  -5 914.727 254.686   4
  -1  25  -5 578.103 135.929   1
  24 -25  -5 878.017 228.316   2
  25 -24  -5 1113.10 248.775   2
 -24  -1  -2 358.423 158.418   3
  24 -25  -2 557.160 226.014   4
  25 -24  -2 467.266 226.703   4
  24 -25  -2 94.1532 157.405   2
  25 -24  -2 446.627 185.969   2
   1  24  -2 522.427 153.238   1
  -1  25  -2 380.723 152.274   1
  24 -25   1 1796.83 305.674   4
  25 -24   1 1273.37 282.637   4
  -1  25   1 1437.07 242.398   1
  24 -25   1 1111.27 233.914   2
  25 -24   1 1252.37 250.575   2
   1  24   1 1660.65 265.328   1
 -25   1   1 1479.06 202.836   3
 -24  -1   1 1610.82 216.789   3
 -24  -1   4 402.246 178.471   3
   1  24   4-119.756 185.937   1
  24 -25   4 172.211 195.538   4
  -1  25   4 83.8121 211.181   1
  25 -24   4 334.441 208.054   4
  24 -25   4 598.588 227.606   2
  25 -24   4-84.4615 191.377   2
 -25   1   4 108.084 158.015   3
   1  24   7 1786.98 359.169   1
  24 -25   7 1485.09 314.364   4
  -1  25   7 1083.64 299.664   1
  25 -24   7 1097.35 271.686   4
  24 -25   7 1437.77 308.029   2
  25 -24   7 1137.48 300.868   2
 -25   1   7 1534.43 285.208   3
 -24  -1   7 1566.57 289.014   3
  23 -25  -6 339.292 184.359   2
  25 -23  -6-42.3384 200.182   2
  23 -25  -6 452.203 217.915   4
  25 -23  -6 348.524 216.738   4
  -2  25  -3 880.811 179.281   1
  23 -25  -3 569.313 220.288   4
  25 -23  -3 1008.81 250.003   4
  23 -25  -3 917.970 202.345   2
  25 -23  -3 707.538 206.382   2
   2  23  -3 577.184 140.550   1
 -25   2   0-113.099 114.223   3
 -23  -2   0 357.947 154.985   3
   2  23   0 166.212 153.379   1
  25 -23   0-74.6879 193.700   4
  23 -25   0-142.460 193.535   4
  23 -25   0-20.5370 161.332   2
  25 -23   0 86.5181 171.369   2
  -2  25   0 31.4732 165.490   1
 -25   2   3 682.968 165.480   3
 -23  -2   3 649.144 181.838   3
  23 -25   3 859.659 233.995   2
   2  23   3 681.192 221.513   1
  23 -25   3 831.499 250.605   4
  25 -23   3 464.429 220.415   4
  -2  25   3 1089.55 248.001   1
  25 -23   3 329.068 214.014   2
   2  23   6-90.7444 232.869   1
  25 -23   6-263.513 203.798   4
  -2  25   6 62.9230 225.589   1
  23 -25   6 43.2384 203.520   4
  23 -25   6 169.992 201.839   2
  25 -23   6-81.4183 188.024   2
 -25   2   6-315.117 174.988   3
 -23  -2   6-118.475 180.054   3
  25 -22  -7 113.729 246.015   2
  22 -25  -7-9.08645 175.876   2
  22 -25  -7 106.777 182.887   4
  25 -22  -7 11.6933 209.440   4
   3  22  -4 1562.10 169.868   1
  22 -25  -4 1586.70 290.101   4
  25 -22  -4 1893.64 323.152   4
  -3  25  -4 1653.62 205.585   1
  22 -25  -4 1389.05 231.341   2
  25 -22  -4 1565.81 271.087   2
  25 -22  -1 123.270 191.913   4
 -22  -3  -1-40.7236 146.411   3
 -25   3  -1 71.5706 99.7132   3
  22 -25  -1 186.667 190.630   4
   3  22  -1 227.978 159.865   1
  22 -25  -1 15.3800 153.371   2
  25 -22  -1 332.712 186.836   2
  -3  25  -1 39.5668 140.959   1
 -25   3   2 591.518 142.844   3
 -22  -3   2 439.777 165.283   3
   3  22   2 615.682 210.981   1
  22 -25   2 777.535 244.738   4
  25 -22   2 926.736 251.618   4
  22 -25   2 697.442 208.912   2
  -3  25   2 598.774 210.277   1
  25 -22   2 1012.78 257.885   2
  22 -25   5-13.0848 115.781   3
   3  22   5 67.3618 195.691   1
  22 -25   5 258.691 228.243   4
  25 -22   5 165.035 204.349   4
  -3  25   5-261.515 216.660   1
  22 -25   5-18.1236 179.400   2
  25 -22   5-382.656 225.421   2
 -25   3   5 262.792 181.047   3
 -22  -3   5-90.5615 162.164   3
  -4  25  -5 493.253 151.325   1
  25 -21  -5 680.266 234.218   4
  21 -25  -5 429.410 182.122   2
   4  21  -5 570.054 93.4183   1
  25 -21  -5 917.368 247.305   2
  -4  25  -2 224.809 137.758   1
 -21  -4  -2 262.655 166.570   3
  21 -25  -2 333.562 202.984   4
  25 -21  -2 22.9491 179.774   4
   4  21  -2 141.014 130.839   1
  21 -25  -2 144.802 143.795   2
  25 -21  -2 40.1959 159.111   2
  -4  25   1 1814.27 262.180   1
 -21  -4   1 1270.15 200.596   3
   4  21   1 1319.14 247.510   1
  21 -25   1 993.981 258.142   4
  25 -21   1 1410.06 265.964   4
  21 -25   1 1298.54 234.761   2
  25 -21   1 1498.49 253.522   2
 -25   4   1 1395.97 171.807   3
 -21  -4   4 76.1101 152.031   3
   4  21   4 270.140 206.644   1
  21 -25   4-61.3418 113.028   3
  21 -25   4 35.5749 169.629   4
  25 -21   4 462.990 203.976   4
  21 -25   4 255.662 213.842   2
  -4  25   4-17.6681 179.058   1
  25 -21   4 254.703 181.269   2
 -25   4   4 60.8351 130.508   3
  21 -25   7 937.639 188.627   3
   4  21   7 1389.04 295.121   1
  21 -25   7 1048.20 279.776   4
  25 -21   7 1221.17 276.581   4
  21 -25   7 954.759 273.607   2
  -4  25   7 734.926 270.785   1
  25 -21   7 1752.32 318.786   2
 -25   4   7 1191.06 252.301   3
 -21  -4   7 1093.81 260.721   3
  20 -25  -6 302.030 172.878   2
  25 -20  -6 452.128 242.288   2
  20 -25  -6 276.010 195.175   4
  25 -20  -6 89.0635 192.934   4
  20 -25  -3 675.833 219.282   4
  25 -20  -3 677.679 240.661   4
   5  20  -3 394.073 130.034   1
  -5  25  -3 671.405 160.728   1
  20 -25  -3 440.181 160.326   2
  25 -20  -3 486.194 201.157   2
 -25   5   0 583.856 116.254   3
 -20  -5   0 498.364 169.798   3
   5  20   0 670.436 178.473   1
  20 -25   0 380.755 206.087   4
  25 -20   0 210.926 196.083   4
  20 -25   0 134.211 152.369   2
  25 -20   0 545.250 199.347   2
  -5  25   0 555.627 173.518   1
 -20  -5   3 838.629 189.223   3
   5  20   3 843.688 238.769   1
  20 -25   3 644.477 159.496   3
  20 -25   3 747.012 236.483   4
  25 -20   3 1219.17 270.303   4
  20 -25   3 694.438 212.016   2
  25 -20   3 1218.46 252.862   2
  -5  25   3 1086.13 245.118   1
 -25   5   3 730.118 154.180   3
   5  20   6 233.642 208.541   1
  20 -25   6 587.732 176.155   3
  20 -25   6 468.386 244.242   4
  25 -20   6 94.5851 177.360   4
  20 -25   6 92.1449 196.485   2
  25 -20   6 296.083 216.944   2
  -5  25   6 9.62412 202.984   1
 -25   5   6 110.404 167.048   3
 -20  -5   6 311.746 183.716   3
  25 -19  -7-283.382 217.662   2
  19 -25  -7-84.6656 148.638   2
  19 -25  -7 98.3410 175.962   4
  25 -19  -7-4.15038 217.089   4
   6  19  -4 879.182 127.223   1
  -6  25  -4 662.640 164.501   1
  19 -25  -4 888.883 224.308   4
  25 -19  -4 917.110 251.447   4
  19 -25  -4 911.221 183.081   2
  25 -19  -4 633.084 217.055   2
  -6  25  -1 304.655 151.509   1
   6  19  -1 35.0255 151.769   1
 -19  -6  -1 32.8444 148.325   3
 -25   6  -1 156.991 72.4029   3
  19 -25  -1-48.2092 181.316   4
  25 -19  -1-182.673 187.039   4
  19 -25  -1 107.376 133.537   2
  25 -19  -1 13.6333 181.086   2
  19 -25   2 1831.65 214.574   3
  19 -25   2 1876.47 287.348   4
  19 -25   2 1926.00 281.554   2
  25 -19   2 2002.96 287.310   4
  25 -19   2 1883.94 284.302   2
   6  19   2 2149.37 272.498   1
  -6  25   2 1740.32 264.126   1
 -25   6   2 1700.66 181.694   3
 -19  -6   2 1583.69 229.410   3
   6  19   5 242.388 210.026   1
  19 -25   5 224.581 151.747   3
  19 -25   5 324.890 218.149   4
  25 -19   5 322.363 223.823   4
  19 -25   5 547.913 216.444   2
  25 -19   5 88.7184 218.820   2
  -6  25   5-56.0443 205.023   1
 -25   6   5-5.04531 130.947   3
 -19  -6   5-116.832 169.198   3
  19 -25   8 1243.72 216.977   3
   6  19   8 562.605 263.070   1
  19 -25   8 848.584 280.098   4
  19 -25   8 1312.73 311.903   2
  25 -19   8 817.641 251.338   4
  25 -19   8 1156.16 279.660   2
  -6  25   8 1110.48 321.457   1
 -25   6   8 1245.93 276.430   3
 -19  -6   8 1109.64 271.512   3
  25 -18  -8 427.317 267.387   2
  18 -25  -8 296.953 179.240   4
  25 -18  -8 599.698 249.747   4
   7  18  -5 380.477 66.2899   1
  18 -25  -5 173.590 159.638   4
  18 -25  -5 644.765 165.555   2
  -7  25  -5 704.222 159.452   1
  25 -18  -5 483.263 223.559   2
   7  18  -2 472.274 140.047   1
 -18  -7  -2 176.181 180.090   3
  18 -25  -2 324.076 183.315   4
  25 -18  -2 373.149 190.417   4
  -7  25  -2 182.771 142.556   1
  18 -25  -2 265.980 140.035   2
  25 -18  -2 140.081 163.101   2
   7  18   1 426.362 179.401   1
 -25   7   1 233.527 95.4386   3
 -18  -7   1 120.447 157.047   3
  18 -25   1 261.467 191.979   4
  25 -18   1 442.605 207.670   4
  18 -25   1 232.633 145.131   2
  25 -18   1 581.197 192.395   2
  -7  25   1 287.155 162.334   1
 -18  -7   4 44.7735 159.256   3
  18 -25   4 237.013 137.698   3
  18 -25   4 251.410 204.901   4
  18 -25   4 369.687 212.287   2
  25 -18   4 326.946 191.955   4
  25 -18   4 375.708 186.834   2
  -7  25   4 138.189 176.727   1
 -25   7   4-44.8228 121.023   3
   7  18   4 100.637 168.022   1
   7  18   7 366.376 238.733   1
  18 -25   7 384.891 179.557   3
  18 -25   7-5.20433 185.801   4
  18 -25   7-84.6106 212.527   2
  25 -18   7 91.4513 191.956   4
  25 -18   7 476.220 224.925   2
  -7  25   7-177.755 219.780   1
 -25   7   7 406.619 210.538   3
 -18  -7   7 365.052 222.424   3
  17 -25  -6 255.175 141.150   2
  25 -17  -6 591.537 281.520   2
  17 -25  -6 153.778 169.031   4
  25 -17  -6 428.766 231.968   4
  -8  25  -3 563.137 166.936   1
   8  17  -3 853.173 141.937   1
 -17  -8  -3 800.696 195.095   3
  17 -25  -3 674.015 205.947   4
  25 -17  -3 1017.84 258.618   4
  17 -25  -3 749.677 158.868   2
  25 -17  -3 1086.33 263.010   2
  17 -25   0 2419.28 304.032   4
  -8  25   0 1867.94 258.932   1
  17 -25   0 1812.40 229.121   2
  25 -17   0 2068.44 287.721   4
   8  17   0 2256.08 251.183   1
  25 -17   0 1870.05 260.488   2
 -25   8   0 1873.85 132.284   3
 -17  -8   0 2080.89 254.836   3
 -17  -8   3 964.645 204.705   3
  17 -25   3 1307.31 202.995   3
  17 -25   3 1088.62 253.805   4
  17 -25   3 1117.15 240.828   2
  25 -17   3 1388.83 260.156   4
  25 -17   3 1076.97 246.636   2
  -8  25   3 1313.69 248.109   1
 -25   8   3 1372.53 172.015   3
   8  17   3 1162.45 238.013   1
  17 -25   6 364.124 162.496   3
  17 -25   6 358.413 216.180   4
  17 -25   6 122.785 196.028   2
  25 -17   6 409.673 212.324   4
  25 -17   6 409.028 209.382   2
  -8  25   6 356.230 208.585   1
 -25   8   6 140.341 168.871   3
 -17  -8   6 257.241 197.755   3
  16 -25  -7-62.0544 158.293   4
  25 -16  -7-49.3296 212.333   4
   9  16  -4 370.364 98.7416   1
  16 -25  -4 163.262 168.195   4
  25 -16  -4 596.106 250.785   4
  16 -25  -4 547.585 142.960   2
  -9  25  -4 541.435 168.750   1
  25 -16  -4 584.208 209.993   2
 -16  -9  -1 633.809 198.690   3
  16 -25  -1 629.108 204.457   4
  -9  25  -1 813.792 181.016   1
  25 -16  -1 904.790 244.875   4
  16 -25  -1 941.124 166.677   2
  25 -16  -1 838.621 218.509   2
   9  16  -1 1015.58 182.776   1
  16 -25   2 2060.68 246.501   3
  -9  25   2 1854.38 269.696   1
  16 -25   2 2187.67 314.110   4
  16 -25   2 1860.85 260.291   2
  25 -16   2 2178.72 291.795   4
  25 -16   2 1935.71 280.823   2
   9  16   2 2133.78 284.123   1
 -25   9   2 2115.65 175.843   3
 -16  -9   2 2202.10 257.387   3
 -16  -9   5 374.007 205.494   3
  16 -25   5 309.111 155.643   3
  16 -25   5 203.484 214.420   4
  16 -25   5 205.062 182.518   2
  25 -16   5 122.944 176.429   4
  25 -16   5 302.147 189.376   2
  -9  25   5 76.3519 194.049   1
 -25   9   5 416.060 169.454   3
   9  16   5 442.442 215.244   1
  16 -25   8 1235.22 231.350   3
  16 -25   8 723.630 246.331   4
  16 -25   8 842.424 247.497   2
  25 -16   8 1342.69 270.352   4
  25 -16   8 686.272 256.599   2
  -9  25   8 958.784 302.713   1
 -25   9   8 795.594 234.614   3
 -16  -9   8 796.264 263.683   3
   9  16   8 489.687 245.846   1
  25 -15  -8 326.148 260.764   2
  15 -25  -8 22.0829 151.267   4
  25 -15  -8 388.601 219.872   4
  25 -15  -5 973.086 268.982   2
 -10  25  -5 504.632 174.028   1
  15 -25  -5 1061.57 217.501   4
  25 -15  -5 1094.92 278.059   4
  15 -25  -5 616.042 137.576   2
  10  15  -5 494.959 67.7999   1
 -15 -10  -2-112.227 167.838   3
  15 -25  -2-288.960 174.687   4
  25 -15  -2 56.8789 194.380   4
  15 -25  -2-24.7400 108.684   2
  25 -15  -2-438.065 207.911   2
 -10  25  -2-239.712 160.469   1
  10  15  -2 82.6963 116.161   1
 -15 -10   1 274.454 160.160   3
 -10  25   1 482.793 190.500   1
  15 -25   1-52.8298 158.226   3
  15 -25   1 443.641 195.214   4
  15 -25   1 226.739 146.761   2
  25 -15   1 338.367 211.271   4
  25 -15   1 36.8657 165.841   2
  10  15   1 109.710 140.356   1
 -25  10   1 279.352 85.3985   3
 -15 -10   4 648.677 208.484   3
  15 -25   4 720.685 187.843   3
  15 -25   4 982.597 259.748   4
  15 -25   4 114.236 177.182   2
  25 -15   4 604.027 208.818   4
  25 -15   4 460.304 194.445   2
  10  15   4 292.796 206.319   1
 -25  10   4 514.557 141.124   3
 -10  25   4 467.800 214.062   1
  15 -25   7 190.109 167.550   3
  15 -25   7 44.3024 213.255   4
  15 -25   7 376.419 224.855   2
  25 -15   7 362.748 190.667   4
  25 -15   7 265.059 200.006   2
 -10  25   7-26.6604 198.019   1
 -25  10   7 155.042 164.947   3
  10  15   7 344.271 240.291   1
 -15 -10   7 316.576 222.448   3
  25 -14  -6 719.397 251.309   2
  14 -25  -6 476.177 97.7649   2
  14 -25  -6 650.426 181.713   4
  25 -14  -6 768.168 267.262   4
 -11  25  -3 2108.52 257.774   1
 -14 -11  -3 1939.60 270.811   3
  14 -25  -3 1442.68 249.681   4
  25 -14  -3 1909.25 299.411   4
  14 -25  -3 1943.81 185.631   2
  11  14  -3 1863.95 183.353   1
  25 -14  -3 1931.25 301.879   2
 -14 -11   0-14.4364 151.316   3
  14 -25   0-171.444 157.695   3
  14 -25   0 117.327 171.523   4
 -11  25   0 96.5052 179.303   1
  14 -25   0 125.171 134.817   2
  25 -14   0 241.491 206.116   4
  25 -14   0-110.203 186.302   2
  11  14   0 204.615 142.410   1
 -11  25   3 1328.33 266.396   1
 -14 -11   3 1149.06 218.363   3
  14 -25   3 1193.00 213.645   3
  11  14   3 1129.49 174.907   2
  14 -25   3 1066.24 246.045   4
  14 -25   3 1057.74 237.514   2
  25 -14   3 1330.60 259.716   4
  25 -14   3 1156.47 236.438   2
 -25  11   3 1341.27 175.026   3
  11  14   3 1481.92 241.985   1
  14 -25   6 420.065 187.573   3
  14 -25   6 308.291 193.806   2
  14 -25   6 353.757 221.299   4
  25 -14   6 355.068 199.336   4
  25 -14   6 665.788 224.394   2
 -25  11   6 669.349 201.770   3
  11  14   6 445.337 236.908   1
 -11  25   6 430.043 214.799   1
 -14 -11   6 278.110 174.141   3
  25 -13  -7 331.599 247.390   2
  13 -25  -7-87.6587 153.888   4
  25 -13  -7-229.920 194.557   4
  13 -25  -4 433.972 178.687   4
 -13 -12  -4 501.752 131.412   2
  25 -13  -4 268.479 202.501   4
 -12  25  -4 337.599 178.027   1
  13 -25  -4 259.451 98.5391   2
  12  13  -4 481.916 110.179   1
  25 -13  -4 309.442 202.826   2
 -13 -12  -1 394.947 179.879   3
  12  13  -1 435.995 204.817   2
  13 -25  -1 511.671 213.148   4
  25 -13  -1 492.940 210.102   4
  13 -25  -1 463.870 138.592   2
  12  13  -1 508.160 162.829   1
  25 -13  -1 316.755 180.049   2
 -12  25  -1 383.232 186.443   1
 -13 -12   2 1252.20 237.078   3
  13 -25   2 727.180 201.973   3
  12  13   2 820.043 186.668   2
 -12  25   2 1260.63 247.791   1
  13 -25   2 932.692 235.320   4
  13 -25   2 1541.59 226.060   2
  25 -13   2 688.638 241.693   4
  25 -13   2 804.646 217.103   2
  12  13   2 1460.88 248.024   1
 -25  12   2 864.822 123.048   3
 -13 -12   5 423.688 195.955   3
  13 -25   5 353.644 181.097   3
  12  13   5 162.246 117.087   2
  13 -25   5 468.575 214.526   4
  13 -25   5 234.523 200.791   2
  25 -13   5 351.846 211.286   4
  25 -13   5-128.022 186.917   2
  12  13   5 524.055 208.534   1
 -25  12   5 186.720 139.022   3
 -12  25   5-34.3654 194.492   1
  13 -25   8-342.262 196.138   3
  13 -25   8 176.012 224.762   4
  13 -25   8-20.0036 198.941   2
  25 -13   8 579.236 216.720   4
  25 -13   8 64.3349 223.117   2
 -25  12   8 7.86320 197.675   3
  12  13   8 169.051 234.591   1
 -12  25   8 119.125 215.801   1
 -13 -12   8-365.595 238.086   3
  25 -12  -8-26.7760 253.707   2
  12 -25  -8 61.6978 133.691   4
  25 -12  -8 294.200 259.003   4
  12 -25  -5 48.2821 63.0563   2
  25 -12  -5 86.3361 212.949   2
  13  12  -5 42.6113 59.3880   1
  12 -25  -5 297.009 162.052   4
  25 -12  -5 489.357 237.341   4
 -12 -13  -2 753.203 213.125   3
  13  12  -2 1203.03 257.776   2
  12 -25  -2 1022.57 231.677   4
 -13  25  -2 696.666 191.411   1
  13  12  -2 1247.54 182.476   1
  12 -25  -2 1021.21 150.733   2
  25 -12  -2 1557.07 299.194   4
  25 -12  -2 1039.01 252.976   2
 -12 -13   1 422.442 177.917   3
  13  12   1 748.364 194.166   2
  12 -25   1 489.110 187.561   3
  12 -25   1 249.625 137.244   2
 -13  25   1 653.806 199.972   1
  12 -25   1-7.62582 169.870   4
  25 -12   1 589.103 207.078   4
  13  12   1 595.606 200.335   1
  25 -12   1 614.896 204.067   2
 -25  13   1 593.160 81.7703   3
 -12 -13   4 725.779 207.808   3
 -13  25   4 599.961 212.936   1
  13  12   4 536.901 147.519   2
  12 -25   4 497.935 173.716   3
  12 -25   4 683.644 218.313   4
  12 -25   4 751.958 199.542   2
  25 -12   4 420.833 179.839   4
  25 -12   4 297.796 176.898   2
  13  12   4 716.856 216.004   1
 -25  13   4 628.530 160.083   3
 -13  25   7-13.5801 203.146   1
  12 -25   7 281.314 185.203   3
  12 -25   7-45.8333 207.206   4
  12 -25   7 20.1961 190.558   2
  25 -12   7 47.3257 181.498   4
  25 -12   7 151.277 207.564   2
  13  12   7 188.917 214.454   1
 -25  13   7 278.800 179.631   3
 -25  13   7 357.119 206.359   1
 -12 -13   7 141.016 195.591   3
  25 -11  -6 243.230 245.933   2
  11 -25  -6 258.992 155.856   4
  25 -11  -6 79.5804 219.358   4
 -14  25  -3 1048.82 230.031   1
 -11 -14  -3 1048.10 241.765   3
  14  11  -3 1254.51 277.329   2
  11 -25  -3 1464.65 240.522   4
  11 -25  -3 911.078 124.713   2
  25 -11  -3 1368.20 279.443   4
 -11 -14  -3 1064.72 162.707   2
  14  11  -3 1092.95 162.411   1
  25 -11  -3 1106.13 249.502   2
 -11 -14   0 246.813 172.705   3
  14  11   0 304.408 193.818   2
  11 -25   0 40.9971 151.616   3
  11 -25   0 22.6773 171.962   4
  11 -25   0 221.209 149.687   2
  25 -11   0 290.608 211.036   4
  14  11   0 295.770 148.593   1
  25 -11   0 327.823 194.890   2
 -14  25   0 250.568 171.371   1
  11 -25   3 2003.65 270.194   3
 -11 -14   3 1722.96 251.417   3
  11 -25   3 2115.51 308.673   4
  11 -25   3 1756.17 266.754   2
  14  11   3 2707.01 315.437   1
 -14  25   3 2060.30 287.243   1
  25 -11   3 1880.81 293.186   2
  25 -11   3 1666.45 281.840   4
 -25  14   3 1754.87 187.048   3
  14  11   3 1656.02 228.229   2
 -11 -14   6 672.093 223.977   3
 -25  14   6 764.795 223.901   1
  14  11   6 998.299 172.003   2
  11 -25   6 738.659 219.783   3
 -14  25   6 914.588 251.988   1
  11 -25   6 705.101 242.914   4
  11 -25   6 446.213 223.699   2
  25 -11   6 499.419 207.419   4
  25 -11   6 1017.16 234.168   2
  14  11   6 1177.04 279.473   1
 -25  14   6 720.706 208.357   3
  25 -10  -7 265.381 268.620   2
  10 -25  -7-160.475 139.763   4
  25 -10  -7-99.4469 225.506   4
  25 -10  -4 438.369 231.086   2
  10 -25  -4 632.178 193.268   4
 -10 -15  -4 243.440 94.1592   2
  25 -10  -4 368.394 235.494   4
 -15  25  -4 701.578 201.725   1
  15  10  -4 277.503 117.982   1
  15  10  -4 653.517 133.758   1
  10 -25  -4 328.706 76.0954   2
  15  10  -1-125.873 177.038   2
 -10 -15  -1 216.399 178.490   3
 -15  25  -1 57.4530 165.775   1
  10 -25  -1 84.2191 166.843   3
  10 -25  -1 53.7602 163.471   4
  10 -25  -1 53.3840 113.830   2
  25 -10  -1 10.3635 173.657   4
  15  10  -1 126.449 127.469   1
  15  10  -1 301.186 215.433   4
  25 -10  -1 380.485 194.621   2
 -10 -15   2 231.897 177.569   3
  15  10   2 354.893 160.640   2
  10 -25   2 51.2433 158.048   3
  10 -25   2 74.2285 197.738   4
  10 -25   2 6.97917 146.778   2
  25 -10   2-31.9280 169.266   4
 -15  25   2 146.758 164.765   1
  15  10   2 93.8167 175.857   1
  25 -10   2 32.4635 166.333   2
 -25  15   2 113.206 87.9569   3
 -10 -15   5 678.549 208.519   3
  15  10   5 639.630 166.480   2
  10 -25   5 766.935 211.750   3
 -15  25   5 519.825 226.896   1
  10 -25   5 494.245 221.071   4
  10 -25   5 566.688 204.545   2
  25 -10   5 571.494 213.093   4
  25 -10   5 537.730 202.102   2
  15  10   5 620.282 233.552   1
 -25  15   5 268.982 194.118   1
 -25  15   5 424.996 158.005   3
  10 -25   8 549.217 236.428   3
 -15  25   8-151.992 234.484   1
  10 -25   8 108.654 218.879   4
  10 -25   8 31.8649 202.749   2
  25 -10   8 348.554 206.826   4
  25 -10   8 514.389 223.261   2
  15  10   8 455.710 245.485   1
 -25  15   8 173.395 183.012   3
 -25  15   8 313.387 214.811   1
 -10 -15   8 49.9895 205.152   3
  25  -9  -8 1500.20 375.472   2
  25  -9  -8 1132.36 299.276   4
  25  -9  -5 215.159 240.971   2
   9 -25  -5 203.743 158.208   4
  25  -9  -5 112.650 214.120   4
  16   9  -5 118.377 92.1760   1
  -9 -16  -2 2706.07 312.541   3
 -16  25  -2 2364.00 292.000   1
   9 -25  -2 2561.59 299.117   4
  16   9  -2 2467.90 237.260   1
   9 -25  -2 2243.06 184.144   2
  25  -9  -2 2725.32 339.997   4
  -9 -16  -2 1956.76 207.619   2
  16   9  -2 2529.28 345.702   4
  25  -9  -2 2112.88 321.765   2
  16   9  -2 2334.71 320.079   2
  16   9   1 666.343 219.828   2
  -9 -16   1 984.859 214.410   3
   9 -25   1 662.993 193.294   3
 -25  16   1 449.873 90.1086   3
   9 -25   1 888.006 249.209   4
   9 -25   1 663.038 163.337   2
  25  -9   1 974.815 245.334   4
  16   9   1 999.545 222.702   1
  16   9   1 815.266 225.889   4
 -25  16   1 709.645 89.7419   3
  25  -9   1 773.721 218.448   2
 -16  25   1 889.757 232.842   1
  16   9   4 283.317 154.804   2
  -9 -16   4 596.165 213.610   3
   9 -25   4 256.896 171.946   3
 -16  25   4 205.050 193.121   1
  25  -9   4 600.150 204.060   4
  16   9   4 355.187 185.692   1
  25  -9   4 307.584 176.679   2
 -25  16   4 389.725 221.881   1
 -25  16   4 617.679 156.850   3
  -9 -16   7 204.555 212.682   3
   9 -25   7 637.286 240.738   3
 -16  25   7 194.550 224.430   1
  25  -9   7 175.373 193.425   4
  25  -9   7 132.337 178.739   2
 -25  16   7 184.985 219.216   1
  16   9   7 211.743 217.474   1
 -25  16   7 190.127 170.040   3
  16   9   7 169.417 137.098   2
   8 -25  -6 268.657 150.398   4
  25  -8  -6-89.5435 219.718   4
 -17  25  -3 956.929 234.548   1
  17   8  -3 1038.19 269.416   2
  -8 -17  -3 1163.30 254.740   3
   8 -25  -3 885.389 220.988   4
   8 -25  -3 842.560 105.053   2
  17   8  -3 1119.01 173.141   1
  25  -8  -3 956.357 254.691   4
  17   8  -3 670.427 237.860   4
  -8 -17  -3 991.392 146.647   2
  25  -8  -3 1022.84 287.801   2
  -8 -17   0 2286.49 286.106   3
   8 -25   0 1792.54 289.523   3
   8 -25   0 2061.94 227.847   2
   8 -25   0 1788.58 293.526   4
  17   8   0 1703.37 234.133   1
  25  -8   0 2118.90 321.408   4
  17   8   0 2436.26 327.663   4
  25  -8   0 2016.68 284.797   2
  17   8   0 2363.35 295.132   2
 -17  25   0 2044.40 278.682   1
  17   8   3 731.640 197.898   2
  -8 -17   3 995.691 222.580   3
 -25  17   3 1004.91 245.255   1
   8 -25   3 1001.69 237.961   3
  25  -8   3 822.400 222.221   4
  17   8   3 604.877 208.178   1
  17   8   3 753.048 218.132   4
 -17  25   3 861.264 242.488   1
  25  -8   3 833.248 226.794   2
 -25  17   3 815.443 150.310   3
  -8 -17   6 693.855 225.962   3
   8 -25   6 470.658 224.645   3
 -17  25   6 509.462 245.047   1
 -25  17   6 616.089 218.551   1
  25  -8   6 513.576 216.485   4
  17   8   6 135.319 203.194   1
  25  -8   6 391.828 211.426   2
 -25  17   6 291.035 165.647   3
  17   8   6 380.715 161.456   2
  25  -7  -7 721.597 325.703   2
   7 -25  -7 219.778 141.662   4
  25  -7  -7 243.353 251.173   4
  25  -7  -4 589.108 247.420   2
  18   7  -4 254.105 218.081   2
   7 -25  -4 224.788 166.308   4
  18   7  -4 547.051 138.774   1
  25  -7  -4 418.775 236.004   4
  18   7  -4 666.139 267.505   4
  18   7  -1 90.0325 197.918   2
  -7 -18  -1 189.897 186.852   3
   7 -25  -1 544.506 205.015   3
   7 -25  -1 495.283 218.706   4
   7 -25  -1 412.675 137.477   2
  18   7  -1 309.079 150.505   1
  25  -7  -1 127.349 184.090   4
  18   7  -1 568.026 231.766   4
 -18  25  -1 274.619 177.140   1
  25  -7  -1 253.449 203.054   2
  18   7   2 161.494 175.209   2
  -7 -18   2 310.058 173.533   3
   7 -25   2-12.1074 181.470   3
 -25  18   2 101.999 101.841   3
  18   7   2-77.0008 178.288   1
  25  -7   2 566.123 216.921   4
  18   7   2 251.767 169.627   4
 -25  18   2 186.421 99.0932   3
  25  -7   2 103.250 193.607   2
 -25  18   2 117.542 180.122   1
 -18  25   2 268.860 191.936   1
  -7 -18   5 600.851 222.909   3
   7 -25   5 767.816 224.626   3
 -25  18   5 764.776 238.573   1
  25  -7   5 961.698 234.783   4
  18   7   5 463.502 220.009   1
 -18  25   5 230.300 218.271   1
  18   7   5 584.682 184.089   4
  25  -7   5 650.954 219.226   2
 -25  18   5 682.880 190.797   3
  18   7   5 514.044 177.596   2
  -7 -18   8 882.313 280.615   3
   7 -25   8 492.494 235.331   3
 -25  18   8 362.774 220.062   1
  25  -7   8 601.709 240.987   1
 -18  25   8 586.671 253.899   1
  25  -7   8-130.398 183.381   4
  25  -7   8 686.285 261.962   2
  18   7   8 418.033 246.208   1
 -25  18   8-8.97921 193.832   3
  25  -6  -8 1083.20 360.238   2
  25  -6  -8 1427.69 332.990   4
  25  -6  -5-80.3186 233.117   2
  19   6  -5-252.562 241.602   2
   6 -25  -5 478.126 190.627   4
  19   6  -5 283.468 129.522   1
  25  -6  -5 90.4911 246.080   4
  19   6  -5 103.588 223.663   4
  19   6  -2 1942.36 314.915   2
  -6 -19  -2 1798.26 284.189   3
   6 -25  -2 1828.08 290.934   3
   6 -25  -2 2149.10 299.756   4
  19   6  -2 2203.57 250.426   1
   6 -25  -2 1884.77 170.930   2
 -19  25  -2 1915.62 291.744   1
  19   6  -2 2419.60 347.098   4
  25  -6  -2 1706.42 312.669   4
  -6 -19  -2 1800.57 197.271   2
  25  -6  -2 2036.53 321.005   2
   6 -25  -2 1786.73 198.033   2
  19   6   1 14.1180 174.522   2
  -6 -19   1 33.6885 166.519   3
 -25  19   1 79.6387 84.8101   3
   6 -25   1-66.0577 184.081   3
 -19  25   1-36.8108 194.145   1
  19   6   1 115.726 159.430   1
  25  -6   1 356.774 225.620   4
  19   6   1-124.555 200.674   4
  25  -6   1 76.4589 63.0261   3
 -25  19   1-19.3092 76.6075   3
  25  -6   1 304.978 216.129   2
 -25  19   1-467.984 224.468   1
  -6 -19   4 346.047 173.422   3
   6 -25   4 538.563 190.188   3
  19   6   4 887.241 256.336   1
 -25  19   4 260.706 199.757   1
  25  -6   4 834.771 240.321   4
  19   6   4 463.956 197.939   4
  25  -6   4 310.154 44.9699   3
 -25  19   4 971.594 177.054   3
  25  -6   4 659.308 220.252   2
 -19  25   4 536.040 239.450   1
  19   6   4 418.359 176.976   2
  -6 -19   7-314.526 216.352   3
   6 -25   7 148.554 186.986   3
  25  -6   7 163.422 211.297   1
  25  -6   7 278.777 191.017   4
 -19  25   7 238.392 235.678   1
  19   6   7-190.904 236.210   1
  25  -6   7-102.036 183.032   2
 -25  19   7 180.519 203.750   3
  19   6   7 290.150 160.672   2
 -25  19   7-60.9078 209.831   1
  25  -5  -6 228.906 246.930   2
  20   5  -6 156.256 253.382   2
   5 -25  -6 54.8319 141.054   4
  20   5  -6 171.378 104.489   1
  25  -5  -6 17.2300 223.855   4
  20   5  -6 120.834 254.750   4
  25  -5  -3 384.917 220.689   2
 -20  25  -3 623.033 225.793   1
   5 -25  -3 504.861 103.914   2
  20   5  -3 996.870 272.619   2
  -5 -20  -3 780.789 233.383   3
   5 -25  -3 587.488 218.032   4
   5 -25  -3 696.063 91.4716   2
  25  -5  -3 821.854 269.092   4
  20   5  -3 490.979 240.789   4
  -5 -20  -3 752.161 121.397   2
 -25  20   0 271.169 66.2463   3
  20   5   0 1009.73 255.969   2
  -5 -20   0 444.203 208.067   3
   5 -25   0 782.201 230.004   3
   5 -25   0 502.667 144.026   2
  20   5   0 381.312 165.773   1
  25  -5   0 537.972 241.160   4
  20   5   0 1070.14 272.017   4
 -20  25   0 58.5299 184.752   1
  25  -5   0 378.085 112.360   3
 -25  20   0 294.928 64.3587   3
  25  -5   0 387.723 209.647   2
 -20  25   3 714.316 248.412   1
  -5 -20   3 386.967 191.733   3
   5 -25   3 283.200 180.111   3
  20   5   3 493.547 206.878   1
  25  -5   3 594.720 220.277   4
  20   5   3 453.895 221.216   4
 -25  20   3 705.676 243.771   1
 -25  20   3 514.153 142.583   3
  25  -5   3 444.547 186.532   2
  20   5   3 806.758 211.271   2
  -5 -20   6 375.026 213.037   3
   5 -25   6 292.107 214.573   3
  20   5   6-115.274 220.335   1
  25  -5   6 376.282 210.136   4
  20   5   6 158.855 171.041   4
  25  -5   6 1.76391 190.069   2
 -25  20   6-56.5035 173.843   3
 -20  25   6 219.545 208.404   1
 -25  20   6 292.030 222.926   1
  20   5   6 42.1073 159.636   2
  25  -4  -7 1443.22 344.098   2
   4 -25  -7 1227.22 197.814   4
  25  -4  -7 1350.62 331.886   4
  21   4  -7 1743.19 380.723   4
  25  -4  -4 195.464 235.707   2
  21   4  -4 75.8996 230.911   2
   4 -25  -4-18.1431 164.979   4
  25  -4  -4 293.878 218.081   4
  21   4  -4-5.20061 213.772   4
  21   4  -1 929.289 284.287   2
   4 -25  -1 723.535 165.975   2
  -4 -21  -1 606.736 222.709   3
   4 -25  -1 1345.16 277.928   3
   4 -25  -1 1298.98 181.136   2
  25  -4  -1 1774.98 347.362   4
 -21  25  -1 766.323 232.290   1
  21   4  -1 1443.22 298.081   4
  25  -4  -1 739.396 144.012   3
  25  -4  -1 1622.04 284.798   2
 -21  25  -1 941.327 154.080   3
  -4 -21   2 96.8522 192.420   3
   4 -25   2 649.986 225.446   3
 -21  25   2 208.779 194.061   1
  21   4   2 330.307 185.570   1
  25  -4   2 178.555 195.818   4
  21   4   2 300.540 224.649   4
 -25  21   2 163.944 106.085   3
  25  -4   2 144.881 80.3610   3
  25  -4   2 26.0807 171.914   2
 -25  21   2 365.033 213.856   1
  21   4   2 60.7787 180.857   2
  -4 -21   5 974.900 233.301   3
   4 -25   5 1164.64 264.510   3
  21   4   5 1093.99 272.135   1
  25  -4   5 1187.83 258.915   4
  21   4   5 987.731 234.869   4
 -25  21   5 655.815 197.711   3
  25  -4   5 1233.80 256.127   2
  21   4   5 790.917 211.184   2
 -25  21   5 1033.82 261.860   1
 -21  25   5 1049.22 273.481   1
  25  -3  -5-5.74205 245.033   2
  22   3  -5-56.4024 233.255   2
   3 -25  -5-197.089 184.084   4
  25  -3  -5-207.675 270.764   4
  22   3  -5 246.437 271.082   4
  25  -3  -2 276.657 203.204   2
   3 -25  -2 570.945 144.707   2
  22   3  -2 303.167 220.529   2
  -3 -22  -2 476.696 231.775   3
   3 -25  -2 300.288 201.346   3
   3 -25  -2 732.028 132.280   2
  25  -3  -2 1342.71 311.609   4
  22   3  -2 619.698 264.047   4
 -22  25  -2 522.507 219.261   1
  -3 -22  -2 491.050 140.322   2
 -22  25  -2 599.961 122.170   3
  22   3   1 136.875 204.439   2
 -25  22   1-140.942 100.106   3
  -3 -22   1 133.194 191.622   3
   3 -25   1 12.6000 179.114   3
 -25  22   1 293.058 203.084   1
  25  -3   1 138.635 198.123   4
  22   3   1 103.095 220.201   4
 -22  25   1-165.564 188.679   1
  25  -3   1 172.454 94.9955   3
  25  -3   1 107.845 181.942   2
  -3 -22   4 1245.25 256.807   3
   3 -25   4 1288.36 254.544   3
 -22  25   4 444.909 216.762   1
  22   3   4 1616.63 287.143   1
  25  -3   4 1426.60 283.207   4
  22   3   4 1263.31 269.011   4
 -25  22   4 1594.30 227.749   3
  25  -3   4 1257.23 238.256   2
  22   3   4 1344.15 245.586   2
 -25  22   4 1530.31 297.530   1
  -3 -22   7 15.7653 197.610   3
   3 -25   7 16.1645 204.560   3
  25  -3   7-211.732 214.042   1
  22   3   7 241.479 230.304   1
 -25  22   7 150.413 238.891   1
  25  -3   7 237.424 182.609   4
  22   3   7 27.8848 154.627   4
 -25  22   7 203.451 203.985   3
  25  -3   7-60.2402 181.792   2
  22   3   7 45.1306 172.998   2
 -22  25   7 77.3978 215.685   1
  25  -2  -6-300.733 267.332   2
  23   2  -6-85.9377 260.519   2
  -2 -23  -6-123.363 156.285   4
   2 -25  -6 139.506 161.853   4
  25  -2  -6 9.29815 263.875   4
  23   2  -6 326.872 291.449   4
  25  -2  -3 628.111 259.633   2
  23   2  -3 873.954 255.322   2
   2 -25  -3 409.134 76.8752   2
  25  -2  -3 1068.71 306.314   4
  23   2  -3 852.317 306.343   4
  23   2   0-151.069 197.023   2
 -25  23   0-51.9193 88.4382   3
  -2 -23   0 91.8269 196.139   3
   2 -25   0 500.319 223.596   3
 -25  23   0 122.472 202.214   1
 -23  25   0 31.6623 194.798   1
  25  -2   0 178.043 214.250   4
  23   2   0 38.9452 199.311   4
  25  -2   0 137.422 222.039   2
 -25  23   3 609.983 239.940   1
  -2 -23   3 824.581 241.578   3
   2 -25   3 763.383 235.490   3
  23   2   3 748.248 246.130   1
 -23  25   3 998.665 268.797   1
  25  -2   3 628.555 218.484   4
  23   2   3 715.863 237.926   4
  25  -2   3 610.430 233.495   2
  23   2   3 998.664 239.397   2
  -2 -23   6-180.288 196.857   3
   2 -25   6 72.1434 211.774   3
 -23  25   6 378.694 238.882   1
  25  -2   6 188.168 221.396   1
  23   2   6 212.273 225.168   1
 -25  23   6 696.705 268.507   1
  25  -2   6 438.211 218.089   4
  23   2   6 150.289 178.970   4
 -25  23   6 568.354 208.470   3
  25  -2   6 264.324 197.885   2
  23   2   6 237.414 175.468   2
  25  -1  -7 1458.98 381.650   2
  24   1  -7 1103.58 330.189   2
  25  -1  -7 1394.21 351.044   4
  24   1  -7 1069.83 329.910   4
  25  -1  -4 256.805 253.894   2
  24   1  -4-81.2969 255.659   2
  25  -1  -4 297.525 260.269   4
  24   1  -4 631.939 275.482   4
  25  -1  -1 1241.57 297.190   2
  24   1  -1 1441.96 287.449   2
 -24  25  -1 1095.95 269.215   1
  -1 -24  -1 1321.09 284.844   3
   1 -25  -1 1150.74 275.836   3
 -25  24  -1 1291.33 266.474   1
  25  -1  -1 1116.16 294.800   4
  24   1  -1 1007.56 289.646   4
  -1 -24   2 143.244 194.683   3
   1 -25   2 530.827 228.415   3
 -25  24   2 34.2886 215.343   1
  25  -1   2 199.040 217.265   4
  24   1   2 316.135 233.904   4
 -24  25   2 394.284 247.396   1
  25  -1   2 354.644 211.391   2
  24   1   2 520.494 219.752   2
  -1 -24   5 638.062 222.422   3
   1 -25   5 877.221 264.303   3
 -24  25   5 764.102 275.959   1
  25  -1   5 765.296 239.487   1
  24   1   5 814.990 248.135   1
 -25  24   5 307.752 215.585   1
  25  -1   5 698.841 227.186   4
  24   1   5 1065.64 275.477   4
  25  -1   5 835.377 224.926   2
  24   1   5 852.718 232.573   2
  25   0  -5 120.632 264.334   2
   0 -25  -5 559.582 214.175   4
  25   0  -5 64.6926 261.790   4
  25   0  -2 35.3352 238.314   2
   0 -25  -2 482.585 224.079   3
  25   0  -2 284.087 233.016   4
   0 -25   1 434.355 214.074   3
  25   0   1-43.8498 232.138   4
 -25  25   1-189.210 229.551   1
  25   0   1 178.030 189.524   2
   0 -25   4 1115.22 240.746   3
  25   0   4 1476.92 300.013   1
  25   0   4 1291.19 269.119   4
 -25  25   4 1265.53 299.726   1
  25   0   4 1691.69 280.263   2
  26 -26  -5-69.3840 183.670   4
  26 -26  -5-311.160 201.335   2
 -26   0  -2 1761.66 222.077   3
   0  26  -2 2397.97 259.734   1
  26 -26  -2 2716.78 364.564   4
  26 -26  -2 2358.08 302.538   2
 -26   0   1-151.177 139.816   3
  26 -26   1 315.831 217.538   4
   0  26   1 134.592 165.797   1
  26 -26   1 323.528 194.509   2
  26 -26   4 2107.34 352.252   4
   0  26   4 2155.98 327.099   1
  26 -26   4 1819.32 301.538   2
 -26   0   4 1680.72 253.890   3
  25 -26  -6 337.995 216.695   2
  26 -25  -6 587.892 242.180   2
  25 -26  -6 214.375 203.938   4
  26 -25  -6 228.890 220.492   4
   1  25  -3 530.410 147.603   1
  -1  26  -3 174.378 139.338   1
  25 -26  -3 311.849 202.060   4
  26 -25  -3 445.639 233.481   4
  25 -26  -3 383.324 185.961   2
  26 -25  -3 221.661 174.244   2
 -26   1   0 318.129 143.996   3
 -25  -1   0 373.470 159.863   3
  25 -26   0 215.347 203.561   4
  26 -25   0 554.996 221.507   4
   1  25   0 525.213 188.016   1
  25 -26   0 474.449 209.211   2
  -1  26   0 701.805 217.103   1
  26 -25   0 303.298 195.402   2
 -26   1   3 369.974 145.949   3
 -25  -1   3 477.930 168.067   3
   1  25   3 585.190 219.003   1
  25 -26   3 829.415 257.324   4
  26 -25   3 645.176 254.676   4
  -1  26   3 476.808 229.576   1
  25 -26   3 454.260 219.573   2
  26 -25   3 706.993 227.968   2
   1  25   6 221.641 234.242   1
  25 -26   6 341.642 253.589   4
  26 -25   6 156.827 195.325   4
  -1  26   6-36.3949 220.442   1
  25 -26   6-29.0334 219.084   2
  26 -25   6 21.3988 209.184   2
 -26   1   6 118.147 185.709   3
 -25  -1   6-45.5061 180.993   3
   2  24  -4 507.181 138.081   1
  24 -26  -4 98.8152 202.660   4
  26 -24  -4 312.951 214.534   4
  24 -26  -4 554.041 202.216   2
  -2  26  -4 456.782 141.640   1
  26 -24  -4 122.769 172.074   2
 -24  -2  -1 1077.35 206.103   3
 -26   2  -1 1026.27 169.909   3
  24 -26  -1 1127.22 271.644   4
  26 -24  -1 1115.40 260.357   4
   2  24  -1 987.657 205.045   1
  24 -26  -1 1014.87 229.684   2
  26 -24  -1 737.040 227.464   2
  -2  26  -1 1181.85 216.195   1
 -26   2   2 207.796 128.246   3
 -24  -2   2-133.816 149.873   3
   2  24   2 308.316 199.423   1
  24 -26   2 455.111 233.210   4
  26 -24   2-19.4652 201.957   4
  -2  26   2 273.942 192.807   1
  24 -26   2 76.8717 168.808   2
  26 -24   2 152.582 193.581   2
   2  24   5 1350.80 314.540   1
  24 -26   5 656.335 238.373   4
  26 -24   5 893.839 259.057   4
  -2  26   5 836.701 280.455   1
  24 -26   5 1081.00 275.820   2
  26 -24   5 829.910 261.745   2
 -26   2   5 529.281 180.496   3
 -24  -2   5 965.885 225.605   3
  23 -26  -5 69.0550 205.064   4
  26 -23  -5 93.5888 216.741   4
  -3  26  -5-250.970 139.108   1
  23 -26  -5-227.938 176.973   2
  26 -23  -5 403.661 207.634   2
  -3  26  -2 827.931 184.350   1
 -23  -3  -2 856.336 186.413   3
  23 -26  -2 811.732 248.055   4
  26 -23  -2 903.265 253.440   4
  23 -26  -2 751.685 209.463   2
  26 -23  -2 806.871 216.904   2
   3  23  -2 1163.95 198.952   1
 -26   3   1 131.007 117.788   3
 -23  -3   1 128.388 156.862   3
   3  23   1 273.706 186.668   1
  26 -23   1 109.333 221.703   4
  23 -26   1-84.0379 161.118   2
  26 -23   1 14.8234 195.612   2
  -3  26   1 318.168 189.733   1
  23 -26   1-7.86534 205.932   4
  23 -26   4 1349.37 172.312   3
   3  23   4 1526.47 295.389   1
  23 -26   4 1165.78 288.364   4
  26 -23   4 1435.26 285.560   4
  -3  26   4 1882.36 313.818   1
  23 -26   4 1462.89 267.716   2
  26 -23   4 1575.00 284.368   2
 -23  -3   4 1949.33 257.256   3
 -26   3   4 1373.48 208.327   3
   3  23   7 163.055 225.505   1
  23 -26   7 131.656 205.216   4
  26 -23   7-267.638 235.256   4
  23 -26   7 40.8876 209.891   2
  -3  26   7-65.4223 225.628   1
  26 -23   7-319.225 227.717   2
 -26   3   7 450.492 212.991   3
 -23  -3   7 307.601 221.626   3
  22 -26  -6 332.860 190.880   2
  26 -22  -6 651.660 251.258   2
  22 -26  -6 506.123 221.751   4
  26 -22  -6 266.788 215.538   4
  22 -26  -3 594.624 219.036   4
  26 -22  -3 671.602 247.485   4
  -4  26  -3 294.905 148.061   1
   4  22  -3 314.922 133.463   1
  22 -26  -3 541.316 190.632   2
  26 -22  -3 142.098 180.675   2
 -22  -4   0 1287.44 219.808   3
  22 -26   0 1224.53 264.974   4
  26 -22   0 952.263 247.000   4
  22 -26   0 1432.79 234.124   2
  26 -22   0 1277.52 254.774   2
   4  22   0 1849.08 261.710   1
  -4  26   0 1338.53 226.728   1
 -26   4   0 1497.91 175.066   3
 -22  -4   3 253.374 165.450   3
   4  22   3 311.829 209.017   1
  22 -26   3 216.737 116.228   3
  22 -26   3 19.2219 192.460   4
  26 -22   3 625.838 262.466   4
  22 -26   3 125.963 167.865   2
  -4  26   3 299.709 188.890   1
  26 -22   3 27.5249 186.908   2
 -26   4   3 377.629 164.582   3
  22 -26   6 439.746 145.574   3
   4  22   6 9.93530 227.584   1
  22 -26   6 609.847 227.472   4
  26 -22   6 294.999 223.989   4
  22 -26   6 187.436 196.843   2
  -4  26   6 707.789 252.970   1
  26 -22   6 341.715 220.144   2
 -26   4   6 498.480 208.339   3
 -22  -4   6 424.077 206.673   3
  26 -21  -7 525.601 247.207   2
  21 -26  -7 276.299 199.162   2
  21 -26  -7 376.047 208.981   4
  26 -21  -7 232.582 217.801   4
  -5  26  -4-25.0646 131.558   1
  21 -26  -4 105.371 177.426   4
  26 -21  -4 441.348 219.548   4
  21 -26  -4 106.382 138.550   2
  26 -21  -4 101.840 183.173   2
   5  21  -4 230.928 108.789   1
  -5  26  -1 472.506 181.891   1
 -21  -5  -1 141.591 151.938   3
 -26   5  -1 236.648 92.1234   3
   5  21  -1 340.060 153.477   1
  21 -26  -1 436.610 212.714   4
  26 -21  -1 156.488 213.517   4
  21 -26  -1 285.955 158.779   2
  26 -21  -1 488.808 205.764   2
 -26   5   2 46.1453 108.634   3
 -21  -5   2 121.577 165.509   3
   5  21   2 365.111 200.578   1
  21 -26   2 45.7601 190.052   4
  26 -21   2-87.7385 204.532   4
  21 -26   2 63.6525 175.314   2
  26 -21   2 288.840 208.444   2
  -5  26   2 160.930 186.340   1
 -21  -5   5 693.752 209.263   3
   5  21   5 883.574 275.439   1
  21 -26   5 555.180 157.619   3
  21 -26   5 627.383 254.541   4
  26 -21   5 877.729 249.096   4
  21 -26   5 953.292 256.482   2
  26 -21   5 361.698 235.966   2
  -5  26   5 850.783 258.644   1
 -26   5   5 603.813 172.669   3
  20 -26  -5 516.772 227.721   4
  -6  26  -5 92.0967 127.580   1
  26 -20  -5 838.137 257.609   4
  20 -26  -5-125.912 147.615   2
  26 -20  -5 112.806 208.731   2
 -20  -6  -2 898.714 199.423   3
  20 -26  -2 1148.71 243.994   4
  -6  26  -2 1052.63 197.839   1
  26 -20  -2 968.712 252.742   4
  20 -26  -2 832.234 179.648   2
   6  20  -2 1194.23 188.271   1
  26 -20  -2 1058.49 241.633   2
 -26   6   1 129.129 98.5006   3
   6  20   1 160.283 162.327   1
 -20  -6   1 2.41957 154.844   3
  20 -26   1-22.9363 176.881   4
  26 -20   1 279.164 207.099   4
  20 -26   1 314.438 172.518   2
  26 -20   1-74.8543 184.674   2
  -6  26   1 294.484 178.235   1
 -20  -6   4 923.106 210.695   3
   6  20   4 679.678 233.457   1
  20 -26   4 546.546 158.222   3
  20 -26   4 384.697 227.280   4
  26 -20   4 982.703 245.083   4
  20 -26   4 948.150 254.603   2
  26 -20   4 420.068 209.716   2
  -6  26   4 753.753 240.211   1
 -26   6   4 344.201 150.968   3
  20 -26   7 127.668 156.642   3
   6  20   7-18.9125 216.964   1
  20 -26   7 459.714 234.895   4
  20 -26   7 160.032 220.422   2
  26 -20   7 441.768 220.115   4
  26 -20   7 116.793 194.883   2
  -6  26   7 425.933 245.225   1
 -26   6   7 223.243 210.769   3
 -20  -6   7-285.184 208.788   3
  19 -26  -6 1404.92 217.104   2
  26 -19  -6 1302.04 292.348   2
  19 -26  -6 875.029 235.916   4
  26 -19  -6 1622.66 300.706   4
   7  19  -3 169.187 117.148   1
  19 -26  -3 545.214 215.974   4
  26 -19  -3-55.1595 189.199   4
  19 -26  -3 379.826 148.979   2
  -7  26  -3 326.939 156.986   1
 -19  -7   0 3081.18 297.084   3
  -7  26   0 2399.95 291.490   1
  19 -26   0 2764.22 344.405   4
  26 -19   0 2761.93 349.991   4
  19 -26   0 1827.48 237.342   2
  26 -19   0 2263.97 298.466   2
   7  19   0 2664.55 277.631   1
 -26   7   0 2603.69 167.131   3
   7  19   3 470.966 199.221   1
 -19  -7   3 535.336 194.171   3
  19 -26   3 404.340 152.636   3
  19 -26   3 403.326 221.712   4
  26 -19   3 259.933 199.099   4
  19 -26   3 512.684 200.900   2
  26 -19   3 204.209 169.425   2
  -7  26   3 147.907 192.528   1
 -26   7   3 338.996 127.673   3
   7  19   6 1420.49 306.319   1
  19 -26   6 1400.59 296.006   4
  19 -26   6 829.523 258.353   2
  26 -19   6 1118.34 255.588   4
  26 -19   6 1062.45 252.196   2
  -7  26   6 1495.91 313.184   1
 -26   7   6 980.637 217.725   3
  19 -26   6 1254.46 222.277   3
 -19  -7   6 1431.04 268.992   3
  26 -18  -7 382.566 257.219   2
  18 -26  -7 34.3041 167.439   4
  26 -18  -7 539.206 259.273   4
  18 -26  -4 334.180 195.953   4
  26 -18  -4 164.657 196.447   4
   8  18  -4 231.990 101.853   1
  -8  26  -4 262.492 154.012   1
  18 -26  -4 248.668 138.299   2
  26 -18  -4 93.6527 213.513   2
   8  18  -1 1216.46 198.088   1
 -18  -8  -1 1172.31 220.993   3
  18 -26  -1 879.599 231.101   4
  18 -26  -1 1489.12 222.710   2
  -8  26  -1 1309.57 240.607   1
  26 -18  -1 1334.65 262.580   4
 -18  -8   2 949.265 200.825   3
  18 -26   2 1170.57 200.157   3
  18 -26   2 1240.34 280.009   4
  26 -18   2 885.344 233.897   4
  18 -26   2 995.325 211.074   2
  26 -18   2 643.185 208.972   2
 -26   8   2 962.202 146.192   3
  -8  26   2 878.777 211.567   1
   8  18   2 585.816 189.867   1
 -18  -8   5 336.085 183.077   3
  18 -26   5 706.776 181.662   3
  18 -26   5 628.926 238.248   4
  18 -26   5 750.131 223.729   2
  26 -18   5 471.581 203.716   4
  26 -18   5 347.053 188.490   2
  -8  26   5 293.121 221.033   1
 -26   8   5 483.467 176.807   3
   8  18   5 479.046 214.145   1
  26 -17  -5 41.1817 193.783   2
  17 -26  -5 66.8534 165.233   4
  26 -17  -5 261.258 205.365   4
  -9  26  -5 613.944 171.845   1
  17 -26  -5 294.813 138.605   2
   9  17  -5 107.844 55.0938   1
   9  17  -2 105.967 113.898   1
 -17  -9  -2 52.9253 164.433   3
  17 -26  -2 220.899 181.740   4
  26 -17  -2-86.0195 209.333   4
  17 -26  -2 181.097 128.973   2
  -9  26  -2 215.979 161.755   1
  26 -17  -2 37.9566 192.565   2
 -26   9   1 517.964 103.682   3
  -9  26   1 459.147 182.728   1
 -17  -9   1 444.156 193.160   3
  17 -26   1 335.815 160.701   3
  17 -26   1 254.129 198.086   4
  26 -17   1 444.944 197.632   4
  17 -26   1 329.783 168.702   2
  26 -17   1 620.199 208.133   2
   9  17   1 498.005 166.160   1
 -17  -9   4 167.554 157.053   3
  17 -26   4-27.2949 143.055   3
  17 -26   4-132.525 198.750   4
  17 -26   4 99.3824 193.379   2
  26 -17   4-200.604 196.238   4
  26 -17   4 169.017 191.547   2
  -9  26   4 10.9326 189.200   1
 -26   9   4-42.2063 120.635   3
   9  17   4 359.332 218.153   1
  17 -26   7 102.416 168.801   3
  17 -26   7 35.1954 221.487   4
  17 -26   7-281.023 220.425   2
  26 -17   7 75.1654 207.471   4
  26 -17   7 248.941 206.149   2
  -9  26   7-96.1612 223.888   1
 -26   9   7-28.3224 165.674   3
   9  17   7 89.8512 221.515   1
 -17  -9   7 168.888 222.161   3
  26 -16  -6 1112.67 295.365   2
  16 -26  -6 898.129 148.492   2
  16 -26  -6 1688.48 255.440   4
  26 -16  -6 2102.48 340.595   4
  10  16  -3 235.107 110.572   1
 -16 -10  -3 309.985 183.215   3
 -10  26  -3 151.680 157.207   1
  16 -26  -3 414.580 220.162   4
  26 -16  -3 208.806 198.166   4
  16 -26  -3 114.848 116.906   2
  26 -16  -3 118.133 195.074   2
 -16 -10   0 1709.06 244.337   3
 -10  26   0 1415.78 221.722   1
  16 -26   0 1572.48 214.835   2
  16 -26   0 1274.41 270.626   4
  10  16   0 1805.42 239.719   1
  26 -16   0 1266.03 275.826   4
  26 -16   0 1549.52 266.629   2
 -16 -10   3 52.4095 167.603   3
  16 -26   3 86.6861 148.929   3
  16 -26   3-11.8665 207.901   4
  16 -26   3 357.932 183.475   2
  26 -16   3 349.674 199.873   4
  26 -16   3-34.4561 174.089   2
  10  16   3 364.204 176.512   1
 -26  10   3 431.440 125.411   3
 -10  26   3 323.545 171.329   1
 -10  26   6 2117.89 342.306   1
  16 -26   6 1837.54 311.865   4
  26 -16   6 2111.08 309.764   4
  16 -26   6 1771.57 304.089   2
  26 -16   6 2154.13 330.173   2
  10  16   6 2175.94 347.501   1
 -26  10   6 1913.88 264.279   3
 -16 -10   6 1947.04 315.498   3
  16 -26   6 2121.70 261.128   3
  26 -15  -7 1067.64 323.588   2
  15 -26  -7 496.058 185.653   4
  26 -15  -7 400.297 229.115   4
  11  15  -4 410.217 99.5246   1
 -11  26  -4 578.982 186.512   1
  15 -26  -4 124.812 168.938   4
  26 -15  -4 505.326 225.062   4
  15 -26  -4 111.383 111.521   2
  26 -15  -4 28.3743 185.972   2
 -15 -11  -1 1474.99 249.762   3
  15 -26  -1 1459.75 257.070   4
  26 -15  -1 461.124 226.338   4
  15 -26  -1 976.043 173.122   2
 -11  26  -1 1051.06 209.119   1
  26 -15  -1 835.771 227.963   2
  11  15  -1 1134.45 189.931   1
 -15 -11   2 340.493 179.405   3
 -11  26   2 261.138 179.678   1
  15 -26   2 126.353 161.033   3
  15 -26   2-146.672 203.223   4
  15 -26   2 721.032 193.108   2
  26 -15   2 509.077 212.820   4
  26 -15   2 338.641 183.633   2
  11  15   2 365.559 195.206   1
 -26  11   2 224.278 93.1140   3
 -15 -11   5 842.176 223.346   3
  15 -26   5 798.611 200.414   3
  15 -26   5 670.379 228.845   4
  15 -26   5 1609.71 287.085   2
  26 -15   5 921.769 251.066   4
  26 -15   5 1465.28 271.859   2
  11  15   5 899.358 243.256   1
 -26  11   5 950.074 189.606   3
 -11  26   5 925.394 256.880   1
  15 -26   8 236.426 210.376   3
  15 -26   8 163.670 227.585   4
  15 -26   8 546.196 252.494   2
  26 -15   8 72.9725 215.184   4
  26 -15   8 316.074 221.880   2
 -26  11   8 156.403 194.167   3
 -11  26   8 857.151 277.715   1
  11  15   8 521.641 287.160   1
 -15 -11   8 62.6401 211.730   3
  26 -14  -8 173.979 247.807   2
  14 -26  -8 72.0315 154.974   4
  26 -14  -8 246.230 247.556   4
  26 -14  -5-186.547 217.714   2
  12  14  -5 128.367 61.6417   1
  14 -26  -5 163.553 161.337   4
  26 -14  -5 196.037 247.850   4
  14 -26  -5 286.463 105.059   2
 -12  26  -2 257.878 156.140   1
 -14 -12  -2 592.999 215.131   3
  14 -26  -2 180.345 196.895   4
  26 -14  -2 132.846 202.847   4
  14 -26  -2 260.506 119.113   2
  12  14  -2 174.949 139.038   1
  26 -14  -2 388.949 194.643   2
 -14 -12   1 525.675 173.186   3
  14 -26   1 336.671 184.822   3
  12  14   1 161.780 162.853   2
  14 -26   1 282.685 207.103   4
 -12  26   1 362.342 190.362   1
  14 -26   1 436.968 163.673   2
  26 -14   1 184.876 185.900   4
  26 -14   1-171.030 178.625   2
  12  14   1-25.7498 154.591   1
 -26  12   1 260.656 71.9721   3
 -14 -12   4 75.8663 179.915   3
 -12  26   4 626.204 226.403   1
  14 -26   4 510.701 203.067   3
  12  14   4 342.245 128.828   2
  14 -26   4 256.841 196.293   4
  14 -26   4 590.878 197.411   2
  26 -14   4 180.500 185.053   4
  26 -14   4 266.276 187.155   2
  12  14   4 330.656 203.576   1
 -26  12   4 390.113 147.548   3
  14 -26   7 671.139 214.921   3
  14 -26   7 603.103 247.508   4
  14 -26   7 806.902 256.047   2
  26 -14   7 803.486 237.384   4
  26 -14   7 277.027 217.911   2
 -26  12   7 905.905 220.965   3
  12  14   7 766.219 266.133   1
 -12  26   7 622.630 252.741   1
 -14 -12   7 456.959 215.585   3
  26 -13  -6 1312.12 300.814   2
  13 -26  -6 1936.65 253.287   4
  26 -13  -6 1615.24 314.441   4
 -13 -13  -3 297.555 194.266   3
  13 -26  -3 59.3653 168.852   4
  26 -13  -3-300.192 224.648   4
  13 -26  -3 116.471 100.570   2
  13  13  -3 97.0848 113.154   1
 -13  26  -3-102.556 161.740   1
  26 -13  -3 15.1578 190.556   2
 -13 -13   0 1394.31 241.551   3
  13  13   0 917.705 222.535   2
  13 -26   0 1197.66 225.872   3
  13 -26   0 1367.25 252.409   4
  13  13   0 1359.03 218.592   1
  13 -26   0 1216.98 196.974   2
  26 -13   0 982.941 238.138   4
 -13  26   0 1507.12 257.772   1
  26 -13   0 1324.70 260.084   2
 -13 -13   3 194.546 169.746   3
  13 -26   3 50.8302 155.946   3
  13  13   3 312.450 159.345   2
 -13  26   3-71.0272 174.844   1
  13 -26   3 133.070 218.466   4
  13 -26   3 448.239 184.524   2
  26 -13   3 222.565 193.032   4
  26 -13   3 355.666 191.991   2
  13  13   3 145.427 185.084   1
 -26  13   3 2.77087 104.269   3
 -13 -13   6 1433.97 277.930   3
 -13  26   6 1894.25 320.480   1
  13 -26   6 2023.68 317.474   2
  13 -26   6 1923.63 327.212   4
  26 -13   6 1553.58 267.542   4
  26 -13   6 1626.36 281.685   2
 -26  13   6 1468.77 240.389   3
  13  13   6 1890.07 313.770   1
  13 -26   6 1869.42 283.674   3
  26 -12  -7 925.042 301.839   2
  12 -26  -7 549.616 179.704   4
  26 -12  -7 664.125 276.256   4
  26 -12  -4 435.429 230.667   2
 -14  26  -4 325.180 182.434   1
  12 -26  -4 734.910 208.250   4
  26 -12  -4 231.988 212.772   4
  12 -26  -4 316.894 99.9815   2
  14  12  -4 486.666 118.882   1
 -14  26  -1 279.931 194.291   1
 -12 -14  -1 297.849 168.878   3
  14  12  -1-157.837 187.038   2
  12 -26  -1 394.951 218.462   4
  12 -26  -1 202.638 112.999   2
  26 -12  -1 121.403 187.094   4
  14  12  -1 137.419 139.508   1
  26 -12  -1 95.3702 189.520   2
 -12 -14   2 161.535 170.153   3
  14  12   2 109.387 163.131   2
  12 -26   2-218.333 173.812   3
  12 -26   2 412.476 207.405   4
  12 -26   2 15.7436 146.182   2
 -14  26   2 300.784 195.974   1
  26 -12   2 196.033 195.658   4
  14  12   2-252.779 198.567   1
  26 -12   2 456.449 210.178   2
 -26  14   2 77.3299 84.6677   3
 -12 -14   5 785.085 236.324   3
  14  12   5 391.344 144.701   2
  12 -26   5 200.351 163.301   3
 -14  26   5-7.28906 201.983   1
  12 -26   5-10.3759 202.762   4
  12 -26   5 227.767 179.194   2
  26 -12   5 222.864 202.433   4
  26 -12   5 239.060 206.697   2
  14  12   5 227.903 196.284   1
 -26  14   5 393.351 158.754   3
  12 -26   8 220.481 198.583   3
 -14  26   8 755.045 266.439   1
  12 -26   8-0.39996 240.987   4
  12 -26   8 17.4723 242.565   2
  26 -12   8 238.317 196.671   4
  26 -12   8-14.4414 211.616   2
 -26  14   8 2.02870 203.318   1
 -26  14   8-119.468 218.326   3
  14  12   8-79.3933 236.804   1
 -12 -14   8-6.64107 214.611   3
  26 -11  -8 622.095 296.579   2
  26 -11  -8 213.222 243.098   4
  26 -11  -5 1178.07 302.706   2
  11 -26  -5 1221.73 242.188   4
  15  11  -5 798.698 112.291   1
  26 -11  -5 1464.30 311.630   4
 -11 -15  -2 603.991 220.849   3
  15  11  -2 314.426 219.616   2
  11 -26  -2 136.542 185.715   4
  11 -26  -2 540.898 131.337   2
  26 -11  -2 112.506 196.616   4
 -15  26  -2 412.522 200.833   1
  15  11  -2 382.783 150.412   1
  26 -11  -2 295.957 196.405   2
 -11 -15   1 969.115 219.890   3
  15  11   1 920.435 222.423   2
  11 -26   1 1039.24 220.617   3
 -26  15   1 593.123 87.7367   3
  11 -26   1 891.973 246.876   4
  11 -26   1 951.549 195.212   2
  26 -11   1 1295.50 295.882   4
  15  11   1 924.931 202.189   1
 -15  26   1 815.552 224.767   1
  26 -11   1 909.888 253.990   2
 -26  15   1 680.759 80.5016   3
 -11 -15   4 779.190 214.411   3
  15  11   4 325.922 157.375   2
  11 -26   4 523.023 187.002   3
  11 -26   4 257.363 199.900   4
 -15  26   4 250.344 197.494   1
  11 -26   4 747.259 224.098   2
  26 -11   4 169.342 191.833   4
  15  11   4 291.946 201.244   1
  26 -11   4 248.312 176.333   2
 -26  15   4 412.541 140.534   3
 -11 -15   7 654.414 255.812   3
  11 -26   7 750.745 229.276   3
 -15  26   7 298.774 223.419   1
  11 -26   7 367.554 255.258   4
  11 -26   7 431.346 226.424   2
  26 -11   7 757.427 238.248   4
  26 -11   7 288.630 227.202   2
 -26  15   7 916.494 272.511   1
  15  11   7 935.905 252.436   1
 -26  15   7 1270.20 256.265   3
  26 -10  -6 2307.00 364.674   2
  10 -26  -6 2056.75 254.271   4
  26 -10  -6 2125.43 368.241   4
  16  10  -3 726.549 240.439   2
 -10 -16  -3-113.835 182.045   3
  10 -26  -3 438.224 187.408   4
  26 -10  -3 713.696 255.768   4
 -16  26  -3 65.3837 168.941   1
  16  10  -3 321.685 133.939   1
  10 -26  -3 227.260 90.3569   2
 -10 -16  -3 140.637 116.818   2
  26 -10  -3 409.602 234.144   2
 -16  26   0 1472.22 265.918   1
  16  10   0 1399.83 283.530   2
 -10 -16   0 1469.30 256.377   3
  10 -26   0 1481.71 255.187   3
  10 -26   0 1954.89 292.622   4
  10 -26   0 1618.91 215.581   2
  26 -10   0 1364.60 277.153   4
  16  10   0 1601.17 229.519   1
  16  10   0 1773.24 293.110   4
  26 -10   0 1532.41 264.659   2
  16  10   3 215.756 154.790   2
 -10 -16   3 42.1132 169.127   3
  10 -26   3 78.4009 169.283   3
  10 -26   3 405.327 232.803   4
  10 -26   3 3.26540 157.489   2
 -16  26   3 121.634 188.536   1
  26 -10   3 325.552 212.573   4
  16  10   3 146.840 168.464   1
  26 -10   3 295.325 218.644   2
 -26  16   3 17.4927 108.767   3
  16  10   6 1438.49 201.936   2
 -10 -16   6 847.419 242.291   3
  10 -26   6 1208.83 252.191   3
 -16  26   6 1364.96 295.011   1
  10 -26   6 1515.94 312.698   4
  10 -26   6 1770.49 301.593   2
  26 -10   6 1786.36 291.873   4
 -26  16   6 1382.68 282.175   1
  26 -10   6 1266.62 254.250   2
  16  10   6 1446.84 276.681   1
 -26  16   6 1123.79 230.602   3
  26  -9  -7 211.315 283.979   2
   9 -26  -7 20.7100 133.810   4
  26  -9  -7 42.3915 264.953   4
  26  -9  -4-117.357 247.792   2
  17   9  -4-62.3725 255.618   2
   9 -26  -4 238.936 178.916   4
  26  -9  -4 129.293 202.366   4
  17   9  -4-97.9877 117.770   1
   9 -26  -4 85.9419 54.4011   2
  17   9  -1 229.366 229.803   2
  -9 -17  -1 223.741 193.133   3
   9 -26  -1 100.463 173.848   3
   9 -26  -1 362.022 196.723   4
   9 -26  -1 698.604 152.582   2
 -17  26  -1 647.432 217.628   1
  17   9  -1 244.795 155.679   1
  26  -9  -1 139.945 197.936   4
  17   9  -1 399.069 198.701   4
  26  -9  -1 492.754 225.742   2
  17   9   2 75.9285 171.866   2
  -9 -17   2 256.038 169.795   3
   9 -26   2 37.1554 167.646   3
   9 -26   2 79.6736 161.683   2
  26  -9   2 235.188 205.543   4
  17   9   2 14.4950 170.574   1
  17   9   2 285.280 225.376   4
  26  -9   2 459.774 193.589   2
 -17  26   2 141.141 186.427   1
 -26  17   2 280.177 98.5443   3
  17   9   5-30.4326 146.836   2
  -9 -17   5 684.939 229.065   3
   9 -26   5 603.914 210.695   3
 -26  17   5 491.872 236.333   1
 -17  26   5 611.370 232.343   1
  26  -9   5 307.099 197.191   4
  17   9   5 4.31021 197.508   1
  26  -9   5 269.027 181.170   2
 -26  17   5 660.502 180.772   3
  26  -8  -5-33.0044 230.088   2
  18   8  -5 104.689 224.658   2
   8 -26  -5 372.465 180.260   4
  18   8  -5 357.095 117.632   1
  26  -8  -5 34.5717 216.125   4
  18   8  -5 354.028 247.596   4
  18   8  -2 1194.45 290.432   2
  -8 -18  -2 1100.65 255.220   3
 -18  26  -2 1230.70 269.641   1
   8 -26  -2 1213.54 261.547   4
   8 -26  -2 1271.98 156.521   2
  18   8  -2 1313.73 197.328   1
  26  -8  -2 1250.33 278.521   4
  18   8  -2 1414.04 298.502   4
  -8 -18  -2 731.603 152.752   2
  26  -8  -2 1330.22 281.012   2
 -26  18   1 875.984 112.123   3
 -18  26   1 637.364 244.261   1
  18   8   1 875.806 218.387   2
  -8 -18   1 1421.30 249.082   3
   8 -26   1 988.055 222.882   3
   8 -26   1 1144.98 202.625   2
  18   8   1 1147.86 222.269   1
  26  -8   1 1071.27 255.763   4
  18   8   1 796.197 228.575   4
 -26  18   1 774.014 94.1854   3
  26  -8   1 940.596 242.108   2
  18   8   4 172.901 165.126   2
  -8 -18   4 469.078 203.745   3
   8 -26   4 129.373 170.950   3
 -26  18   4 15.3815 198.399   1
  26  -8   4 243.482 193.159   4
  18   8   4 384.055 210.905   1
 -18  26   4-11.1364 193.307   1
  18   8   4 175.413 162.573   4
  26  -8   4 280.831 185.794   2
 -26  18   4 27.3546 129.884   3
  -8 -18   7-78.7706 227.602   3
   8 -26   7 489.939 225.779   3
 -18  26   7 269.704 232.902   1
 -26  18   7 724.648 246.960   1
  26  -8   7-71.3097 190.791   4
  26  -8   7 481.542 210.157   2
  18   8   7 559.509 249.078   1
 -26  18   7 106.806 174.032   3
  18   8   7 142.674 151.742   2
  26  -7  -6 1658.57 333.260   2
   7 -26  -6 1303.07 212.063   4
  26  -7  -6 1413.51 336.075   4
  26  -7  -3 206.756 218.367   2
  19   7  -3 457.763 234.375   2
  -7 -19  -3 235.048 191.820   3
   7 -26  -3 519.019 209.085   4
  19   7  -3 140.470 127.068   1
   7 -26  -3 23.9424 67.2783   2
  26  -7  -3 617.966 285.866   4
  19   7  -3 260.866 242.070   4
 -19  26  -3 411.910 201.476   1
 -19  26   0 2656.47 322.291   1
  -7 -19   0 2599.24 319.618   3
   7 -26   0 2550.88 328.664   3
   7 -26   0 2873.12 262.579   2
  19   7   0 2528.10 277.273   1
  26  -7   0 2969.83 372.743   4
  19   7   0 2542.89 360.527   4
  26  -7   0 2398.82 324.706   2
  19   7   0 2603.50 321.749   2
  19   7   3 267.420 176.410   2
  -7 -19   3 448.326 200.846   3
   7 -26   3 60.3894 172.356   3
  19   7   3 417.600 196.055   1
  26  -7   3 229.617 181.860   4
 -26  19   3 499.056 215.124   1
  19   7   3 271.757 203.631   4
 -26  19   3 349.787 132.460   3
  26  -7   3 581.759 225.071   2
 -19  26   3 149.967 204.951   1
  -7 -19   6 1246.21 278.393   3
   7 -26   6 1347.27 253.057   3
 -26  19   6 1097.33 283.963   1
  26  -7   6 1526.59 278.612   4
  19   7   6 1457.30 316.628   1
 -19  26   6 1365.93 299.094   1
  26  -7   6 1539.92 278.059   2
 -26  19   6 1168.92 232.122   3
  19   7   6 1198.91 213.592   2
  26  -6  -7 133.769 266.401   2
   6 -26  -7 62.0146 141.197   4
  26  -6  -7 315.056 268.051   4
  26  -6  -4 301.520 241.560   2
  20   6  -4 562.640 264.856   2
   6 -26  -4 582.313 214.622   4
  20   6  -4 471.210 157.107   1
  26  -6  -4 512.015 257.535   4
  20   6  -4 674.149 275.388   4
  20   6  -1 236.632 244.209   2
 -20  26  -1-328.242 190.694   1
  -6 -20  -1 202.955 196.077   3
   6 -26  -1-13.3574 187.545   3
   6 -26  -1 126.578 123.432   2
  20   6  -1 183.024 162.118   1
  26  -6  -1 198.750 224.520   4
  20   6  -1-42.3324 206.166   4
  26  -6  -1-42.0258 101.605   3
  26  -6  -1 313.949 231.202   2
  20   6   2 1078.10 230.612   2
 -26  20   2 464.292 220.094   1
  -6 -20   2 675.765 224.435   3
 -20  26   2 1016.24 263.847   1
   6 -26   2 914.349 234.642   3
 -26  20   2 624.516 139.829   3
  20   6   2 992.941 266.027   1
  26  -6   2 710.580 238.681   4
  20   6   2 922.202 265.377   4
 -26  20   2 694.693 132.060   3
  26  -6   2 403.158 212.922   2
  -6 -20   5 26.8707 195.726   3
   6 -26   5 404.959 200.653   3
 -26  20   5 301.550 239.334   1
  20   6   5 598.912 239.747   1
  26  -6   5 514.204 211.597   4
  20   6   5 717.276 230.082   4
  26  -6   5 311.723 201.556   2
 -26  20   5 197.332 157.327   3
 -20  26   5 398.504 211.319   1
  20   6   5 161.935 154.401   2
  26  -5  -5 1089.11 311.989   2
  21   5  -5 874.035 313.994   2
   5 -26  -5 958.969 225.764   4
  21   5  -5 324.278 124.804   1
  26  -5  -5 377.170 282.775   4
  21   5  -5 783.911 299.736   4
  26  -5  -2 217.543 211.715   2
  21   5  -2-92.5831 209.855   2
  -5 -21  -2-411.707 222.844   3
   5 -26  -2 79.3023 188.697   3
 -21  26  -2 402.668 202.438   1
  21   5  -2 386.805 165.825   1
   5 -26  -2 52.4320 95.7908   2
  26  -5  -2-237.352 227.124   4
  21   5  -2 145.464 219.907   4
  21   5   1 289.620 226.167   2
 -26  21   1 233.833 102.072   3
  -5 -21   1-79.6917 180.254   3
   5 -26   1 477.560 214.668   3
 -26  21   1 106.489 206.053   1
  21   5   1 109.984 175.230   1
 -21  26   1 939.153 253.584   1
  26  -5   1 283.290 221.288   4
  21   5   1 402.948 217.247   4
 -26  21   1 297.879 93.1891   3
  26  -5   1 571.706 227.072   2
  -5 -21   4 190.085 179.814   3
   5 -26   4 91.5772 191.121   3
 -26  21   4 43.4009 209.643   1
  21   5   4 165.546 209.445   1
  26  -5   4 134.585 183.487   4
  21   5   4-27.0648 182.386   4
 -26  21   4 392.695 160.596   3
  26  -5   4 164.391 179.287   2
  21   5   4-100.841 165.611   2
 -21  26   4 250.817 212.925   1
  -5 -21   7 877.979 261.201   3
   5 -26   7 375.909 207.399   3
  26  -5   7 549.426 267.456   1
  26  -5   7 464.811 208.376   4
  21   5   7 515.468 269.047   1
  26  -5   7 482.964 220.451   2
 -26  21   7 748.882 243.736   3
 -21  26   7 207.590 263.982   1
  21   5   7 518.998 187.789   2
 -26  21   7 601.572 272.792   1
  26  -4  -6 207.341 262.929   2
  22   4  -6 561.504 287.901   2
   4 -26  -6 368.534 167.171   4
  22   4  -6 429.171 144.414   1
  26  -4  -6 538.038 319.095   4
  22   4  -6 1120.26 330.509   4
  26  -4  -3 374.303 271.121   2
  22   4  -3 486.540 276.735   2
  -4 -22  -3 287.754 219.541   3
   4 -26  -3 182.650 190.837   4
   4 -26  -3 182.775 65.6683   2
  26  -4  -3 553.934 301.689   4
  22   4  -3 263.507 238.742   4
  22   4   0 1066.07 262.010   2
 -22  26   0 1679.30 295.596   1
  -4 -22   0 463.213 205.629   3
   4 -26   0 1707.70 290.713   3
  22   4   0 1506.10 251.225   1
  26  -4   0 1787.65 325.939   4
  22   4   0 1492.27 288.437   4
 -26  22   0 1009.28 101.825   3
 -26  22   0 996.913 104.184   3
  26  -4   0 1421.17 287.348   2
  -4 -22   3 467.021 212.469   3
   4 -26   3 172.486 190.190   3
 -22  26   3 504.721 236.466   1
  22   4   3 449.145 232.657   1
  26  -4   3 387.722 213.321   4
 -26  22   3 585.758 249.767   1
  22   4   3 425.719 207.912   4
 -26  22   3 358.071 142.172   3
  26  -4   3 305.335 214.847   2
  22   4   3 369.618 197.366   2
  -4 -22   6 353.247 227.585   3
   4 -26   6-91.4517 189.534   3
  26  -4   6 249.056 232.704   1
  22   4   6 82.1772 224.604   1
  26  -4   6 215.190 182.350   4
  22   4   6 229.259 179.545   4
 -26  22   6 127.599 169.275   3
  26  -4   6 82.2743 178.474   2
 -26  22   6 84.3579 212.587   1
  22   4   6 402.355 192.289   2
 -22  26   6 178.799 245.004   1
  26  -3  -7-500.191 312.505   2
  23   3  -7-205.775 302.984   2
  26  -3  -7-57.6023 277.293   4
  23   3  -7-496.897 279.009   4
  26  -3  -4 922.073 301.223   2
  23   3  -4 1240.91 314.600   2
   3 -26  -4 1689.34 284.110   4
  26  -3  -4 1991.56 366.720   4
  23   3  -4 1936.06 381.687   4
  23   3  -1 27.6313 221.384   2
 -23  26  -1 265.358 194.555   1
  -3 -23  -1 52.5921 228.312   3
   3 -26  -1 298.724 217.638   3
   3 -26  -1 190.708 127.820   2
  26  -3  -1 814.235 271.345   4
  23   3  -1 70.1787 219.827   4
  26  -3  -1 19.2438 211.606   2
  -3 -23   2 820.294 242.071   3
   3 -26   2 649.426 237.799   3
  23   3   2 975.820 238.697   1
  26  -3   2 735.202 267.270   4
 -23  26   2 149.986 199.410   1
  23   3   2 643.357 234.117   4
 -26  23   2 935.288 274.914   1
  26  -3   2 1092.67 257.093   2
  23   3   2 763.448 235.607   2
  -3 -23   5 210.916 226.525   3
   3 -26   5 203.526 206.188   3
 -23  26   5-61.6314 220.346   1
  23   3   5 227.188 249.726   1
  26  -3   5-238.294 209.143   4
  23   3   5-55.0458 187.519   4
 -26  23   5 76.6146 150.414   3
  26  -3   5 20.9295 183.812   2
 -26  23   5-94.7662 216.423   1
  23   3   5 75.0397 168.104   2
  26  -2  -5 740.188 291.388   2
  24   2  -5 849.773 332.117   2
   2 -26  -5 1192.69 246.045   4
  26  -2  -5 1185.28 345.830   4
  24   2  -5 1175.63 312.391   4
  26  -2  -2 193.628 234.928   2
  24   2  -2-193.883 230.983   2
  -2 -24  -2-187.676 203.516   3
   2 -26  -2 457.742 245.664   3
   2 -26  -2 74.1360 94.3931   2
  26  -2  -2 76.0489 231.414   4
  24   2  -2 36.3976 253.886   4
  24   2   1 1306.75 280.913   2
  -2 -24   1 1223.42 263.263   3
 -24  26   1 884.829 261.922   1
   2 -26   1 1040.68 250.301   3
 -26  24   1 580.747 242.888   1
  26  -2   1 1233.90 303.344   4
  24   2   1 1310.58 295.332   4
  26  -2   1 660.321 251.553   2
  -2 -24   4 872.921 259.094   3
   2 -26   4 614.308 221.534   3
 -24  26   4 81.1365 225.464   1
  24   2   4 618.967 257.127   1
  26  -2   4 285.975 230.134   4
  24   2   4 498.674 225.790   4
  26  -2   4 401.743 229.114   2
  24   2   4 783.098 223.109   2
 -26  24   4 1.13141 209.406   1
  26  -1  -6 361.339 294.214   2
  25   1  -6 134.784 281.449   2
  -1 -25  -6 136.763 168.462   4
   1 -26  -6 137.956 177.554   4
  26  -1  -6 294.234 280.397   4
  25   1  -6 583.830 294.980   4
  26  -1  -3 617.823 254.084   2
  25   1  -3 821.749 283.814   2
  -1 -25  -3 495.934 89.1031   2
   1 -26  -3 511.700 85.4631   2
  26  -1  -3 504.903 256.924   4
  25   1  -3 630.304 288.805   4
  25   1   0 505.792 233.941   2
 -26  25   0 566.126 258.974   1
 -25  26   0 913.115 260.488   1
  -1 -25   0 78.4920 194.975   3
   1 -26   0 132.311 202.838   3
  26  -1   0 655.571 273.004   4
  25   1   0 297.884 252.678   4
  26  -1   0 439.204 248.236   2
 -26  25   3 99.4480 209.592   1
  -1 -25   3 158.521 191.492   3
   1 -26   3 149.174 204.523   3
  25   1   3 532.749 245.847   1
  26  -1   3 545.481 247.988   4
  25   1   3 844.179 266.091   4
 -25  26   3 315.863 222.677   1
  26  -1   3 840.942 246.480   2
  25   1   3 14.7179 195.656   2
  -1 -25   6 370.252 228.392   3
   1 -26   6 492.804 263.983   3
 -25  26   6 496.090 265.702   1
  26  -1   6 218.104 214.256   1
  25   1   6 221.991 259.708   1
 -26  25   6 177.159 217.273   1
  26  -1   6 390.009 224.123   4
  25   1   6 321.930 212.194   4
 -26  25   6 631.095 224.295   3
  26  -1   6 89.6955 193.121   2
  25   1   6 641.804 220.191   2
  26   0  -4 1960.37 394.680   2
  26   0  -4 1763.94 376.641   4
  26   0  -1-64.6412 214.419   2
   0 -26  -1 391.658 240.287   3
  26   0  -1 28.0380 231.234   4
 -26  26  -1 71.4935 222.623   1
   0 -26   2 2143.64 345.088   3
 -26  26   2 2333.84 357.678   1
  26   0   2 1950.50 342.537   4
  26   0   2 1812.73 315.521   2
   0 -26   5-151.229 218.902   3
  26   0   5-17.9242 221.171   1
  26   0   5-169.265 199.497   4
 -26  26   5-11.5135 218.921   1
  26   0   5-60.4879 206.321   2
   0  27  -3 261.122 145.340   1
  27 -27  -3 239.021 217.291   4
  27 -27  -3-1.15662 182.050   2
 -27   0   0 737.373 185.983   3
  27 -27   0 1477.53 316.157   4
   0  27   0 859.179 222.506   1
  27 -27   0 1147.62 266.455   2
 -27   0   3-58.6622 153.952   3
  27 -27   3-193.197 237.638   4
   0  27   3 336.240 208.815   1
  27 -27   3 26.9902 219.159   2
  26 -27  -4 395.876 247.171   4
  27 -26  -4-9.18876 203.488   4
   1  26  -4 298.952 131.488   1
  -1  27  -4 196.776 126.864   1
  26 -27  -4-49.6972 166.040   2
  27 -26  -4 475.019 218.704   2
 -26  -1  -1 427.356 172.673   3
 -27   1  -1 1011.72 178.726   3
  26 -27  -1 632.042 239.974   4
  27 -26  -1 795.323 265.670   4
   1  26  -1 518.487 191.769   1
  26 -27  -1 251.183 183.316   2
  27 -26  -1 304.485 188.706   2
  -1  27  -1 700.299 206.511   1
 -27   1   2 364.445 159.574   3
 -26  -1   2 310.171 166.347   3
  26 -27   2 310.517 237.598   4
  27 -26   2 424.988 232.208   4
   1  26   2 16.8891 196.370   1
  -1  27   2 321.275 199.127   1
  26 -27   2 338.995 212.961   2
  27 -26   2 590.301 230.252   2
 -26  -1   5 904.059 235.597   3
   1  26   5 1295.28 320.189   1
  26 -27   5 476.625 252.503   4
  27 -26   5 801.225 262.966   4
  -1  27   5 213.258 243.932   1
  26 -27   5 779.966 256.822   2
  27 -26   5 643.934 267.536   2
 -27   1   5 432.205 177.474   3
  25 -27  -5 878.919 252.420   4
  27 -25  -5 1059.98 271.861   4
  25 -27  -5 891.167 231.478   2
  27 -25  -5 803.636 243.639   2
  -2  27  -2 951.869 195.572   1
 -25  -2  -2 938.941 185.894   3
  25 -27  -2 654.167 239.296   4
  27 -25  -2 452.884 245.050   4
  25 -27  -2 563.696 194.494   2
   2  25  -2 395.131 168.288   1
  27 -25  -2 698.887 202.142   2
  25 -27   1 1436.97 309.025   4
  25 -27   1 2165.64 312.343   2
  27 -25   1 1852.40 311.122   4
  27 -25   1 1739.39 297.490   2
   2  25   1 1836.99 274.324   1
 -27   2   1 2077.75 231.242   3
 -25  -2   1 1913.61 250.536   3
  -2  27   1 2209.12 294.610   1
 -27   2   4 449.904 168.791   3
 -25  -2   4 500.998 193.175   3
  25 -27   4 460.610 224.629   4
  27 -25   4 1119.28 281.066   4
  -2  27   4 597.694 239.444   1
  25 -27   4 261.652 207.096   2
  27 -25   4 775.623 240.888   2
  24 -27  -6 402.385 211.009   2
  27 -24  -6 183.141 208.923   2
  24 -27  -6 584.589 228.218   4
  27 -24  -6 487.400 251.442   4
  24 -27  -3 4.34744 183.912   4
  27 -24  -3 571.613 246.200   4
  -3  27  -3 218.005 140.703   1
  24 -27  -3 128.225 176.714   2
  27 -24  -3 177.909 183.637   2
   3  24  -3 125.055 123.534   1
 -27   3   0 640.699 147.749   3
 -24  -3   0 807.524 202.840   3
   3  24   0 905.354 201.699   1
  24 -27   0 724.072 246.881   4
  27 -24   0 1252.22 272.700   4
  24 -27   0 704.061 211.881   2
  27 -24   0 1166.13 247.023   2
  -3  27   0 1185.33 246.234   1
 -27   3   3 214.092 138.098   3
 -24  -3   3 335.165 180.252   3
   3  24   3-82.0355 194.222   1
  24 -27   3-78.8920 210.000   4
  27 -24   3-244.307 221.377   4
  24 -27   3 83.9878 189.807   2
  -3  27   3 213.965 223.129   1
  27 -24   3-40.7123 189.938   2
   3  24   6 201.112 247.384   1
  24 -27   6-44.5926 207.534   4
  27 -24   6 587.704 241.447   4
  24 -27   6 177.735 203.075   2
  -3  27   6 107.780 251.657   1
  27 -24   6 105.099 195.809   2
 -27   3   6 392.546 218.434   3
 -24  -3   6-98.4109 189.287   3
  -4  27  -4 166.869 132.246   1
   4  23  -4 514.720 133.179   1
  23 -27  -4 383.169 206.257   4
  27 -23  -4 84.5634 232.044   4
  23 -27  -4-296.063 180.291   2
  27 -23  -4 46.2876 190.251   2
  -4  27  -1 1055.39 220.862   1
 -23  -4  -1 1029.76 233.553   3
 -27   4  -1 872.727 141.158   3
  23 -27  -1 1082.20 266.179   4
   4  23  -1 1243.53 214.353   1
  27 -23  -1 1411.22 294.296   4
  23 -27  -1 738.373 203.800   2
  27 -23  -1 571.836 211.574   2
 -27   4   2 392.311 132.951   3
 -23  -4   2 223.307 159.268   3
   4  23   2 12.8019 196.494   1
  23 -27   2 60.6147 206.656   4
  27 -23   2 339.189 232.935   4
  23 -27   2 286.858 182.268   2
  27 -23   2 328.051 197.217   2
  -4  27   2 447.541 219.174   1
 -23  -4   5 1168.91 238.023   3
  23 -27   5 979.351 170.641   3
   4  23   5 1586.42 307.646   1
  23 -27   5 1207.97 281.954   4
  27 -23   5 1190.35 295.816   4
  23 -27   5 1225.29 268.292   2
  -4  27   5 970.775 268.270   1
  27 -23   5 1553.80 298.924   2
 -27   4   5 829.091 206.045   3
  -5  27  -5 660.183 163.500   1
  22 -27  -5 965.975 252.042   4
  27 -22  -5 620.073 244.778   4
  22 -27  -5 589.798 198.952   2
  27 -22  -5 407.875 212.527   2
 -22  -5  -2 938.143 219.745   3
  -5  27  -2 747.310 192.105   1
  22 -27  -2 600.089 242.858   4
   5  22  -2 717.547 171.764   1
  27 -22  -2 406.982 250.962   4
  22 -27  -2 240.524 161.538   2
  27 -22  -2 939.598 240.174   2
 -27   5   1 987.609 153.549   3
 -22  -5   1 953.777 196.539   3
   5  22   1 1244.22 242.566   1
  22 -27   1 1209.25 286.517   4
  27 -22   1 903.667 269.974   4
  22 -27   1 1208.93 247.327   2
  27 -22   1 1480.32 273.637   2
  -5  27   1 1255.91 239.486   1
 -22  -5   4 625.273 198.410   3
   5  22   4 827.547 238.315   1
  22 -27   4 704.308 172.977   3
  22 -27   4 221.126 225.527   4
  27 -22   4 302.194 207.374   4
  22 -27   4 623.245 229.225   2
  27 -22   4 659.878 240.625   2
  -5  27   4 461.966 215.120   1
 -27   5   4 513.038 160.455   3
  21 -27  -6 386.393 182.601   2
  27 -21  -6 76.0663 219.264   2
  21 -27  -6 496.564 224.771   4
  27 -21  -6 446.010 224.185   4
  21 -27  -3 751.764 245.694   4
  27 -21  -3 648.281 247.098   4
   6  21  -3 435.795 137.112   1
  21 -27  -3 204.823 152.662   2
  -6  27  -3 61.9303 134.884   1
  27 -21  -3 843.278 241.018   2
  -6  27   0 663.733 195.770   1
 -27   6   0 724.570 121.947   3
 -21  -6   0 902.482 216.704   3
   6  21   0 711.589 192.539   1
  21 -27   0 858.032 250.648   4
  27 -21   0 958.224 255.101   4
  21 -27   0 930.319 220.857   2
  27 -21   0 621.104 220.920   2
 -21  -6   3 620.748 185.320   3
   6  21   3 481.815 233.915   1
  21 -27   3 255.196 140.968   3
  21 -27   3 303.206 205.624   4
  27 -21   3 231.197 208.947   4
  21 -27   3 417.358 222.234   2
  27 -21   3 242.011 200.469   2
  -6  27   3 456.146 212.126   1
 -27   6   3 555.056 152.128   3
   6  21   6 406.248 236.772   1
  21 -27   6-64.9692 160.448   3
  21 -27   6 487.245 251.493   4
  27 -21   6-13.8955 196.212   4
  21 -27   6-122.069 224.416   2
  27 -21   6 520.769 249.796   2
  -6  27   6 703.861 279.943   1
 -27   6   6 286.865 180.639   3
 -21  -6   6 348.135 201.427   3
  27 -20  -7 397.876 240.153   2
  20 -27  -7 456.619 198.235   4
  27 -20  -7 286.308 245.937   4
  20 -27  -4 300.593 191.961   4
  -7  27  -4 145.533 153.691   1
  27 -20  -4 298.702 232.655   4
   7  20  -4 71.8197 91.4331   1
  20 -27  -4 55.9751 136.200   2
  27 -20  -4 481.007 215.238   2
   7  20  -1 995.038 194.713   1
 -20  -7  -1 1027.42 210.599   3
  -7  27  -1 808.785 204.994   1
  20 -27  -1 1140.10 278.411   4
  27 -20  -1 1132.29 297.128   4
  20 -27  -1 632.960 186.332   2
  27 -20  -1 1115.29 257.223   2
 -27   7   2 256.645 116.644   3
   7  20   2 124.513 172.273   1
 -20  -7   2 317.125 169.648   3
  20 -27   2-94.7830 133.000   3
  20 -27   2-12.7013 196.724   4
  27 -20   2 376.849 219.320   4
  20 -27   2 639.873 194.876   2
  27 -20   2 264.915 187.149   2
  -7  27   2 268.530 200.724   1
 -20  -7   5 467.842 196.976   3
   7  20   5 518.791 218.480   1
  20 -27   5 476.116 173.594   3
  20 -27   5 1088.63 297.569   4
  27 -20   5 515.363 225.315   4
  20 -27   5 1058.19 257.396   2
  27 -20   5 729.792 255.170   2
  -7  27   5 792.800 277.517   1
 -27   7   5 703.257 189.878   3
  19 -27  -5 663.345 234.888   4
  27 -19  -5 214.118 228.272   4
  19 -27  -5 382.107 155.752   2
  -8  27  -5 486.979 181.313   1
  27 -19  -5 500.999 261.263   2
 -19  -8  -2 1157.19 236.728   3
  19 -27  -2 1880.26 288.068   4
  27 -19  -2 1803.21 305.405   4
  19 -27  -2 1338.72 207.134   2
   8  19  -2 1622.17 199.520   1
  -8  27  -2 1217.24 216.063   1
  27 -19  -2 1296.60 263.367   2
  -8  27   1 145.982 182.074   1
   8  19   1 204.061 159.780   1
 -27   8   1 337.435 102.710   3
 -19  -8   1 345.275 172.846   3
  19 -27   1-100.503 183.520   4
  27 -19   1 242.279 186.871   4
  19 -27   1 277.422 167.402   2
  27 -19   1 88.0584 174.939   2
   8  19   4 290.916 218.903   1
 -19  -8   4-200.170 171.455   3
  19 -27   4 135.585 144.858   3
  19 -27   4 54.4456 198.914   4
  19 -27   4 320.821 202.095   2
  27 -19   4 617.344 231.822   4
  27 -19   4 146.513 182.371   2
  -8  27   4 475.214 217.546   1
 -27   8   4 407.699 140.870   3
   8  19   7 277.322 236.395   1
  19 -27   7 183.625 156.414   3
  19 -27   7 420.926 233.277   4
  19 -27   7 382.833 241.981   2
  27 -19   7-94.5742 196.559   4
  27 -19   7 136.299 216.121   2
  -8  27   7 611.518 275.529   1
 -27   8   7 597.266 208.671   3
 -19  -8   7 472.849 241.097   3
  18 -27  -6 304.868 146.237   2
  27 -18  -6 145.182 228.356   2
  18 -27  -6 163.602 169.384   4
  27 -18  -6 150.999 213.718   4
  -9  27  -3 232.961 158.990   1
   9  18  -3 683.614 142.977   1
 -18  -9  -3-42.8082 176.368   3
  18 -27  -3 550.161 216.215   4
  27 -18  -3 348.810 217.935   4
  18 -27  -3 568.873 157.689   2
  27 -18  -3 309.010 200.014   2
 -27   9   0 195.265 65.6639   3
 -18  -9   0 349.695 166.683   3
  -9  27   0 97.9175 150.118   1
  18 -27   0 168.755 204.598   4
  27 -18   0 299.252 197.843   4
  18 -27   0 245.197 148.953   2
  27 -18   0 686.323 217.320   2
   9  18   0 370.114 164.398   1
  18 -27   3 1215.80 207.238   3
  18 -27   3 1751.43 273.361   2
  18 -27   3 1533.80 283.933   4
  27 -18   3 1268.31 263.648   4
   9  18   3 1776.14 269.548   1
  27 -18   3 1533.62 296.140   2
 -27   9   3 1578.17 183.678   3
  -9  27   3 1426.84 292.710   1
 -18  -9   3 2124.54 278.141   3
 -18  -9   6 999.586 253.920   3
  18 -27   6 688.391 191.977   3
  18 -27   6 517.657 248.513   4
  18 -27   6 498.168 246.015   2
  27 -18   6 1099.52 272.347   4
  27 -18   6 887.062 251.264   2
  -9  27   6 611.207 242.602   1
 -27   9   6 768.317 192.858   3
   9  18   6 788.604 260.993   1
  27 -17  -7 388.312 275.551   2
  17 -27  -7 394.031 187.787   4
  27 -17  -7 195.678 224.432   4
  10  17  -4 248.681 99.8729   1
  17 -27  -4 184.394 190.670   4
  27 -17  -4 646.660 267.606   4
  17 -27  -4 209.010 126.690   2
  27 -17  -4 206.066 215.268   2
 -10  27  -4 433.764 180.450   1
 -17 -10  -1 421.844 198.289   3
  17 -27  -1 677.454 228.286   4
  27 -17  -1 844.402 269.503   4
  17 -27  -1 665.492 177.769   2
 -10  27  -1 169.551 157.179   1
  27 -17  -1 348.842 208.013   2
  10  17  -1 543.182 159.221   1
 -10  27   2 763.466 231.801   1
 -17 -10   2 900.679 205.956   3
  17 -27   2 323.217 163.900   3
  17 -27   2 286.217 194.752   4
  17 -27   2 608.422 208.129   2
  27 -17   2 876.989 248.533   4
  27 -17   2 178.621 219.040   2
  10  17   2 426.921 202.049   1
 -27  10   2 369.919 104.930   3
 -17 -10   5 557.129 209.766   3
  17 -27   5 234.934 151.126   3
  17 -27   5 777.474 257.799   4
  17 -27   5 677.795 223.752   2
  27 -17   5 907.398 241.276   4
  27 -17   5 928.637 256.192   2
 -10  27   5 854.293 271.415   1
 -27  10   5 752.200 187.596   3
  10  17   5 741.008 248.057   1
  27 -16  -5 491.966 267.069   2
  16 -27  -5-131.944 177.021   4
  27 -16  -5 315.850 226.822   4
 -11  27  -5-10.9174 152.253   1
  16 -27  -5 111.162 118.959   2
 -16 -11  -2 510.285 219.077   3
  16 -27  -2 288.625 198.665   4
  27 -16  -2 538.573 244.749   4
  16 -27  -2 244.010 136.501   2
  27 -16  -2 434.031 204.942   2
  11  16  -2 275.961 138.750   1
 -11  27  -2 115.929 174.273   1
 -27  11   1 64.2165 70.2243   3
 -16 -11   1 203.867 177.576   3
  16 -27   1 347.368 178.713   3
 -11  27   1 222.651 184.617   1
  16 -27   1 340.274 210.145   4
  16 -27   1 39.8602 158.052   2
  27 -16   1 375.486 222.886   4
  27 -16   1 127.223 179.328   2
  11  16   1 11.4797 148.097   1
 -16 -11   4 272.791 196.809   3
  16 -27   4-13.4833 151.890   3
  16 -27   4 51.5389 194.169   4
  16 -27   4 379.290 211.200   2
  27 -16   4 571.754 220.943   4
  27 -16   4 322.501 188.177   2
  11  16   4 350.493 228.854   1
 -27  11   4 354.537 122.915   3
 -11  27   4 59.2526 210.189   1
  16 -27   7 285.660 201.526   3
  16 -27   7 233.171 228.786   4
  16 -27   7 140.908 190.205   2
  27 -16   7 309.631 188.316   4
  27 -16   7-108.358 208.714   2
 -27  11   7 365.678 205.961   3
 -11  27   7 169.854 218.100   1
  11  16   7 176.450 224.379   1
 -16 -11   7 438.881 235.829   3
  27 -15  -6 483.653 254.958   2
  15 -27  -6 405.294 179.066   4
  27 -15  -6 400.831 224.394   4
 -12  27  -3 2100.07 263.771   1
 -15 -12  -3 2103.72 304.059   3
  15 -27  -3 1644.33 272.717   4
  15 -27  -3 1423.19 180.061   2
  27 -15  -3 1878.76 314.142   4
  12  15  -3 2014.49 204.398   1
 -15 -12   0 530.525 188.630   3
  15 -27   0 650.059 191.696   3
  15 -27   0 818.576 243.167   4
  15 -27   0 535.222 170.721   2
  27 -15   0 762.300 258.239   4
 -12  27   0 689.017 213.168   1
  27 -15   0 878.444 241.001   2
  12  15   0 751.186 189.208   1
  15 -27   3 1887.33 265.239   3
 -12  27   3 1569.19 270.195   1
  15 -27   3 2065.07 292.126   2
  15 -27   3 1748.55 312.312   4
  27 -15   3 2013.99 323.497   4
  12  15   3 2006.84 291.921   1
  27 -15   3 1895.10 290.857   2
 -27  12   3 2062.63 189.308   3
 -15 -12   3 1834.81 268.574   3
  12  15   3 1987.84 226.120   2
 -15 -12   6 600.494 240.785   3
  15 -27   6 619.938 197.461   3
  15 -27   6 853.741 257.745   4
  15 -27   6 1511.96 307.018   2
  27 -15   6 551.424 232.296   4
  27 -15   6 834.864 248.935   2
 -27  12   6 679.222 205.310   3
  12  15   6 752.654 277.434   1
 -12  27   6 1133.22 287.096   1
  27 -14  -7 214.412 240.979   2
  14 -27  -7 69.0066 144.389   4
  27 -14  -7 521.950 261.771   4
  14 -27  -4 243.287 179.001   4
  27 -14  -4 407.506 220.999   4
 -13  27  -4 402.592 182.561   1
  14 -27  -4 401.607 118.674   2
  27 -14  -4 630.576 252.764   2
  13  14  -4 580.260 119.734   1
 -14 -13  -1 416.794 198.062   3
  14 -27  -1 332.296 197.220   4
  27 -14  -1 121.599 185.296   4
  14 -27  -1 333.167 139.092   2
  13  14  -1 244.091 144.164   1
  27 -14  -1 355.393 221.017   2
 -13  27  -1 364.488 174.370   1
 -14 -13   2 23.7532 161.769   3
  14 -27   2 93.9200 180.393   3
  13  14   2-41.9650 154.233   2
 -13  27   2 158.765 182.234   1
  14 -27   2-282.920 243.723   4
  14 -27   2 171.331 162.466   2
  27 -14   2 195.336 203.180   4
  27 -14   2 157.848 194.196   2
  13  14   2 268.924 174.238   1
 -27  13   2 187.030 89.6829   3
 -14 -13   5 248.580 203.491   3
 -13  27   5 453.909 224.004   1
  14 -27   5 446.007 193.405   3
  13  14   5 79.7223 126.293   2
  14 -27   5 73.8327 211.372   4
  14 -27   5-83.4378 193.653   2
  27 -14   5 449.133 228.790   4
  27 -14   5 115.806 201.574   2
  13  14   5-110.517 212.282   1
 -27  13   5 202.864 154.327   3
  27 -13  -5 537.057 271.520   2
  14  13  -5 203.884 76.5363   1
  13 -27  -5 303.734 171.351   4
  27 -13  -5 174.418 225.751   4
 -13 -14  -2-94.8997 184.335   3
  13 -27  -2-56.5211 179.995   4
 -14  27  -2 160.952 175.036   1
  27 -13  -2 215.489 217.232   4
  13 -27  -2 109.828 117.501   2
  14  13  -2 189.899 137.167   1
  27 -13  -2 186.641 206.384   2
 -13 -14   1 340.214 176.041   3
  14  13   1 103.187 170.542   2
  13 -27   1 441.773 197.194   3
  13 -27   1 327.954 218.612   4
  13 -27   1 198.836 150.706   2
  27 -13   1 6.98757 194.971   4
 -14  27   1 92.1328 175.567   1
  14  13   1 218.648 162.169   1
  27 -13   1 336.187 184.578   2
 -27  14   1 212.878 63.1685   3
 -13 -14   4 375.583 182.200   3
  13 -27   4 266.697 170.159   3
  14  13   4 397.865 165.505   2
 -14  27   4 627.496 223.691   1
  13 -27   4 279.990 250.349   4
  13 -27   4 154.529 179.303   2
  27 -13   4 718.415 225.395   4
  27 -13   4 445.438 210.680   2
  14  13   4 90.9176 199.273   1
 -27  14   4 541.156 148.237   3
 -13 -14   7 214.760 218.940   3
  13 -27   7-97.3944 187.517   3
 -14  27   7 324.147 220.652   1
  13 -27   7 104.810 228.266   4
  13 -27   7-6.87038 206.636   2
  27 -13   7-26.6612 191.760   4
  27 -13   7-147.254 210.814   2
  14  13   7-56.7925 207.726   1
 -27  14   7 187.912 175.263   3
  27 -12  -6 1220.67 305.230   2
  12 -27  -6 598.004 180.257   4
  27 -12  -6 794.099 282.237   4
 -15  27  -3 1550.39 255.876   1
 -12 -15  -3 2165.27 305.420   3
  12 -27  -3 2192.20 293.950   4
  15  12  -3 2162.46 218.802   1
  27 -12  -3 2249.71 352.802   4
  12 -27  -3 1561.38 164.570   2
  27 -12  -3 2034.88 332.193   2
 -12 -15   0 338.063 190.300   3
  15  12   0 832.218 235.682   2
  12 -27   0 408.484 193.167   3
  12 -27   0 328.887 213.450   4
  12 -27   0 459.448 152.618   2
  27 -12   0 796.127 250.212   4
  15  12   0 384.073 179.971   1
  27 -12   0 672.857 227.877   2
 -15  27   0 223.849 177.558   1
  12 -27   3 2045.84 291.206   3
  12 -27   3 2280.30 327.042   4
  12 -27   3 1863.32 267.045   2
  15  12   3 1921.87 287.266   1
 -15  27   3 1441.25 263.444   1
  27 -12   3 1790.55 294.260   4
  27 -12   3 1926.65 289.244   2
 -27  15   3 1670.91 179.022   3
  15  12   3 1926.62 254.221   2
 -12 -15   3 1641.71 285.720   3
 -12 -15   6 274.211 224.998   3
  12 -27   6 267.950 216.678   3
 -15  27   6-20.1428 208.215   1
  12 -27   6 580.478 288.986   4
  12 -27   6 351.031 213.037   2
  27 -12   6 402.307 219.134   4
  27 -12   6 595.384 222.174   2
  15  12   6 140.824 221.728   1
 -27  15   6 767.048 207.664   3
  27 -11  -7 278.667 278.576   2
  11 -27  -7 27.4253 138.676   4
  27 -11  -7 107.707 237.914   4
  27 -11  -4 267.363 215.058   2
 -16  27  -4 423.778 212.924   1
  11 -27  -4 239.579 180.075   4
  27 -11  -4 847.243 269.419   4
  16  11  -4 216.144 114.453   1
  11 -27  -4 241.099 84.5298   2
 -11 -16  -1 65.5687 173.687   3
  16  11  -1 204.730 174.082   2
  11 -27  -1 150.054 193.533   3
 -16  27  -1-316.343 195.219   1
  11 -27  -1 448.591 224.227   4
  11 -27  -1 245.618 128.367   2
  27 -11  -1 738.105 244.568   4
  16  11  -1 110.463 145.581   1
  27 -11  -1 251.783 215.431   2
 -11 -16   2 222.111 174.248   3
  16  11   2 328.237 184.139   2
  11 -27   2 105.934 177.911   3
  11 -27   2 132.482 195.055   4
  11 -27   2 297.265 168.697   2
  27 -11   2 20.5453 190.434   4
  16  11   2 525.720 204.757   1
 -16  27   2 348.906 209.683   1
  27 -11   2-120.599 189.810   2
 -27  16   2 285.806 94.8111   3
 -11 -16   5 25.7914 174.946   3
  16  11   5-35.1781 158.176   2
  11 -27   5 230.246 191.664   3
  11 -27   5-127.873 225.862   4
 -16  27   5 174.652 217.094   1
  11 -27   5 181.583 210.401   2
 -27  16   5-106.785 209.880   1
  27 -11   5 112.334 207.502   4
  27 -11   5-263.541 212.587   2
  16  11   5-28.3776 208.888   1
 -27  16   5 153.559 148.316   3
  27 -10  -5 584.204 261.754   2
  10 -27  -5 712.503 203.990   4
  27 -10  -5 386.985 250.791   4
  17  10  -5 539.490 117.460   1
  17  10  -2 495.460 239.940   2
 -10 -17  -2 324.482 210.373   3
  10 -27  -2 291.544 183.438   4
  10 -27  -2 367.211 115.561   2
  27 -10  -2 801.513 275.602   4
  17  10  -2 511.938 156.514   1
  17  10  -2 702.919 256.466   4
 -17  27  -2 761.890 226.251   1
  27 -10  -2 161.425 186.186   2
 -27  17   1 577.828 94.4712   3
  17  10   1 287.678 206.586   2
 -10 -17   1 6.42298 175.637   3
  10 -27   1 836.794 222.052   3
  10 -27   1 729.206 229.887   4
  10 -27   1 959.708 196.559   2
  27 -10   1 541.615 230.338   4
  17  10   1 902.557 210.474   1
  17  10   1 298.754 206.326   4
  27 -10   1 567.688 222.745   2
 -27  17   1 354.363 68.5604   3
 -17  27   1 720.322 220.562   1
  17  10   4 417.796 176.423   2
 -10 -17   4 395.894 210.664   3
  10 -27   4 365.948 199.403   3
 -27  17   4 124.451 217.752   1
  10 -27   4 353.908 240.999   4
  10 -27   4 571.298 211.317   2
 -17  27   4 100.975 196.549   1
  27 -10   4 267.226 188.129   4
  17  10   4 143.926 209.300   1
  27 -10   4 338.180 215.216   2
 -27  17   4 387.316 143.923   3
 -10 -17   7 383.497 205.308   3
  10 -27   7 355.885 224.137   3
  10 -27   7 119.010 245.721   4
  10 -27   7-166.236 222.342   2
 -17  27   7 322.106 228.978   1
 -27  17   7 654.226 263.907   1
  27 -10   7 338.266 222.075   4
  27 -10   7 343.010 208.147   2
  17  10   7 254.818 240.258   1
 -27  17   7 332.539 210.125   3
  27  -9  -6 798.907 330.051   2
   9 -27  -6 554.164 182.246   4
  27  -9  -6 1003.40 340.154   4
 -18  27  -3 1872.17 282.370   1
  18   9  -3 1550.70 313.986   2
  -9 -18  -3 1636.85 299.580   3
   9 -27  -3 2025.47 293.036   4
  18   9  -3 1886.03 221.954   1
   9 -27  -3 1369.75 135.228   2
  27  -9  -3 1701.56 340.506   4
  18   9  -3 1548.85 334.242   4
  27  -9  -3 1548.53 311.802   2
  18   9   0 182.686 181.805   2
  -9 -18   0 407.687 212.320   3
   9 -27   0 93.7880 179.202   3
 -18  27   0 142.393 187.119   1
   9 -27   0 418.119 247.449   4
   9 -27   0 397.018 160.032   2
  18   9   0 349.854 187.479   1
  27  -9   0 136.127 198.131   4
  18   9   0 33.6278 218.369   4
  27  -9   0 355.249 210.542   2
  18   9   3 443.595 189.237   2
  -9 -18   3 444.987 192.067   3
   9 -27   3 436.631 197.337   2
   9 -27   3 182.935 181.069   3
 -27  18   3 352.795 217.983   1
  27  -9   3 338.709 193.099   4
  18   9   3 539.989 206.633   1
  18   9   3 468.040 197.982   4
 -18  27   3 636.291 243.927   1
  27  -9   3 285.842 208.694   2
 -27  18   3 370.198 135.664   3
  18   9   6 161.862 152.581   2
  -9 -18   6 714.138 240.201   3
   9 -27   6 568.507 225.147   3
 -27  18   6-74.3948 251.714   1
 -18  27   6 84.9119 222.727   1
  27  -9   6 129.782 206.603   4
  18   9   6-193.305 252.159   1
  27  -9   6 856.338 247.383   2
 -27  18   6 309.754 173.259   3
  27  -8  -7 274.987 299.470   2
   8 -27  -7 416.253 160.820   4
  27  -8  -7-167.630 245.087   4
  27  -8  -4-141.773 256.141   2
  19   8  -4 341.127 254.952   2
   8 -27  -4 336.029 212.213   4
  19   8  -4 53.5569 115.490   1
  27  -8  -4-55.0024 210.034   4
  19   8  -4 55.9445 217.010   4
  19   8  -1 278.178 228.778   2
  -8 -19  -1 152.170 215.138   3
   8 -27  -1 27.5265 195.119   3
   8 -27  -1 324.788 206.558   4
   8 -27  -1 372.604 140.100   2
  19   8  -1 152.022 167.043   1
  27  -8  -1 39.7401 195.198   4
  19   8  -1 206.511 262.160   4
 -19  27  -1 112.194 197.759   1
  27  -8  -1 27.3068 227.894   2
  19   8   2 1364.57 258.108   2
  -8 -19   2 996.976 241.702   3
   8 -27   2 1515.21 269.254   3
   8 -27   2 1268.98 226.279   2
  19   8   2 1182.27 249.208   1
  27  -8   2 952.990 256.694   4
  19   8   2 1314.67 289.012   4
 -27  19   2 1145.59 143.814   3
  27  -8   2 1172.19 247.409   2
 -19  27   2 1837.03 307.390   1
  19   8   5 395.632 180.601   2
  -8 -19   5 243.114 186.041   3
   8 -27   5 228.828 196.521   3
 -27  19   5 385.854 225.298   1
  27  -8   5 458.367 225.827   4
  19   8   5 407.925 226.192   1
 -19  27   5 606.730 250.556   1
  27  -8   5 44.6944 212.376   2
 -27  19   5 193.214 158.375   3
  27  -7  -5 207.508 243.488   2
  20   7  -5 398.814 270.534   2
   7 -27  -5 391.729 179.648   4
  20   7  -5 488.612 143.717   1
  27  -7  -5 576.549 272.436   4
  20   7  -5 479.764 268.339   4
  20   7  -2 245.795 228.805   2
  -7 -20  -2 361.049 207.836   3
   7 -27  -2 313.294 205.034   4
  20   7  -2 513.828 179.208   1
   7 -27  -2 169.325 104.644   2
  27  -7  -2 230.832 259.472   4
  20   7  -2-76.9785 238.520   4
 -20  27  -2 404.179 215.292   1
  27  -7  -2 195.725 202.833   2
  20   7   1 516.369 214.834   2
  -7 -20   1 595.629 229.797   3
   7 -27   1 489.328 215.102   3
   7 -27   1 963.669 212.965   2
 -20  27   1 660.722 209.807   1
  20   7   1 839.556 226.253   1
  27  -7   1-16.2379 202.180   4
  20   7   1 469.955 214.352   4
 -27  20   1 773.790 104.116   3
  27  -7   1 569.491 206.143   2
  20   7   4 694.809 222.852   2
  -7 -20   4-11.2286 195.751   3
   7 -27   4 429.603 216.539   3
 -27  20   4 360.714 211.988   1
  20   7   4 27.3538 232.191   1
  27  -7   4 189.857 196.809   4
  20   7   4 450.536 198.790   4
 -27  20   4 19.7772 127.670   3
  27  -7   4 30.4992 187.745   2
 -20  27   4-165.328 207.071   1
  -7 -20   7 586.124 289.096   3
   7 -27   7-176.879 235.664   3
 -27  20   7 202.077 239.974   1
  27  -7   7 139.435 202.935   4
  20   7   7 929.663 300.055   1
 -20  27   7 134.121 212.745   1
  27  -7   7 1144.37 292.456   2
 -27  20   7 347.497 225.392   3
  20   7   7 210.541 169.123   2
  27  -6  -6 1084.67 346.582   2
  21   6  -6 228.509 249.100   2
   6 -27  -6 201.265 167.770   4
  27  -6  -6 186.373 246.504   4
  21   6  -6 349.457 281.652   4
  27  -6  -3 58.5143 221.031   2
  21   6  -3 1.91148 217.106   2
  -6 -21  -3 802.888 245.618   3
   6 -27  -3 466.124 243.442   4
  21   6  -3 483.103 157.258   1
   6 -27  -3 218.754 72.1788   2
  27  -6  -3 272.156 236.118   4
  21   6  -3 96.4879 244.496   4
 -21  27  -3 280.470 198.940   1
  21   6   0 792.775 252.300   2
  -6 -21   0 705.359 244.292   3
   6 -27   0 1141.64 268.390   3
   6 -27   0 746.748 174.190   2
  21   6   0 835.184 203.809   1
  27  -6   0 519.125 264.867   4
  21   6   0 1038.60 279.784   4
 -21  27   0 1065.62 266.958   1
  27  -6   0 741.761 243.613   2
  21   6   3 557.914 229.834   2
 -21  27   3 714.135 252.228   1
  -6 -21   3 318.045 219.019   3
   6 -27   3 400.696 202.141   3
 -27  21   3 477.426 229.730   1
  21   6   3 404.311 228.188   1
  27  -6   3 483.082 241.861   4
  21   6   3 581.145 229.654   4
 -27  21   3 423.931 136.268   3
  27  -6   3 41.9148 202.949   2
  -6 -21   6 286.550 204.337   3
   6 -27   6 54.2520 207.686   3
 -27  21   6 493.540 238.969   1
  27  -6   6 920.221 257.516   4
  21   6   6 768.659 264.282   1
  21   6   6 228.001 173.772   4
  27  -6   6 755.997 239.504   2
 -27  21   6 415.179 191.179   3
 -21  27   6 5.89295 211.485   1
  21   6   6 694.542 200.004   2
  27  -5  -4 654.241 279.751   2
  22   5  -4 533.984 267.026   2
   5 -27  -4 265.299 185.150   4
  22   5  -4 123.583 128.689   1
  27  -5  -4 481.201 265.674   4
  22   5  -4 293.693 259.151   4
  22   5  -1 1034.44 260.918   2
  -5 -22  -1 996.197 256.444   3
   5 -27  -1 1027.39 256.382   3
   5 -27  -1 1133.76 182.912   2
  22   5  -1 1251.55 235.689   1
 -22  27  -1 1039.38 264.367   1
  27  -5  -1 739.132 268.368   4
  22   5  -1 1237.51 310.701   4
  27  -5  -1 851.413 268.270   2
  22   5   2 312.465 201.720   2
  -5 -22   2 1188.09 270.923   3
   5 -27   2 774.983 225.596   3
 -22  27   2 672.731 250.307   1
  22   5   2 720.547 227.002   1
  27  -5   2 461.605 230.042   4
  22   5   2 656.750 249.731   4
 -27  22   2 564.715 247.994   1
 -27  22   2 658.084 139.427   3
  27  -5   2 679.237 233.550   2
  -5 -22   5 710.238 258.337   3
   5 -27   5 862.016 259.373   3
 -27  22   5 495.567 234.252   1
  22   5   5 498.900 237.638   1
  27  -5   5 773.282 238.226   4
  22   5   5 930.441 247.550   4
 -27  22   5 991.827 215.677   3
  27  -5   5 616.617 234.234   2
  22   5   5 765.582 227.336   2
 -22  27   5 164.423 214.773   1
  27  -4  -5 1132.19 319.991   2
  23   4  -5 950.856 299.453   2
   4 -27  -5 1085.92 247.805   4
  27  -4  -5 1458.25 350.535   4
  23   4  -5 1742.78 345.291   4
  27  -4  -2 92.6627 214.737   2
  23   4  -2 336.846 229.104   2
  -4 -23  -2 463.833 235.610   3
   4 -27  -2 309.173 211.765   3
   4 -27  -2 351.282 114.487   2
 -23  27  -2-162.071 222.869   1
  27  -4  -2 60.5991 244.778   4
  23   4  -2 291.187 264.890   4
  23   4   1 1056.37 261.155   2
  -4 -23   1 1200.74 291.019   3
   4 -27   1 915.543 272.819   3
  23   4   1 1211.85 238.772   1
  27  -4   1 928.375 285.318   4
  23   4   1 1089.66 291.111   4
 -27  23   1 1170.00 270.570   1
 -27  23   1 843.227 129.058   3
 -23  27   1 980.163 296.443   1
  27  -4   1 1378.07 286.095   2
  -4 -23   4 251.337 211.445   3
   4 -27   4 179.591 211.399   3
 -23  27   4 417.358 248.519   1
 -27  23   4 130.434 219.746   1
  23   4   4-86.8913 197.031   1
  27  -4   4 348.749 259.150   4
  23   4   4-20.0668 201.820   4
 -27  23   4 193.646 142.302   3
  27  -4   4 144.845 203.758   2
  23   4   4 272.033 192.606   2
  27  -3  -6 18.6413 262.606   2
  24   3  -6 137.593 270.789   2
  -3 -24  -6-25.8892 169.282   4
   3 -27  -6 243.558 197.384   4
  27  -3  -6 672.273 292.818   4
  24   3  -6-412.108 302.906   4
  27  -3  -3-22.5540 240.244   2
  24   3  -3 247.644 238.789   2
   3 -27  -3 212.295 67.5262   2
  27  -3  -3-1.27742 259.834   4
  24   3  -3 369.470 251.178   4
  24   3   0 864.711 259.656   2
 -27  24   0 1107.27 281.193   1
  -3 -24   0 1032.08 269.388   3
   3 -27   0 1183.43 260.502   3
 -24  27   0 890.123 274.357   1
  27  -3   0 888.580 277.750   4
  24   3   0 861.926 278.387   4
  27  -3   0 1015.60 295.996   2
  -3 -24   3 128.309 205.972   3
   3 -27   3 539.489 249.724   3
  24   3   3 213.646 204.535   1
 -24  27   3 512.954 261.428   1
 -27  24   3 307.020 234.522   1
  27  -3   3 14.4072 225.155   4
  24   3   3 188.346 215.759   4
 -27  24   3 231.641 145.101   3
  27  -3   3 171.609 193.520   2
  24   3   3-174.965 191.088   2
  -3 -24   6 1252.99 299.435   3
   3 -27   6 623.996 251.711   3
 -24  27   6 387.061 243.249   1
  27  -3   6 481.293 255.606   1
  24   3   6 761.885 283.712   1
  27  -3   6 337.291 209.942   4
  24   3   6 668.429 237.278   4
 -27  24   6 630.400 235.595   3
  27  -3   6 392.358 218.403   2
 -27  24   6 761.888 281.097   1
  24   3   6 759.559 234.342   2
  27  -2  -4 543.672 289.915   2
  25   2  -4 618.228 309.358   2
   2 -27  -4 636.170 241.846   4
  27  -2  -4 783.987 324.715   4
  25   2  -4 1312.12 380.764   4
  25   2  -1 1527.48 332.712   2
  -2 -25  -1 1429.29 294.472   3
   2 -27  -1 1869.83 336.418   3
  27  -2  -1 1796.85 367.702   4
  27  -2  -1 2552.69 378.289   2
 -25  27  -1 1463.82 300.149   1
  -2 -25   2 360.985 208.714   3
   2 -27   2 512.431 234.879   3
  25   2   2 348.805 212.253   1
  27  -2   2 449.137 255.990   4
  25   2   2 857.703 251.713   4
 -27  25   2 842.785 281.773   1
  27  -2   2 405.985 234.880   2
 -25  27   2 746.043 265.342   1
  25   2   2 598.734 249.368   2
  -2 -25   5 1024.76 269.404   3
   2 -27   5 743.724 260.585   3
  27  -2   5 318.575 232.400   1
 -25  27   5 1016.39 311.134   1
  25   2   5 1065.16 285.441   1
  27  -2   5 893.831 266.595   4
  25   2   5 404.853 207.009   4
 -27  25   5 668.160 212.786   3
  27  -2   5 1035.32 264.120   2
 -27  25   5 749.840 298.757   1
  25   2   5 995.302 248.507   2
  27  -1  -5 536.918 297.169   2
  26   1  -5 998.342 346.043   2
  -1 -26  -5 664.439 230.935   4
   1 -27  -5 404.811 211.987   4
  27  -1  -5 578.669 300.866   4
  26   1  -5 700.714 322.928   4
  27  -1  -2 456.729 266.101   2
  26   1  -2 248.898 229.675   2
  -1 -26  -2 128.555 227.602   3
   1 -27  -2 105.830 205.118   3
   1 -27  -2 337.198 124.255   2
  27  -1  -2 463.586 269.058   4
  26   1  -2 632.080 282.561   4
  26   1   1 497.681 227.922   2
  -1 -26   1 1063.20 264.771   3
   1 -27   1 678.311 231.229   3
 -27  26   1 526.310 240.441   1
  27  -1   1 1050.04 288.694   4
 -26  27   1 647.469 256.110   1
  26   1   1 746.423 268.416   4
  27  -1   1 450.751 224.584   2
  -1 -26   4 182.467 209.779   3
   1 -27   4 297.836 234.103   3
  27  -1   4 482.990 259.949   1
  26   1   4 199.679 225.592   1
  27  -1   4 33.1156 192.708   4
  26   1   4 383.172 236.283   4
 -26  27   4 91.2803 228.041   1
  27  -1   4 163.556 203.427   2
  26   1   4 152.458 201.935   2
 -27  26   4 164.234 229.133   1
  27   0  -3 316.578 277.631   2
  27   0  -3 231.939 245.292   4
  27   0   0 616.078 265.928   2
   0 -27   0 450.750 224.597   3
  27   0   0 681.864 278.092   4
 -27  27   0 1233.20 313.964   1
 -27  27   3 341.787 233.795   1
   0 -27   3 5.74182 213.473   3
  27   0   3 34.1503 222.143   4
  27   0   3 79.0869 199.338   2
  28 -28  -4-12.9159 209.921   4
  28 -28  -4-231.313 199.766   2
 -28   0  -1-34.1580 153.341   3
  28 -28  -1 17.7256 211.177   4
  28 -28  -1 188.025 202.676   2
   0  28  -1 233.104 172.518   1
 -28   0   2 368.888 168.683   3
  28 -28   2 319.566 259.989   4
   0  28   2 255.290 195.626   1
  28 -28   2 571.419 238.189   2
  27 -28  -5 1179.91 296.026   4
  27 -28  -5 795.122 253.451   2
  28 -27  -5 786.539 249.253   2
  -1  28  -2 405.810 168.821   1
 -27  -1  -2 250.893 158.087   3
  27 -28  -2 894.276 271.235   4
  28 -27  -2 550.155 228.911   4
  27 -28  -2 219.956 193.691   2
  28 -27  -2 504.252 222.576   2
   1  27  -2 631.507 180.432   1
 -28   1   1 1236.00 206.094   3
  27 -28   1 1401.82 310.459   4
  28 -27   1 665.107 279.153   4
   1  27   1 1832.08 277.700   1
  -1  28   1 1500.51 294.954   1
  27 -28   1 1756.25 288.424   2
  28 -27   1 1031.47 261.261   2
 -27  -1   1 1739.86 242.913   3
 -28   1   4 182.822 146.999   3
 -27  -1   4 320.339 192.412   3
   1  27   4 378.697 268.162   1
  27 -28   4 411.792 258.238   4
  28 -27   4 702.860 259.478   4
  -1  28   4 725.703 253.913   1
  27 -28   4 239.743 223.666   2
  28 -27   4-165.857 216.202   2
   2  26  -3 681.118 168.291   1
  -2  28  -3 301.694 148.054   1
  26 -28  -3 573.104 260.178   4
  28 -26  -3 577.257 266.423   4
  26 -28  -3 432.605 198.708   2
  28 -26  -3 419.337 221.303   2
 -26  -2   0 114.356 153.148   3
 -28   2   0-20.3679 125.181   3
  26 -28   0-207.205 220.327   4
  28 -26   0 628.133 249.339   4
   2  26   0 387.625 197.506   1
  26 -28   0 299.815 188.660   2
  28 -26   0-195.744 199.449   2
  -2  28   0 163.232 177.112   1
 -28   2   3 644.738 181.871   3
 -26  -2   3 673.873 199.322   3
   2  26   3 897.298 263.822   1
  26 -28   3 202.440 213.967   4
  28 -26   3 645.543 259.064   4
  -2  28   3 1043.91 270.590   1
  26 -28   3 739.876 234.902   2
  28 -26   3 556.745 228.862   2
   3  25  -4 554.418 141.141   1
  25 -28  -4 697.400 271.565   4
  28 -25  -4 1338.55 311.112   4
  25 -28  -4 633.815 213.193   2
  28 -25  -4 963.286 258.397   2
  -3  28  -4 494.634 156.992   1
 -25  -3  -1 137.733 160.381   3
 -28   3  -1-59.2370 114.889   3
  25 -28  -1-53.2749 214.744   4
  28 -25  -1 21.1772 191.696   4
   3  25  -1-103.877 152.435   1
  25 -28  -1-96.7995 183.691   2
  28 -25  -1-141.793 192.244   2
  -3  28  -1 4.28105 156.885   1
 -28   3   2 490.600 154.104   3
 -25  -3   2 822.428 199.083   3
   3  25   2 1087.63 251.393   1
  25 -28   2 584.930 237.537   4
  28 -25   2 503.014 245.825   4
  25 -28   2 919.305 260.182   2
  28 -25   2 1163.47 269.967   2
  -3  28   2 972.035 249.999   1
 -25  -3   5 71.0577 173.852   3
   3  25   5 583.761 283.937   1
  25 -28   5-68.2589 220.697   4
  28 -25   5 230.134 226.281   4
  25 -28   5-247.547 233.622   2
  -3  28   5-68.5299 248.459   1
  28 -25   5-135.682 224.170   2
 -28   3   5 333.931 178.963   3
  24 -28  -5 805.484 267.403   4
  28 -24  -5 774.326 273.244   4
  24 -28  -5 775.390 217.810   2
  28 -24  -5 486.755 236.590   2
 -24  -4  -2 349.084 192.458   3
  -4  28  -2 435.139 169.040   1
  24 -28  -2 223.186 208.991   4
  28 -24  -2-317.424 241.759   4
   4  24  -2 387.487 167.614   1
  24 -28  -2 323.804 190.215   2
  28 -24  -2 29.1364 172.012   2
 -24  -4   1 1598.95 240.109   3
  24 -28   1 1497.15 298.447   4
  28 -24   1 1641.96 312.364   4
  24 -28   1 1653.93 278.117   2
  28 -24   1 1317.18 268.559   2
  -4  28   1 1430.72 270.819   1
   4  24   1 1929.59 281.641   1
 -28   4   1 1250.93 179.823   3
 -24  -4   4 183.275 166.310   3
   4  24   4 448.854 243.489   1
  24 -28   4 536.160 232.147   4
  28 -24   4 302.650 225.201   4
  24 -28   4-303.145 235.893   2
  28 -24   4 5.97604 196.341   2
  -4  28   4 109.435 224.211   1
 -28   4   4 328.176 159.993   3
  23 -28  -6-144.920 193.731   2
  28 -23  -6 12.7797 231.095   2
  23 -28  -6-8.32422 185.036   4
  28 -23  -6 148.525 227.597   4
  23 -28  -3 1163.99 286.882   4
  28 -23  -3 1231.68 289.845   4
   5  23  -3 584.018 149.821   1
  -5  28  -3 677.323 182.434   1
  23 -28  -3 631.270 198.875   2
  28 -23  -3 588.279 216.967   2
 -23  -5   0 606.195 191.305   3
 -28   5   0 442.714 126.534   3
   5  23   0 610.959 208.708   1
  23 -28   0 851.909 255.695   4
  28 -23   0 463.356 207.527   4
  23 -28   0 411.133 188.679   2
  28 -23   0 389.395 220.896   2
  -5  28   0 588.870 193.462   1
 -28   5   3 584.167 153.976   3
 -23  -5   3 556.210 189.480   3
   5  23   3 1075.75 254.372   1
  23 -28   3 763.951 259.898   4
  28 -23   3 830.159 265.500   4
  23 -28   3 696.316 240.267   2
  28 -23   3 762.850 239.233   2
  -5  28   3 287.703 219.567   1
 -23  -5   6 532.623 226.899   3
   5  23   6 204.029 231.804   1
  23 -28   6 94.8437 225.699   4
  28 -23   6 395.893 237.047   4
  23 -28   6 301.400 220.261   2
  28 -23   6 177.323 218.214   2
  -5  28   6 526.878 283.203   1
 -28   5   6 365.894 212.214   3
  -6  28  -4 356.743 170.084   1
  22 -28  -4 97.3112 209.526   4
  28 -22  -4 321.846 229.152   4
  22 -28  -4 630.000 185.539   2
   6  22  -4 557.017 127.517   1
  28 -22  -4 479.614 232.424   2
 -22  -6  -1-74.3426 175.428   3
  -6  28  -1 275.612 163.689   1
 -28   6  -1 354.037 88.3420   3
   6  22  -1 387.507 159.208   1
  22 -28  -1 306.641 232.884   4
  28 -22  -1 635.607 234.401   4
  22 -28  -1 328.340 187.068   2
  28 -22  -1 797.124 212.941   2
 -28   6   2 707.877 146.259   3
 -22  -6   2 1087.52 219.690   3
   6  22   2 1240.34 243.631   1
  22 -28   2 1195.06 273.900   4
  28 -22   2 968.394 256.647   4
  22 -28   2 961.132 258.585   2
  28 -22   2 909.690 239.488   2
  -6  28   2 1180.76 276.493   1
 -22  -6   5 149.614 179.351   3
   6  22   5 168.276 212.734   1
  22 -28   5 275.726 150.743   3
  22 -28   5 158.716 192.327   4
  28 -22   5 216.122 213.840   4
  22 -28   5-64.4279 195.378   2
  28 -22   5 214.470 232.169   2
  -6  28   5 452.226 241.036   1
 -28   6   5 135.204 147.539   3
  21 -28  -5 516.463 200.705   4
  -7  28  -5 905.937 196.980   1
  28 -21  -5 388.780 242.273   4
  21 -28  -5 598.061 186.981   2
  28 -21  -5 537.928 242.679   2
 -21  -7  -2-113.376 182.147   3
   7  21  -2-56.6328 125.841   1
  21 -28  -2-127.136 183.567   4
  28 -21  -2-67.8373 210.778   4
  -7  28  -2 185.446 159.372   1
  21 -28  -2 236.450 149.297   2
  28 -21  -2 18.5411 171.967   2
 -28   7   1 446.197 116.542   3
   7  21   1 661.899 217.132   1
 -21  -7   1 1173.83 222.134   3
  21 -28   1 457.017 233.790   4
  28 -21   1 727.225 257.266   4
  21 -28   1 851.903 206.587   2
  28 -21   1 635.061 227.864   2
  -7  28   1 421.205 191.275   1
 -21  -7   4 524.535 201.827   3
   7  21   4-3.32495 209.361   1
  21 -28   4 288.366 157.340   3
  21 -28   4 69.6014 190.140   4
  28 -21   4-81.7395 204.805   4
  21 -28   4 230.679 210.572   2
  28 -21   4 206.520 211.874   2
  -7  28   4 486.994 242.290   1
 -28   7   4-174.456 139.316   3
  28 -20  -6 911.195 279.461   2
  20 -28  -6 615.722 228.033   4
  28 -20  -6 648.819 245.320   4
  -8  28  -3 754.924 192.727   1
   8  20  -3 1152.95 169.546   1
  20 -28  -3 597.363 238.534   4
  28 -20  -3 1086.81 275.902   4
  20 -28  -3 1144.21 207.183   2
  28 -20  -3 539.610 220.434   2
   8  20   0 468.253 198.722   1
 -20  -8   0 683.497 213.890   3
 -28   8   0 256.569 82.5406   3
  -8  28   0 240.059 194.142   1
  20 -28   0 421.091 228.916   4
  28 -20   0 179.417 210.509   4
  20 -28   0 609.046 187.430   2
  28 -20   0 456.086 204.742   2
   8  20   3 843.664 237.946   1
 -20  -8   3 303.403 178.712   3
  20 -28   3 724.914 200.699   3
  20 -28   3 1128.20 293.529   4
  28 -20   3 698.209 241.372   4
  20 -28   3 1170.24 253.665   2
  28 -20   3 708.929 231.024   2
  -8  28   3 1176.52 273.110   1
 -28   8   3 682.937 143.109   3
 -20  -8   6 111.085 192.846   3
   8  20   6 529.059 250.280   1
  20 -28   6 305.231 168.257   3
  20 -28   6 114.229 211.291   4
  20 -28   6 54.7684 194.089   2
  28 -20   6 588.151 239.105   4
  28 -20   6 247.893 226.337   2
  -8  28   6 70.5396 212.736   1
 -28   8   6 409.228 194.774   3
  28 -19  -7 258.306 295.659   2
  19 -28  -7 229.923 181.508   4
  28 -19  -7-279.462 237.846   4
  19 -28  -4 463.733 220.602   4
   9  19  -4 589.735 123.474   1
  28 -19  -4 843.920 283.209   4
  -9  28  -4 681.380 191.194   1
  19 -28  -4 472.314 152.972   2
  28 -19  -4 484.710 221.851   2
   9  19  -1 118.780 139.826   1
 -19  -9  -1 653.811 217.058   3
  19 -28  -1 310.033 221.655   4
  -9  28  -1-13.4323 158.483   1
  28 -19  -1 446.091 249.961   4
  19 -28  -1 244.096 163.148   2
  28 -19  -1 334.688 193.998   2
 -28   9   2 84.7326 100.331   3
 -19  -9   2-190.461 172.363   3
  19 -28   2 490.891 172.723   3
  19 -28   2 600.639 242.934   4
  28 -19   2 479.362 246.472   4
  19 -28   2 474.063 193.548   2
  28 -19   2 161.411 190.941   2
  -9  28   2 452.856 203.537   1
   9  19   2 527.443 193.999   1
 -19  -9   5 80.7655 189.908   3
  19 -28   5-78.6171 159.555   3
  19 -28   5 173.961 220.976   4
  19 -28   5-72.1291 191.040   2
  28 -19   5 442.199 208.138   4
  28 -19   5 186.345 198.477   2
  -9  28   5-120.684 224.117   1
 -28   9   5 160.999 136.487   3
   9  19   5 350.398 216.508   1
  28 -18  -5 594.256 240.129   2
  18 -28  -5 215.214 191.068   4
 -10  28  -5 311.489 165.826   1
  28 -18  -5 836.401 280.260   4
  18 -28  -5 248.109 144.599   2
  10  18  -2 620.596 162.120   1
 -18 -10  -2-7.41206 172.706   3
  18 -28  -2 251.590 199.442   4
  28 -18  -2 401.237 243.993   4
  18 -28  -2-44.7686 129.552   2
  28 -18  -2 176.244 206.874   2
 -10  28  -2 349.458 181.981   1
 -28  10   1 437.638 93.5797   3
 -18 -10   1 583.952 202.700   3
 -10  28   1 351.471 219.460   1
  18 -28   1 99.9304 153.314   3
  18 -28   1 499.883 252.468   4
  28 -18   1 853.878 256.468   4
  18 -28   1 781.232 212.761   2
  28 -18   1 421.268 210.038   2
  10  18   1 415.503 175.993   1
 -18 -10   4-77.2906 177.116   3
  18 -28   4 73.3300 157.521   3
  18 -28   4 305.990 231.945   4
  18 -28   4-186.074 203.041   2
  28 -18   4 8.61755 203.096   4
  28 -18   4 84.0155 206.908   2
 -10  28   4-193.075 193.844   1
 -28  10   4 28.2794 124.126   3
  10  18   4 154.300 200.753   1
 -18 -10   7 565.112 223.186   3
  18 -28   7 347.757 192.021   3
  18 -28   7 396.922 237.872   4
  18 -28   7 634.522 263.870   2
  28 -18   7 402.640 244.168   4
  28 -18   7 371.023 239.621   2
 -10  28   7 105.422 227.092   1
 -28  10   7 259.577 190.919   3
  10  18   7 572.437 259.456   1
  28 -17  -6 669.343 277.479   2
  17 -28  -6 454.617 183.036   4
  28 -17  -6 997.130 319.978   4
  11  17  -3 864.975 159.923   1
 -17 -11  -3 922.839 251.401   3
  17 -28  -3 525.845 220.887   4
 -11  28  -3 924.400 211.245   1
  28 -17  -3 676.162 244.068   4
  17 -28  -3 922.127 175.597   2
  28 -17  -3 1474.26 298.413   2
 -17 -11   0 1216.38 241.011   3
  17 -28   0 955.327 277.884   4
 -11  28   0 890.153 199.632   1
  28 -17   0 1240.92 283.496   4
  17 -28   0 938.491 191.857   2
  28 -17   0 944.783 241.834   2
  11  17   0 691.886 181.501   1
 -11  28   3 1294.48 269.602   1
 -17 -11   3 797.424 205.973   3
  17 -28   3 1534.89 242.237   3
  17 -28   3 1742.61 280.410   2
  17 -28   3 1349.75 292.384   4
  28 -17   3 1142.46 270.023   4
  28 -17   3 1365.53 275.351   2
  11  17   3 1305.47 270.790   1
 -28  11   3 1003.26 157.082   3
 -17 -11   6 342.806 222.038   3
  17 -28   6 186.367 183.367   3
  17 -28   6 20.8487 206.317   4
  17 -28   6-204.857 208.385   2
  28 -17   6 443.446 227.944   4
  28 -17   6 54.7716 195.037   2
 -28  11   6 239.492 179.996   3
 -11  28   6 105.333 213.832   1
  11  17   6 683.437 261.476   1
  28 -16  -7 163.114 282.008   2
  16 -28  -7 246.366 169.448   4
  28 -16  -7 396.976 277.119   4
  12  16  -4 425.978 118.000   1
 -12  28  -4 579.161 195.422   1
  16 -28  -4 244.252 176.891   4
  28 -16  -4 416.136 242.951   4
  16 -28  -4 302.941 130.728   2
  28 -16  -4 465.168 237.758   2
 -16 -12  -1 158.823 195.236   3
  16 -28  -1-108.285 178.440   4
  28 -16  -1 12.0384 222.233   4
  16 -28  -1 301.331 153.031   2
  28 -16  -1 69.2576 178.616   2
 -12  28  -1 318.572 181.692   1
  12  16  -1 187.730 151.485   1
 -16 -12   2-118.483 200.655   3
  16 -28   2 96.0855 170.101   3
 -12  28   2-227.419 207.150   1
  16 -28   2 260.573 231.639   4
  16 -28   2-76.7510 155.495   2
  28 -16   2-318.337 210.420   4
  28 -16   2-19.0242 184.000   2
  12  16   2 349.535 185.735   1
 -28  12   2 61.0743 83.5874   3
 -12  28   5-157.862 200.378   1
 -16 -12   5-17.1589 178.898   3
  16 -28   5-300.074 179.579   3
  16 -28   5 160.251 232.646   4
  16 -28   5 310.251 243.182   2
  28 -16   5-15.2925 200.468   4
  28 -16   5 52.4684 199.587   2
  12  16   5 105.465 205.990   1
 -28  12   5 89.9851 139.997   3
  28 -15  -5-328.909 230.795   2
  15 -28  -5 40.8094 163.135   4
  28 -15  -5 269.465 226.013   4
 -15 -13  -2 139.122 194.097   3
 -13  28  -2 41.3923 161.070   1
  15 -28  -2 95.6452 199.458   4
  28 -15  -2 48.8727 204.269   4
  15 -28  -2 166.658 124.653   2
  13  15  -2 223.577 138.659   1
  28 -15  -2 6.70084 221.099   2
 -28  13   1 273.440 68.0279   3
 -15 -13   1 869.108 224.427   3
  15 -28   1 419.108 194.763   3
  15 -28   1 895.498 245.235   4
  15 -28   1 675.065 191.346   2
 -13  28   1 344.148 202.715   1
  28 -15   1 231.402 221.578   4
  28 -15   1-294.187 206.366   2
  13  15   1 542.808 208.485   1
 -15 -13   4 18.0413 183.143   3
 -13  28   4 193.150 200.679   1
  15 -28   4 135.127 166.378   3
  13  15   4-194.191 133.493   2
  15 -28   4-20.4185 207.755   4
  15 -28   4 278.128 182.020   2
  28 -15   4-224.984 206.454   4
  28 -15   4 219.361 207.206   2
  13  15   4-243.310 209.710   1
 -28  13   4-34.2889 126.794   3
 -15 -13   7 486.959 245.356   3
 -13  28   7 902.079 284.299   1
  15 -28   7-42.8196 201.757   3
  15 -28   7 220.047 232.686   4
  15 -28   7 121.101 198.053   2
  28 -15   7 293.368 225.914   4
  28 -15   7-77.3646 225.362   2
 -28  13   7 106.029 175.485   3
  13  15   7 301.233 254.044   1
  28 -14  -6 90.7026 261.534   2
  14 -28  -6 696.405 203.785   4
  28 -14  -6 294.672 255.604   4
 -14  28  -3 2451.51 303.849   1
 -14 -14  -3 2155.09 303.395   3
  14 -28  -3 2676.92 338.824   4
  28 -14  -3 2371.12 363.530   4
  14  14  -3 2443.99 225.893   1
  14 -28  -3 1899.79 190.365   2
  28 -14  -3 2524.38 357.437   2
 -14 -14   0 1254.58 245.213   3
  14  14   0 1608.61 286.968   2
  14 -28   0 958.603 213.027   3
  14 -28   0 1451.23 223.820   2
  14 -28   0 1521.03 298.208   4
  28 -14   0 1220.58 275.665   4
  14  14   0 1182.05 219.372   1
 -14  28   0 1118.62 246.094   1
  28 -14   0 1218.72 263.261   2
  14 -28   3 2250.50 294.471   3
  14 -28   3 2625.94 347.724   4
  14 -28   3 2804.63 311.881   2
  14  14   3 2635.86 325.392   1
  28 -14   3 2346.39 335.703   4
 -14  28   3 2513.42 333.007   1
  28 -14   3 2058.75 304.070   2
 -28  14   3 2006.53 188.993   3
  14  14   3 2439.28 270.102   2
 -14 -14   3 2218.67 300.794   3
 -14 -14   6 396.545 221.247   3
 -14  28   6-163.993 224.082   1
  14 -28   6 448.126 208.590   3
  14 -28   6 274.155 238.109   4
  14 -28   6 387.347 209.794   2
  28 -14   6 397.944 227.966   4
  28 -14   6 140.351 224.920   2
  14  14   6 230.394 200.960   1
 -28  14   6 266.576 166.149   3
  28 -13  -7 640.441 285.384   2
  13 -28  -7 210.997 174.384   4
  28 -13  -4-145.758 228.655   2
 -15  28  -4-120.002 177.417   1
  13 -28  -4-22.9932 183.506   4
  28 -13  -4 58.7837 227.876   4
  13 -28  -4-84.7597 92.1477   2
  15  13  -4 165.990 114.357   1
 -15  28  -1 705.275 218.370   1
 -13 -15  -1 499.170 203.986   3
  15  13  -1 460.907 216.803   2
  13 -28  -1 205.297 190.988   4
  13 -28  -1 314.016 135.304   2
  28 -13  -1 400.417 227.535   4
  15  13  -1 772.156 189.943   1
  28 -13  -1 671.554 247.234   2
 -13 -15   2 119.464 185.274   3
  15  13   2 64.1371 163.111   2
  13 -28   2 192.582 197.339   3
  13 -28   2 367.448 199.402   4
  13 -28   2 114.448 151.410   2
  28 -13   2 178.920 188.851   4
 -15  28   2 48.1133 196.381   1
  15  13   2 5.80385 168.574   1
  28 -13   2 362.497 208.913   2
 -28  15   2 21.1596 81.2775   3
 -13 -15   5-141.565 181.152   3
  13 -28   5 30.3808 168.755   3
  15  13   5 28.3026 132.709   2
 -15  28   5 50.2428 209.932   1
  13 -28   5 211.480 217.628   4
  13 -28   5 226.068 202.722   2
  28 -13   5 137.414 204.039   4
  28 -13   5 227.269 209.704   2
  15  13   5-173.592 225.278   1
 -28  15   5 200.733 151.525   3
  28 -12  -5 61.3224 239.030   2
  12 -28  -5-50.7538 203.095   4
  28 -12  -5-184.624 226.120   4
  16  12  -5 74.0674 81.2684   1
 -12 -16  -2-90.3202 194.105   3
  16  12  -2 77.7165 196.326   2
  12 -28  -2 228.923 196.019   4
  28 -12  -2-164.662 222.360   4
  12 -28  -2 128.030 110.282   2
 -16  28  -2 377.487 191.558   1
  16  12  -2-84.1486 141.191   1
  28 -12  -2 152.302 197.529   2
 -12 -16   1 101.760 171.637   3
  16  12   1 121.326 170.864   2
  12 -28   1 241.069 206.636   3
  12 -28   1-165.124 212.251   4
  12 -28   1 271.517 165.178   2
  28 -12   1 243.355 217.614   4
  16  12   1 131.867 168.505   1
  28 -12   1-53.1495 191.422   2
 -16  28   1 62.3519 230.597   1
 -28  16   1 67.5627 46.3719   3
 -12 -16   4 19.9873 191.995   3
  16  12   4 81.9201 162.241   2
  12 -28   4 306.836 195.157   3
  12 -28   4 253.884 237.208   4
  12 -28   4-36.1642 172.021   2
 -16  28   4 131.529 194.463   1
  28 -12   4 107.396 197.569   4
  16  12   4 398.791 212.139   1
  28 -12   4 454.384 237.392   2
 -28  16   4 441.086 145.524   3
 -12 -16   7 64.0526 214.159   3
  12 -28   7-242.127 197.307   3
 -16  28   7-79.6489 208.873   1
  12 -28   7 148.106 239.475   4
  12 -28   7-22.0226 214.746   2
  28 -12   7 257.071 216.446   4
  28 -12   7-160.627 206.382   2
 -28  16   7 175.716 217.349   1
  16  12   7 118.923 231.866   1
 -28  16   7 342.881 189.784   3
  28 -11  -6 391.586 303.242   2
  11 -28  -6 446.023 173.580   4
  28 -11  -6 23.5707 252.295   4
 -11 -17  -3 2088.94 326.216   3
  17  11  -3 1837.78 309.690   2
  11 -28  -3 1447.83 288.142   4
  17  11  -3 1486.90 203.268   1
  11 -28  -3 1111.23 141.995   2
  28 -11  -3 1353.08 310.120   4
 -17  28  -3 1220.53 251.234   1
  28 -11  -3 1692.78 331.596   2
 -17  28   0 656.054 236.835   1
 -11 -17   0 1208.81 253.596   3
  17  11   0 861.984 244.512   2
  11 -28   0 541.955 221.767   3
  11 -28   0 1053.33 254.544   4
  11 -28   0 1064.92 201.316   2
  28 -11   0 775.791 245.778   4
  17  11   0 962.044 208.284   1
  28 -11   0 1017.37 261.133   2
 -11 -17   3 681.129 228.922   3
  17  11   3 638.718 198.860   2
  11 -28   3 602.030 231.577   3
  11 -28   3 369.344 220.003   4
  11 -28   3 539.702 194.157   2
  28 -11   3 546.331 237.940   4
 -17  28   3 597.253 235.008   1
  17  11   3 723.702 215.243   1
  28 -11   3 242.332 198.322   2
 -28  17   3 923.063 149.174   3
 -11 -17   6 414.616 226.601   3
  11 -28   6 705.909 241.060   3
  11 -28   6 690.878 254.324   4
 -28  17   6 173.512 220.467   1
  11 -28   6 949.220 272.985   2
 -17  28   6 750.291 262.647   1
  28 -11   6 455.320 227.874   4
  28 -11   6 417.734 219.589   2
  17  11   6 569.978 264.688   1
 -28  17   6 355.762 183.727   3
  28 -10  -7 521.462 332.638   2
  10 -28  -7 65.2130 144.036   4
  28 -10  -7 28.0979 224.832   4
  28 -10  -4-416.371 271.266   2
  18  10  -4-218.857 249.560   2
  10 -28  -4 354.067 202.039   4
  28 -10  -4 573.070 262.327   4
  18  10  -4 127.144 124.090   1
 -18  28  -4-307.502 194.193   1
  18  10  -1 498.371 242.969   2
 -10 -18  -1 529.698 224.498   3
  10 -28  -1 849.643 242.321   3
  10 -28  -1 401.154 228.637   4
  10 -28  -1 400.106 155.638   2
  28 -10  -1 989.138 287.139   4
 -18  28  -1 377.021 215.162   1
  18  10  -1 190.330 147.020   1
  18  10  -1 496.066 247.321   4
  28 -10  -1 721.493 253.930   2
  18  10   2 261.734 203.101   2
 -10 -18   2 257.340 177.094   3
  10 -28   2-222.245 182.773   3
  10 -28   2-134.196 227.078   4
  10 -28   2 289.282 180.308   2
  28 -10   2 246.765 224.057   4
  18  10   2 330.212 191.959   1
  18  10   2 337.494 196.255   4
  28 -10   2 606.564 231.567   2
 -28  18   2 103.916 90.0904   3
 -18  28   2 322.118 207.628   1
  18  10   5 191.268 153.458   2
 -10 -18   5 526.757 217.794   3
  10 -28   5 164.060 186.690   3
  10 -28   5 701.661 278.846   4
  10 -28   5 497.248 229.267   2
 -18  28   5 707.752 244.927   1
  28 -10   5 621.446 252.840   4
  18  10   5 129.061 203.241   1
  28 -10   5 153.674 201.315   2
 -28  18   5 228.676 155.078   3
 -28  18   5 205.584 230.085   1
  28  -9  -5 119.831 229.458   2
   9 -28  -5 243.829 192.030   4
  28  -9  -5 715.623 282.982   4
  19   9  -5 42.8383 107.387   1
  19   9  -2 258.283 230.053   2
  -9 -19  -2-114.740 198.031   3
 -19  28  -2 542.112 245.364   1
   9 -28  -2 247.915 192.522   4
   9 -28  -2 242.041 113.984   2
  19   9  -2 464.881 173.686   1
  28  -9  -2 194.773 224.797   4
  19   9  -2 16.8398 244.422   4
  28  -9  -2 348.276 239.635   2
  19   9   1 267.546 185.503   2
 -19  28   1 144.693 196.089   1
  -9 -19   1-45.1295 182.790   3
   9 -28   1 344.568 222.204   3
   9 -28   1 737.663 242.396   4
   9 -28   1 323.027 164.666   2
  19   9   1 378.913 197.610   1
  28  -9   1 100.076 215.992   4
  19   9   1 682.634 266.638   4
  28  -9   1 236.197 221.492   2
 -28  19   1 153.015 60.0369   3
  19   9   4 340.753 200.388   2
  -9 -19   4 600.495 225.637   3
   9 -28   4 97.2383 182.294   3
   9 -28   4 980.265 240.490   2
  28  -9   4 214.062 211.886   4
  19   9   4 303.904 218.855   1
 -19  28   4 639.986 246.710   1
  28  -9   4 240.461 193.159   2
 -28  19   4 698.938 164.651   3
 -28  19   4 520.255 243.754   1
  -9 -19   7 92.9403 219.555   3
   9 -28   7-408.765 234.806   3
 -28  19   7 306.943 235.112   1
 -19  28   7-76.7836 237.694   1
  28  -9   7 50.1799 197.550   4
  19   9   7-33.9126 236.155   1
  28  -9   7 41.1146 221.181   2
 -28  19   7-185.429 181.288   3
  28  -8  -6 325.174 281.763   2
   8 -28  -6 283.714 172.964   4
  28  -8  -6 340.460 273.702   4
  28  -8  -3 350.667 267.800   2
  20   8  -3 862.624 278.173   2
  -8 -20  -3 531.616 204.095   3
   8 -28  -3 746.777 239.447   4
  20   8  -3 533.925 168.509   1
   8 -28  -3 431.072 91.6821   2
  28  -8  -3 695.584 277.440   4
  20   8  -3 329.808 261.049   4
 -20  28  -3 821.292 257.155   1
  20   8   0 626.751 238.395   2
  -8 -20   0 677.550 232.994   3
   8 -28   0-43.1350 198.057   3
   8 -28   0 455.680 208.600   4
   8 -28   0 526.076 156.918   2
  20   8   0 336.288 179.610   1
 -20  28   0 366.968 198.357   1
  28  -8   0 206.716 225.432   4
  20   8   0 514.559 245.879   4
  28  -8   0 245.506 236.518   2
  20   8   3 883.318 229.012   2
  -8 -20   3 608.149 216.145   3
   8 -28   3 1017.68 252.039   3
 -28  20   3 1008.72 268.559   1
  20   8   3 618.580 216.933   1
  28  -8   3 1099.77 283.955   4
  20   8   3 957.415 252.689   4
 -28  20   3 790.139 152.541   3
  28  -8   3 847.095 260.952   2
 -20  28   3 970.934 265.322   1
 -28  20   6 733.384 293.877   1
  -8 -20   6 432.956 232.010   3
   8 -28   6 890.665 251.727   3
  28  -8   6 747.911 259.707   4
  20   8   6 843.903 285.453   1
 -20  28   6 861.148 299.283   1
  28  -8   6 786.218 232.958   2
 -28  20   6 721.830 201.272   3
  20   8   6 556.352 190.013   2
  28  -7  -4-122.761 236.137   2
  21   7  -4 65.8294 232.444   2
   7 -28  -4-217.946 197.215   4
  21   7  -4-76.0735 138.170   1
  28  -7  -4 110.587 272.489   4
  21   7  -4 40.5766 250.882   4
  21   7  -1 647.737 243.372   2
 -21  28  -1 425.107 247.412   1
  -7 -21  -1 814.536 255.734   3
   7 -28  -1 799.978 252.092   3
   7 -28  -1 468.272 236.366   4
   7 -28  -1 808.901 166.850   2
  21   7  -1 709.826 200.419   1
  28  -7  -1 967.362 287.059   4
  21   7  -1 524.138 240.570   4
  28  -7  -1 875.708 283.256   2
  21   7   2 142.631 197.905   2
  -7 -21   2-25.1539 208.514   3
   7 -28   2 32.1005 193.066   3
 -28  21   2-228.848 229.607   1
 -21  28   2 190.127 204.367   1
   7 -28   2-183.380 159.137   2
  21   7   2 110.946 183.335   1
  28  -7   2-76.5801 212.384   4
  21   7   2 456.560 260.200   4
 -28  21   2 28.7824 92.6699   3
  28  -7   2 38.0398 227.254   2
  -7 -21   5 1205.39 281.937   3
   7 -28   5 877.450 265.884   3
  28  -7   5 1129.28 262.936   4
  21   7   5 1166.82 311.542   1
  21   7   5 972.508 237.108   4
  28  -7   5 511.115 233.174   2
 -28  21   5 774.499 193.691   3
 -21  28   5 775.587 248.979   1
 -28  21   5 1051.51 281.038   1
  21   7   5 1344.32 260.388   2
  28  -6  -5-202.377 295.310   2
  22   6  -5-23.8643 250.814   2
   6 -28  -5-245.059 187.738   4
  22   6  -5 88.0413 121.812   1
  28  -6  -5-642.908 298.703   4
  22   6  -5-144.166 270.471   4
  28  -6  -2 690.054 267.868   2
  22   6  -2 1001.86 299.364   2
  -6 -22  -2 887.472 285.003   3
   6 -28  -2 732.539 248.367   4
 -22  28  -2 574.077 219.565   1
  22   6  -2 846.137 201.140   1
   6 -28  -2 638.646 129.653   2
  28  -6  -2 846.627 285.090   4
  22   6  -2 467.348 287.734   4
  22   6   1 732.876 252.325   2
  -6 -22   1 493.516 231.957   3
   6 -28   1 245.314 208.605   3
   6 -28   1 364.407 168.061   2
  22   6   1 464.801 209.635   1
  28  -6   1 42.2096 210.957   4
 -22  28   1 353.083 221.536   1
  22   6   1 245.277 224.323   4
 -28  22   1 332.775 91.0261   3
  28  -6   1 418.408 225.766   2
 -22  28   4 739.835 251.805   1
 -28  22   4 168.167 217.842   1
  -6 -22   4-2.68049 202.002   3
   6 -28   4 399.177 222.388   3
  22   6   4-229.553 220.830   1
  28  -6   4 333.462 217.857   4
  22   6   4 474.469 213.861   4
 -28  22   4 541.133 164.133   3
  28  -6   4 100.991 189.687   2
  22   6   4 116.446 179.124   2
  28  -5  -6 593.296 291.853   2
  23   5  -6 1118.25 339.673   2
   5 -28  -6 127.539 164.728   4
  28  -5  -6 72.2599 255.001   4
  23   5  -6 424.704 312.046   4
  28  -5  -3 1105.67 306.301   2
  23   5  -3-1.22295 244.752   2
  -5 -23  -3 243.799 237.061   3
   5 -28  -3 553.872 237.212   4
  23   5  -3 794.374 196.888   1
  28  -5  -3 490.158 289.804   4
  23   5  -3 67.4201 233.655   4
  23   5   0 425.174 226.506   2
 -23  28   0 314.942 221.596   1
  -5 -23   0 499.762 209.075   3
   5 -28   0 776.475 248.297   3
   5 -28   0 264.469 159.417   2
  23   5   0 408.136 199.167   1
  28  -5   0 541.167 247.619   4
  23   5   0 422.554 237.373   4
 -28  23   0 301.666 58.7095   3
  28  -5   0 384.801 235.422   2
  23   5   3 1008.25 237.464   2
  -5 -23   3 813.552 250.128   3
   5 -28   3 984.103 234.853   3
 -28  23   3 1329.32 316.235   1
 -23  28   3 1040.57 277.803   1
  23   5   3 885.513 249.869   1
  28  -5   3 1155.61 295.672   4
  23   5   3 616.489 236.190   4
 -28  23   3 742.143 169.868   3
  28  -5   3 329.987 216.759   2
 -23  28   6-294.712 239.520   1
  -5 -23   6 12.8165 213.177   3
   5 -28   6 131.678 219.722   3
 -28  23   6-52.5319 233.531   1
  23   5   6-119.026 242.963   1
  28  -5   6-81.6019 207.853   4
  23   5   6 71.4085 191.217   4
 -28  23   6-185.648 201.528   3
  28  -5   6 134.782 200.627   2
  23   5   6 98.1222 184.320   2
  28  -4  -4 294.988 286.914   2
  24   4  -4 300.966 273.508   2
   4 -28  -4 240.281 199.069   4
  28  -4  -4 257.639 275.323   4
  24   4  -4-371.699 277.297   4
  24   4  -1 686.562 266.346   2
 -24  28  -1 1217.01 279.594   1
  -4 -24  -1 1346.51 304.984   3
   4 -28  -1 894.024 270.451   3
   4 -28  -1 1663.53 212.790   2
  24   4  -1 1136.49 229.503   1
  28  -4  -1 1205.55 326.147   4
  24   4  -1 1290.58 324.280   4
  28  -4  -1 1625.32 344.461   2
  24   4   2 178.300 209.427   2
  -4 -24   2-34.8175 221.610   3
   4 -28   2 164.021 212.445   3
  24   4   2 108.370 193.116   1
  28  -4   2 392.972 217.675   4
 -28  24   2 325.685 254.075   1
  24   4   2 317.467 253.599   4
 -24  28   2 275.068 257.462   1
 -28  24   2-46.9782 110.440   3
  28  -4   2 141.451 225.135   2
  -4 -24   5 377.515 242.994   3
   4 -28   5 1103.59 285.423   3
 -24  28   5 380.310 263.291   1
 -28  24   5 415.559 284.260   1
  24   4   5 719.207 262.614   1
  28  -4   5 710.673 240.454   4
  24   4   5 1132.07 278.823   4
 -28  24   5 372.359 183.737   3
  28  -4   5 770.388 242.193   2
  24   4   5 1199.78 261.216   2
  28  -3  -5-3.76261 270.516   2
  25   3  -5-43.4095 253.758   2
   3 -28  -5-7.84554 185.647   4
  28  -3  -5 56.2796 265.415   4
  25   3  -5 23.8421 266.658   4
  28  -3  -2 807.478 274.192   2
  25   3  -2 849.387 275.560   2
  -3 -25  -2 1063.64 279.166   3
   3 -28  -2 549.634 249.097   3
   3 -28  -2 741.194 139.769   2
 -25  28  -2 374.402 234.992   1
  28  -3  -2 1106.14 338.942   4
  25   3  -2 491.847 284.683   4
  25   3   1-29.2398 206.608   2
  -3 -25   1-83.8236 225.735   3
   3 -28   1-232.480 223.123   3
 -25  28   1 221.988 218.744   1
  25   3   1 171.975 197.009   1
 -28  25   1-130.550 228.061   1
  28  -3   1 50.2801 234.727   4
  25   3   1 251.760 257.838   4
 -28  25   1 3.18260 93.6334   3
  28  -3   1 13.9174 204.261   2
  -3 -25   4 653.022 241.257   3
   3 -28   4 1181.68 279.479   3
 -28  25   4 979.166 297.907   1
  25   3   4 793.283 251.909   1
 -25  28   4 1001.49 300.576   1
  28  -3   4 701.021 270.505   4
  25   3   4 1005.39 282.862   4
 -28  25   4 425.714 158.937   3
  28  -3   4 583.734 241.634   2
  25   3   4 652.975 241.713   2
  28  -2  -3 595.104 305.583   2
  26   2  -3 1278.68 343.252   2
  28  -2  -3 351.511 276.150   4
  26   2  -3 858.958 317.836   4
  26   2   0 254.901 231.935   2
 -26  28   0 196.031 246.449   1
  -2 -26   0-5.81830 234.981   3
   2 -28   0 175.082 203.297   3
  28  -2   0-79.9216 239.549   4
  26   2   0 307.129 248.068   4
 -28  26   0 45.9100 236.550   1
  28  -2   0 378.701 257.191   2
  -2 -26   3 402.902 240.629   3
   2 -28   3 716.152 248.751   3
  26   2   3 862.051 257.222   1
 -28  26   3-286.081 267.172   1
  28  -2   3 605.659 277.140   4
  26   2   3 697.549 245.958   4
 -26  28   3 549.685 259.954   1
  28  -2   3 766.510 257.423   2
  26   2   3 509.189 249.956   2
  28  -1  -4 629.947 302.106   2
  27   1  -4 633.589 314.034   2
   1 -28  -4 130.866 250.602   4
  28  -1  -4 169.959 278.437   4
  27   1  -4 792.343 340.127   4
  28  -1  -1 1266.77 303.307   2
  27   1  -1 2074.46 370.430   2
 -27  28  -1 926.992 287.949   1
  -1 -27  -1 1218.68 301.997   3
   1 -28  -1 1997.36 347.297   3
  27   1  -1 2256.81 407.216   4
  28  -1  -1 1278.01 346.211   4
  -1 -27   2 445.637 224.361   3
   1 -28   2 520.525 237.773   3
 -27  28   2 223.372 234.413   1
  28  -1   2 199.439 221.555   4
  27   1   2 1109.34 290.991   4
 -28  27   2 693.241 318.906   1
  28  -1   2 292.577 222.911   2
  27   1   2 238.261 240.114   2
  -1 -27   5 1442.39 303.967   3
   1 -28   5 1804.07 333.111   3
  28  -1   5 1035.70 314.473   1
  27   1   5 1217.32 307.958   1
  28  -1   5 926.765 285.136   4
  27   1   5 769.337 278.374   4
 -27  28   5 1577.51 339.386   1
 -28  27   5 1283.00 252.029   3
  28  -1   5 900.683 257.792   2
  27   1   5 1349.09 302.852   2
 -28  27   5 1068.86 313.728   1
  28   0  -2 896.895 314.246   2
   0 -28  -2 379.653 259.500   3
   0 -28  -2 581.317 140.341   2
  28   0  -2 671.523 284.557   4
  28   0   1-71.4784 234.169   2
   0 -28   1-207.666 220.487   3
 -28  28   1 371.006 263.455   1
  28   0   1-74.0503 240.869   4
 -28  28   4 18.1052 227.226   1
   0 -28   4 151.358 239.153   3
  28   0   4 298.588 252.423   1
  28   0   4 474.469 260.409   4
  28   0   4 790.543 256.370   2
   0  29  -2 407.283 182.062   1
  29 -29  -2 805.058 286.977   4
  29 -29  -2 1041.02 267.651   2
 -29   0   1-72.8776 144.658   3
  29 -29   1 518.703 247.046   4
   0  29   1 44.6880 195.919   1
  29 -29   1 108.884 184.743   2
   1  28  -3 410.769 163.311   1
  -1  29  -3 553.454 173.958   1
  28 -29  -3 728.216 262.164   4
  29 -28  -3 186.813 252.786   4
  28 -29  -3 315.065 193.402   2
  29 -28  -3 523.557 225.118   2
 -28  -1   0 319.325 166.125   3
 -29   1   0 138.463 135.048   3
  28 -29   0-10.6747 228.685   4
  29 -28   0 183.156 221.815   4
   1  28   0 142.425 199.935   1
  28 -29   0 393.076 226.043   2
  29 -28   0-295.899 200.688   2
  -1  29   0 259.508 208.708   1
 -29   1   3 538.721 179.091   3
 -28  -1   3 892.868 212.416   3
  28 -29   3 1055.56 307.862   4
  29 -28   3 511.603 251.236   4
   1  28   3 788.866 275.797   1
  -1  29   3 444.264 253.719   1
  28 -29   3 889.858 261.213   2
  29 -28   3 308.314 225.636   2
  27 -29  -4 169.679 218.928   4
  29 -27  -4-485.063 242.034   4
  27 -29  -4 38.0759 193.333   2
  29 -27  -4 202.399 221.214   2
  -2  29  -4-146.204 151.686   1
 -27  -2  -1 294.023 157.192   3
 -29   2  -1 7.76522 136.350   3
  27 -29  -1 0.38443 218.144   4
  29 -27  -1 440.101 236.780   4
   2  27  -1 213.568 171.738   1
  27 -29  -1 348.762 196.345   2
  29 -27  -1 367.117 221.923   2
  -2  29  -1 226.297 164.944   1
 -29   2   2 92.2917 148.198   3
 -27  -2   2 258.637 168.868   3
  27 -29   2-262.287 220.098   4
   2  27   2-28.3934 217.538   1
  29 -27   2 92.6957 206.441   4
  27 -29   2 61.8573 193.484   2
  -2  29   2-295.675 233.052   1
  29 -27   2 352.197 224.140   2
  26 -29  -5-391.228 220.179   4
  29 -26  -5-129.675 224.482   4
  26 -29  -5-62.0521 173.917   2
  29 -26  -5 363.484 234.272   2
  -3  29  -2 1122.84 217.067   1
 -26  -3  -2 1550.16 240.962   3
  26 -29  -2 1304.08 304.538   4
  29 -26  -2 1683.28 328.357   4
   3  26  -2 1202.95 218.764   1
  26 -29  -2 1150.34 244.444   2
  29 -26  -2 1553.95 286.441   2
 -29   3   1 20.1295 121.326   3
 -26  -3   1 420.111 169.040   3
  26 -29   1 111.620 218.116   4
   3  26   1-190.063 176.548   1
  29 -26   1-202.021 228.460   4
  26 -29   1 43.5276 185.591   2
  29 -26   1-127.336 195.597   2
  -3  29   1-105.439 191.495   1
 -29   3   4 1080.38 212.649   3
 -26  -3   4 694.403 210.159   3
   3  26   4 648.425 250.259   1
  26 -29   4 1017.14 313.657   4
  29 -26   4 1315.32 298.797   4
  26 -29   4 780.277 266.660   2
  -3  29   4 871.454 267.456   1
  29 -26   4 786.321 275.082   2
  25 -29  -3 156.927 228.015   4
  29 -25  -3 475.085 239.801   4
  -4  29  -3 281.699 149.843   1
  25 -29  -3 264.683 186.302   2
  29 -25  -3 149.517 198.877   2
   4  25  -3 240.179 142.777   1
 -25  -4   0 540.720 184.481   3
 -29   4   0 389.946 137.578   3
   4  25   0 713.892 206.548   1
  25 -29   0 748.698 321.577   4
  29 -25   0 415.912 233.425   4
  25 -29   0 902.944 239.114   2
  29 -25   0 713.100 234.649   2
  -4  29   0 773.950 203.551   1
 -29   4   3 455.724 158.105   3
 -25  -4   3 683.961 209.924   3
   4  25   3 74.3714 199.118   1
  25 -29   3 626.428 261.950   4
  29 -25   3 353.244 260.170   4
  25 -29   3 365.123 210.279   2
  29 -25   3 846.127 265.419   2
  -4  29   3 206.221 236.081   1
  -5  29  -4 358.039 162.046   1
  24 -29  -4 216.726 243.295   4
  29 -24  -4 288.892 227.586   4
  24 -29  -4 487.054 189.596   2
  29 -24  -4 331.579 231.835   2
  -5  29  -1-51.3739 160.406   1
 -24  -5  -1 62.9819 165.140   3
 -29   5  -1 27.0608 87.2552   3
  24 -29  -1-28.8250 238.101   4
   5  24  -1 147.100 170.207   1
  29 -24  -1-162.093 233.148   4
  24 -29  -1-82.6731 171.586   2
  29 -24  -1-126.105 188.466   2
 -29   5   2 429.545 148.029   3
 -24  -5   2 608.321 190.534   3
   5  24   2 1011.90 242.232   1
  24 -29   2 660.585 262.814   4
  29 -24   2 1091.08 278.373   4
  24 -29   2 629.570 227.445   2
  29 -24   2 406.191 209.600   2
  -5  29   2 659.807 237.265   1
 -24  -5   5 183.610 175.037   3
   5  24   5 411.278 247.528   1
  24 -29   5 216.804 221.469   4
  29 -24   5 225.212 221.577   4
  24 -29   5 499.216 233.421   2
  29 -24   5 212.604 239.534   2
  -5  29   5 495.449 262.755   1
 -29   5   5 212.661 154.856   3
  -6  29  -5 222.540 151.141   1
  23 -29  -5 267.941 209.611   4
  29 -23  -5-75.0169 230.581   4
  23 -29  -5 240.122 167.663   2
  29 -23  -5-162.144 213.913   2
 -23  -6  -2 1351.61 243.552   3
  23 -29  -2 1349.11 287.109   4
  -6  29  -2 1298.68 235.296   1
  29 -23  -2 1412.57 311.358   4
  23 -29  -2 1243.82 238.717   2
  29 -23  -2 1263.02 277.168   2
   6  23  -2 1608.82 228.722   1
 -29   6   1-83.2070 106.172   3
 -23  -6   1 23.3263 168.342   3
   6  23   1-108.093 170.608   1
  23 -29   1 95.8096 200.047   4
  29 -23   1-261.861 210.459   4
  23 -29   1-116.294 172.415   2
  29 -23   1-185.267 196.279   2
  -6  29   1-121.349 189.028   1
 -23  -6   4 851.229 228.374   3
   6  23   4 775.909 259.758   1
  23 -29   4 154.839 140.953   3
  23 -29   4 605.321 257.298   4
  29 -23   4 740.593 264.959   4
  23 -29   4 308.618 206.976   2
  29 -23   4 523.286 243.484   2
  -6  29   4 942.527 284.211   1
 -29   6   4 650.972 174.922   3
  29 -22  -6 1266.46 315.245   2
  22 -29  -6 768.461 243.996   4
  29 -22  -6 1000.82 293.238   4
  22 -29  -3 0.33919 218.912   4
  29 -22  -3-58.5803 216.440   4
   7  22  -3 290.478 135.553   1
  22 -29  -3 0.89596 144.453   2
  29 -22  -3 172.003 187.149   2
  -7  29  -3 223.451 167.946   1
  -7  29   0 735.256 215.212   1
 -22  -7   0 811.138 219.989   3
 -29   7   0 611.486 113.927   3
   7  22   0 564.430 193.373   1
  22 -29   0 486.621 234.862   4
  29 -22   0 849.934 270.966   4
  22 -29   0 532.932 185.138   2
  29 -22   0 886.850 257.538   2
 -29   7   3 526.126 147.792   3
 -22  -7   3 615.529 200.182   3
   7  22   3 714.646 238.283   1
  22 -29   3 405.519 158.924   3
  22 -29   3 435.506 225.828   4
  29 -22   3 353.055 241.296   4
  22 -29   3 377.210 194.429   2
  29 -22   3 309.467 213.191   2
  -7  29   3 227.777 200.378   1
 -22  -7   6 714.267 244.508   3
   7  22   6 685.138 251.234   1
  22 -29   6 794.479 282.288   4
  29 -22   6 411.396 231.675   4
  22 -29   6 585.419 248.777   2
  29 -22   6 1028.98 289.068   2
  -7  29   6 266.107 245.712   1
 -29   7   6 639.053 204.862   3
  21 -29  -4 85.1901 197.816   4
  29 -21  -4-67.6978 241.045   4
  -8  29  -4 192.368 159.251   1
   8  21  -4 399.051 124.015   1
  21 -29  -4 525.587 173.160   2
  29 -21  -4 279.608 225.095   2
 -21  -8  -1 161.959 190.632   3
   8  21  -1 223.815 145.533   1
  21 -29  -1-36.5380 193.804   4
  -8  29  -1 177.170 163.648   1
  29 -21  -1 107.038 220.414   4
  21 -29  -1 298.644 170.144   2
  29 -21  -1 337.542 215.504   2
 -29   8   2 320.847 120.774   3
   8  21   2 438.515 217.371   1
 -21  -8   2 389.546 186.467   3
  21 -29   2 121.807 218.561   4
  29 -21   2 410.085 223.300   4
  21 -29   2 635.075 215.490   2
  29 -21   2 657.013 233.656   2
  -8  29   2 232.236 188.345   1
 -21  -8   5 56.0058 180.809   3
   8  21   5 354.346 227.036   1
  21 -29   5 37.8873 155.055   3
  21 -29   5-240.168 228.503   4
  29 -21   5 282.023 220.230   4
  21 -29   5 108.170 208.986   2
  29 -21   5-207.009 241.852   2
  -8  29   5-129.559 208.505   1
 -29   8   5 281.378 164.011   3
  20 -29  -5-28.5932 186.547   4
  29 -20  -5-191.768 263.198   4
  20 -29  -5-116.613 147.167   2
  -9  29  -5 217.605 155.069   1
  29 -20  -5 330.048 227.127   2
   9  20  -2 815.106 176.996   1
 -20  -9  -2 886.240 233.521   3
  20 -29  -2 970.309 246.947   4
  29 -20  -2 1357.98 303.699   4
  20 -29  -2 639.084 186.674   2
  -9  29  -2 1018.70 223.668   1
  29 -20  -2 819.898 236.120   2
   9  20   1 56.4309 176.877   1
 -29   9   1 185.875 83.7418   3
  -9  29   1 650.280 218.174   1
 -20  -9   1 322.349 191.071   3
  20 -29   1 294.880 225.655   4
  29 -20   1 797.833 237.418   4
  20 -29   1 361.479 199.988   2
  29 -20   1 171.717 180.764   2
   9  20   4 658.688 230.762   1
 -20  -9   4 253.541 173.428   3
  20 -29   4 610.707 197.056   3
  20 -29   4 797.653 252.629   4
  20 -29   4 941.087 258.902   2
  29 -20   4 823.873 264.962   4
  29 -20   4 462.993 212.900   2
  -9  29   4 949.832 272.634   1
 -29   9   4 760.720 168.488   3
  29 -19  -6 786.972 291.233   2
  19 -29  -6 1373.73 264.393   4
  29 -19  -6 1251.27 321.342   4
 -10  29  -3 363.646 170.284   1
  10  19  -3 426.842 150.991   1
 -19 -10  -3 360.391 218.946   3
  19 -29  -3 589.979 237.617   4
  29 -19  -3 578.123 263.286   4
  19 -29  -3 371.165 148.022   2
  29 -19  -3 121.828 200.858   2
 -19 -10   0 2157.97 298.130   3
  19 -29   0 2361.42 341.948   4
 -10  29   0 1621.04 280.026   1
  19 -29   0 1916.12 255.496   2
  29 -19   0 1680.75 306.358   4
  10  19   0 3008.95 317.693   1
  29 -19   0 1427.42 296.171   2
 -19 -10   3 168.447 172.943   3
  19 -29   3 110.954 161.162   3
  19 -29   3 225.171 209.310   4
  19 -29   3-60.5144 173.087   2
  29 -19   3 293.085 204.470   4
  29 -19   3 448.955 221.102   2
  10  19   3-121.753 183.108   1
 -29  10   3 23.7113 107.704   3
 -10  29   3 155.847 193.902   1
  10  19   6 1417.14 332.358   1
 -19 -10   6 1113.91 272.860   3
  19 -29   6 1329.67 244.628   3
  19 -29   6 1609.05 317.122   4
  19 -29   6 1542.76 300.431   2
  29 -19   6 1255.90 290.117   4
  29 -19   6 1352.77 289.192   2
 -10  29   6 1362.72 316.562   1
 -29  10   6 1318.49 229.794   3
 -11  29  -4 3.07559 163.566   1
  11  18  -4 251.750 104.153   1
  18 -29  -4 148.643 194.016   4
  29 -18  -4 86.5998 235.320   4
  18 -29  -4 363.620 131.316   2
  29 -18  -4 383.169 223.655   2
 -18 -11  -1 14.7818 174.281   3
  18 -29  -1-290.493 218.364   4
  29 -18  -1-243.761 226.486   4
  18 -29  -1 98.8776 141.379   2
 -11  29  -1 397.673 202.949   1
  29 -18  -1 5.09290 198.520   2
  11  18  -1 146.285 166.591   1
 -18 -11   2-102.425 173.564   3
 -11  29   2 131.909 186.801   1
  18 -29   2 192.377 182.055   3
  18 -29   2-51.3640 207.663   4
  18 -29   2-71.6935 165.165   2
  29 -18   2 217.240 212.803   4
  29 -18   2 113.578 193.252   2
  11  18   2 133.052 198.974   1
 -29  11   2 125.633 90.3392   3
 -18 -11   5 103.788 200.918   3
  18 -29   5 276.007 193.153   3
  18 -29   5 412.592 247.695   4
  18 -29   5 99.3999 196.782   2
  29 -18   5 195.182 210.289   4
  29 -18   5-123.678 216.828   2
 -29  11   5 305.703 157.808   3
 -11  29   5 126.512 214.647   1
  11  18   5 272.144 219.280   1
  29 -17  -5 526.682 274.159   2
  17 -29  -5 445.393 211.123   4
  29 -17  -5 247.845 255.319   4
 -12  29  -5 274.600 166.554   1
 -12  29  -2 142.012 167.950   1
 -17 -12  -2 219.543 194.099   3
  17 -29  -2 390.509 238.210   4
  29 -17  -2 344.365 245.084   4
  17 -29  -2 198.927 142.886   2
  29 -17  -2 194.593 207.297   2
  12  17  -2 256.906 150.605   1
 -29  12   1 409.865 82.5668   3
 -17 -12   1 445.427 192.452   3
  17 -29   1 668.102 216.651   3
  17 -29   1-15.8261 191.094   4
 -12  29   1 201.819 198.374   1
  17 -29   1 367.590 184.850   2
  29 -17   1 536.803 245.171   4
  29 -17   1 800.526 243.111   2
  12  17   1 763.129 219.247   1
 -12  29   4 339.082 243.948   1
 -17 -12   4 213.145 196.845   3
  17 -29   4 104.136 166.648   3
  17 -29   4 620.046 245.359   4
  17 -29   4 56.4028 203.063   2
  29 -17   4-115.573 195.721   4
  29 -17   4 627.969 243.078   2
  12  17   4 406.163 221.703   1
 -29  12   4 214.477 132.461   3
  29 -16  -6 1980.05 380.540   2
  16 -29  -6 2144.85 294.664   4
  29 -16  -6 2122.12 386.081   4
 -16 -13  -3 456.470 216.034   3
  16 -29  -3 319.683 212.102   4
  29 -16  -3 424.945 243.159   4
 -13  29  -3 53.5265 168.303   1
  16 -29  -3 118.250 119.120   2
  29 -16  -3-59.3318 218.210   2
  13  16  -3 422.824 143.031   1
 -16 -13   0 2915.52 336.988   3
  16 -29   0 2680.01 342.801   4
  16 -29   0 2846.98 285.598   2
  29 -16   0 2730.00 374.429   4
  13  16   0 2691.86 302.570   1
  29 -16   0 2213.63 333.950   2
 -13  29   0 2595.65 309.367   1
 -16 -13   3-165.587 189.713   3
  16 -29   3-326.050 184.428   3
 -13  29   3 42.7914 194.386   1
  16 -29   3-182.448 210.233   4
  16 -29   3 216.989 193.513   2
  29 -16   3 221.978 242.342   4
  29 -16   3 265.572 209.631   2
  13  16   3 225.364 197.934   1
 -29  13   3-51.7594 103.211   3
 -16 -13   6 1631.23 310.622   3
 -13  29   6 1972.34 351.446   1
  16 -29   6 1384.53 257.444   3
  16 -29   6 1418.89 338.202   4
  16 -29   6 1655.22 297.123   2
  29 -16   6 1076.49 285.099   4
  29 -16   6 1051.76 281.435   2
 -29  13   6 1703.73 253.640   3
  13  16   6 1919.94 338.307   1
  14  15  -4 114.294 100.783   1
  15 -29  -4 203.256 194.295   4
  29 -15  -4 473.095 268.378   4
  15 -29  -4 85.6867 107.243   2
 -14  29  -4 240.040 179.769   1
 -14  29  -1 562.552 221.098   1
 -15 -14  -1 718.280 248.462   3
  15 -29  -1 576.343 217.842   4
  29 -15  -1 455.740 242.214   4
  15 -29  -1 466.389 166.091   2
  14  15  -1 512.990 180.991   1
  29 -15  -1 255.004 211.740   2
 -15 -14   2-16.3507 170.560   3
  15 -29   2 26.9830 167.008   3
  14  15   2 154.482 157.513   2
  15 -29   2 448.648 216.649   4
 -14  29   2 151.161 198.452   1
  15 -29   2 110.186 177.535   2
  29 -15   2 35.6274 202.517   4
  29 -15   2 18.4501 180.642   2
  14  15   2-91.7498 170.144   1
 -29  14   2 103.680 84.5995   3
 -15 -14   5 351.850 233.489   3
  15 -29   5 61.2241 191.358   3
 -14  29   5 623.974 248.686   1
  15 -29   5 542.347 250.585   4
  15 -29   5 231.307 201.359   2
  29 -15   5 36.9208 209.577   4
  29 -15   5 75.1096 184.895   2
  14  15   5 487.222 231.678   1
 -29  14   5 229.911 148.911   3
  29 -14  -5 404.241 286.181   2
  14 -29  -5-91.3279 177.422   4
  29 -14  -5 236.785 243.253   4
 -14 -15  -2 69.7095 190.741   3
  14 -29  -2-21.5420 186.435   4
 -15  29  -2 20.0045 182.245   1
  29 -14  -2 99.8570 218.879   4
  14 -29  -2-76.2835 117.118   2
  15  14  -2 36.4799 136.557   1
  29 -14  -2 167.885 213.509   2
 -29  15   1 207.466 55.1816   3
 -14 -15   1 261.621 182.642   3
  15  14   1 439.674 198.326   2
  14 -29   1 488.322 220.409   3
  14 -29   1 586.451 238.799   4
  14 -29   1 834.087 209.089   2
  29 -14   1 533.319 224.603   4
 -15  29   1 57.9300 197.507   1
  15  14   1 712.105 199.942   1
  29 -14   1 868.714 258.621   2
 -14 -15   4-421.967 205.750   3
  14 -29   4 74.6030 167.318   3
  15  14   4-206.801 163.791   2
 -15  29   4-224.520 206.303   1
  14 -29   4-147.018 225.556   4
  14 -29   4 335.743 216.536   2
  29 -14   4-124.123 206.321   4
  29 -14   4 60.6081 196.380   2
  15  14   4-106.165 212.272   1
 -29  15   4 35.9667 118.026   3
  29 -13  -6 1783.91 378.655   2
  13 -29  -6 1625.58 265.987   4
  29 -13  -6 1813.79 348.139   4
 -13 -16  -3 1.01458 200.210   3
 -16  29  -3 296.428 217.639   1
  13 -29  -3-263.020 186.683   4
  29 -13  -3 623.569 292.592   4
  13 -29  -3-24.7733 102.618   2
  16  13  -3-121.149 121.645   1
  29 -13  -3 599.770 262.257   2
 -13 -16   0 2408.86 333.393   3
  13 -29   0 2134.72 305.521   3
  13 -29   0 2805.97 376.010   4
  13 -29   0 3072.06 293.218   2
  16  13   0 2542.83 308.700   1
  29 -13   0 2436.51 355.262   4
  29 -13   0 2799.61 361.353   2
 -16  29   0 2482.53 323.584   1
  16  13   0 2445.25 322.572   2
 -13 -16   3 421.219 205.264   3
  16  13   3 342.661 183.900   2
  13 -29   3 297.262 185.754   3
  13 -29   3-10.5047 210.050   4
  13 -29   3 45.2867 192.210   2
 -16  29   3 237.675 206.413   1
  29 -13   3 447.506 248.934   4
  16  13   3 32.3675 193.488   1
  29 -13   3 559.341 221.456   2
 -29  16   3 78.5664 106.481   3
 -13 -16   6 1989.94 328.464   3
  13 -29   6 2129.27 343.337   2
 -16  29   6 1895.24 364.905   1
  13 -29   6 2234.49 373.096   4
  29 -13   6 1803.06 324.986   4
  29 -13   6 2113.33 324.697   2
 -29  16   6 2053.62 279.485   3
  16  13   6 1889.81 343.548   1
  13 -29   6 2259.06 336.404   3
  29 -12  -4 334.975 274.524   2
 -17  29  -4 403.169 228.661   1
  12 -29  -4 297.063 207.000   4
  29 -12  -4 658.279 279.431   4
  17  12  -4 235.451 127.844   1
 -12 -17  -1 636.316 222.291   3
  17  12  -1 245.427 215.823   2
  12 -29  -1 345.702 206.031   4
 -17  29  -1 221.299 188.974   1
  12 -29  -1 700.531 169.182   2
  29 -12  -1 713.894 258.784   4
  17  12  -1 258.780 165.445   1
  29 -12  -1 533.873 234.353   2
 -12 -17   2 410.428 205.406   3
  17  12   2 211.211 206.968   2
  12 -29   2 175.713 198.750   3
  12 -29   2 241.634 246.404   4
  12 -29   2 392.141 190.093   2
  29 -12   2 338.694 248.068   4
  17  12   2 278.083 202.548   1
 -17  29   2 283.729 208.108   1
  29 -12   2 261.971 193.591   2
 -29  17   2 123.287 77.4451   3
 -12 -17   5 190.092 213.167   3
  17  12   5 343.164 166.710   2
  12 -29   5-28.1746 189.085   3
  12 -29   5 390.176 237.638   4
  12 -29   5 243.142 201.423   2
 -17  29   5 170.769 215.636   1
  29 -12   5 10.3388 196.807   4
  29 -12   5 202.548 194.056   2
  17  12   5 589.442 238.311   1
 -29  17   5 179.676 145.984   3
  29 -11  -5 188.017 246.908   2
  11 -29  -5 105.088 192.733   4
  29 -11  -5-138.598 266.821   4
  18  11  -2 97.3550 238.322   2
 -11 -18  -2 179.397 197.164   3
  11 -29  -2-13.6004 193.985   4
  11 -29  -2 81.3574 108.683   2
  29 -11  -2-247.197 242.803   4
  18  11  -2-125.097 147.428   1
  29 -11  -2 297.172 227.386   2
 -18  29  -2 64.6794 175.447   1
  18  11   1 290.349 203.402   2
 -11 -18   1 32.7935 182.348   3
  11 -29   1 117.097 184.882   3
  11 -29   1-473.511 228.321   4
  11 -29   1 141.236 163.143   2
  29 -11   1 197.360 212.969   4
  18  11   1-69.4492 169.713   1
  29 -11   1-44.4635 203.324   2
 -29  18   1 76.2429 46.9214   3
 -18  29   1-169.579 193.652   1
 -11 -18   4 754.734 255.471   3
  18  11   4 156.013 164.652   2
  11 -29   4 366.559 214.756   3
  11 -29   4 120.449 243.869   4
  11 -29   4 66.1681 198.020   2
  29 -11   4 65.7165 203.104   4
 -18  29   4-70.3436 212.085   1
  18  11   4 66.5709 214.234   1
  29 -11   4 241.067 205.658   2
 -29  18   4 3.98953 117.802   3
  29 -10  -6 1467.37 357.797   2
  10 -29  -6 1516.05 254.438   4
  29 -10  -6 1338.04 352.962   4
 -19  29  -3-353.914 242.244   1
  19  10  -3 145.947 239.904   2
 -10 -19  -3 377.019 242.166   3
  10 -29  -3-175.635 186.103   4
  29 -10  -3 111.937 231.373   4
  19  10  -3 138.566 132.444   1
  10 -29  -3 93.2261 85.0172   2
  29 -10  -3 53.9873 244.522   2
 -10 -19   0 2259.69 319.990   3
  10 -29   0 2148.17 331.656   3
  19  10   0 1795.48 320.367   2
  10 -29   0 2113.45 330.274   4
  10 -29   0 2152.38 256.374   2
  19  10   0 2368.16 290.179   1
  29 -10   0 1598.34 316.533   4
  19  10   0 2312.57 344.199   4
  29 -10   0 1298.31 285.121   2
 -19  29   0 2383.50 342.916   1
  19  10   3 468.321 197.668   2
 -10 -19   3 300.360 218.477   3
  10 -29   3 1024.11 274.213   3
  10 -29   3-189.040 215.819   4
  10 -29   3 223.862 199.982   2
  29 -10   3 560.168 232.509   4
  19  10   3 571.290 232.835   1
  29 -10   3 202.998 188.870   2
 -29  19   3 512.547 139.147   3
 -19  29   3 272.175 227.612   1
 -10 -19   6 1064.26 293.853   3
  10 -29   6 1507.93 289.324   3
  10 -29   6 1994.30 341.294   2
  10 -29   6 1868.00 362.022   4
 -29  19   6 1600.65 334.763   1
  29 -10   6 1107.52 281.618   4
 -19  29   6 1675.24 340.204   1
  19  10   6 1842.57 342.394   1
  29 -10   6 1429.52 313.976   2
 -29  19   6 1259.11 242.260   3
  29  -9  -4 596.374 316.279   2
  20   9  -4 545.416 306.509   2
   9 -29  -4 691.599 248.070   4
  20   9  -4 706.595 170.114   1
  29  -9  -4 381.818 269.737   4
  20   9  -4 685.846 280.813   4
  20   9  -1 151.753 211.186   2
  -9 -20  -1 644.831 244.848   3
   9 -29  -1 309.377 231.630   3
   9 -29  -1 414.678 233.733   4
   9 -29  -1 107.627 135.713   2
  20   9  -1 300.159 180.410   1
  29  -9  -1 170.888 224.500   4
  20   9  -1 535.580 262.812   4
 -20  29  -1 443.699 217.061   1
  29  -9  -1 326.866 229.106   2
 -20  29   2 1325.38 289.232   1
  20   9   2 511.020 215.833   2
  -9 -20   2 1123.10 277.300   3
   9 -29   2 446.061 205.964   3
   9 -29   2 878.405 259.013   4
   9 -29   2 1075.98 225.322   2
  29  -9   2 890.031 269.786   4
  20   9   2 743.262 243.800   1
  20   9   2 646.516 253.118   4
  29  -9   2 575.857 235.429   2
 -29  20   2 589.846 115.068   3
  20   9   5 36.3390 178.494   2
  -9 -20   5-98.0672 215.006   3
   9 -29   5 584.301 236.428   3
 -29  20   5 635.751 273.401   1
  29  -9   5 579.780 256.501   4
  20   9   5 274.017 244.743   1
  29  -9   5 229.244 229.292   2
 -20  29   5-352.314 230.944   1
 -29  20   5 170.640 143.745   3
  29  -8  -5-490.822 299.489   2
  21   8  -5 259.708 288.368   2
   8 -29  -5 364.971 202.912   4
  21   8  -5 65.7376 118.642   1
  29  -8  -5 19.4723 253.791   4
  21   8  -5 57.1074 261.328   4
  21   8  -2 381.558 259.965   2
  -8 -21  -2 214.418 222.857   3
   8 -29  -2 231.961 206.416   4
   8 -29  -2 353.217 122.073   2
  21   8  -2 516.295 188.745   1
  29  -8  -2 203.938 262.058   4
  21   8  -2 327.128 270.074   4
 -21  29  -2 474.750 250.665   1
  29  -8  -2 652.008 262.212   2
  21   8   1 464.499 230.104   2
  -8 -21   1 524.917 223.417   3
   8 -29   1 107.126 215.589   3
   8 -29   1 242.811 153.065   2
 -21  29   1 18.3964 200.957   1
  21   8   1 156.132 186.868   1
  29  -8   1-74.9135 209.250   4
  21   8   1-266.775 221.144   4
 -29  21   1 61.4768 55.7735   3
  29  -8   1-5.16781 222.454   2
  21   8   4 820.731 235.703   2
  -8 -21   4 91.8204 214.619   3
   8 -29   4 356.096 211.141   3
 -29  21   4 423.810 266.919   1
  29  -8   4 303.950 234.793   4
  21   8   4 188.694 229.999   1
  21   8   4 72.5998 186.925   4
  29  -8   4 79.5716 197.862   2
 -29  21   4 230.729 135.876   3
 -21  29   4 198.516 223.989   1
  29  -7  -6 863.881 344.241   2
   7 -29  -6 915.677 224.883   4
  29  -7  -6 703.865 303.461   4
  29  -7  -3 464.340 273.578   2
  22   7  -3 288.571 251.394   2
  -7 -22  -3 222.784 220.591   3
   7 -29  -3 274.885 222.278   4
  22   7  -3-0.89213 151.193   1
  29  -7  -3 145.605 249.184   4
  22   7  -3 754.491 282.162   4
 -22  29  -3 120.716 214.730   1
  22   7   0 450.685 211.809   2
  -7 -22   0 802.148 252.355   3
   7 -29   0 672.766 256.799   3
   7 -29   0 1280.36 212.836   2
  22   7   0 830.849 221.251   1
  29  -7   0 789.048 271.543   4
  22   7   0 600.843 271.651   4
 -22  29   0 808.334 292.332   1
  29  -7   0 975.536 282.078   2
  22   7   3 42.4217 198.380   2
  -7 -22   3 714.626 243.703   3
 -22  29   3 197.957 239.864   1
   7 -29   3 580.124 241.333   3
  22   7   3 292.371 198.960   1
  29  -7   3 146.013 210.755   4
  22   7   3 482.170 240.582   4
 -29  22   3 112.944 227.063   1
 -29  22   3 127.935 124.569   3
  29  -7   3-47.1650 212.123   2
  -7 -22   6 527.446 255.406   3
   7 -29   6 467.078 226.097   3
  29  -7   6 806.172 264.502   4
  22   7   6 1148.78 307.281   1
  29  -7   6 328.113 208.020   2
 -29  22   6 612.251 219.658   3
 -29  22   6 813.859 284.353   1
 -22  29   6 1057.73 307.732   1
  22   7   6 83.8285 177.668   2
  29  -6  -4 1086.01 338.675   2
  23   6  -4 328.732 263.298   2
   6 -29  -4 550.483 224.170   4
  23   6  -4 466.474 157.793   1
  29  -6  -4 716.744 324.122   4
  23   6  -4 950.190 331.249   4
  23   6  -1 174.862 223.477   2
  -6 -23  -1 147.347 215.266   3
   6 -29  -1 175.530 206.273   3
   6 -29  -1 151.099 137.303   2
  23   6  -1 477.000 199.456   1
  29  -6  -1-86.2477 237.222   4
 -23  29  -1 106.987 217.093   1
  23   6  -1 391.554 254.460   4
  29  -6  -1 206.344 210.952   2
  23   6   2 1396.21 298.663   2
  -6 -23   2 862.505 261.118   3
   6 -29   2 1809.68 322.611   3
 -23  29   2 1647.22 321.219   1
  23   6   2 1898.63 318.553   1
  29  -6   2 1658.68 342.909   4
 -29  23   2 1233.48 306.080   1
  23   6   2 1341.67 313.684   4
 -29  23   2 1412.64 161.851   3
  29  -6   2 1454.10 297.878   2
 -23  29   5 155.387 237.757   1
  -6 -23   5-66.9578 208.777   3
   6 -29   5 512.686 240.853   3
  23   6   5 681.143 255.855   1
  29  -6   5 113.750 218.404   4
  23   6   5 453.884 229.035   4
 -29  23   5 278.930 174.730   3
  29  -6   5 298.824 250.909   2
 -29  23   5 230.721 244.728   1
  23   6   5 149.560 194.448   2
  29  -5  -5 490.024 290.616   2
  24   5  -5-20.0040 275.379   2
   5 -29  -5-281.416 215.945   4
  24   5  -5 164.201 144.268   1
  29  -5  -5 386.573 320.146   4
  24   5  -5 82.7133 261.694   4
  29  -5  -2 508.493 285.936   2
  24   5  -2 757.850 300.718   2
  -5 -24  -2 693.110 267.329   3
   5 -29  -2 409.407 228.154   4
  24   5  -2 671.883 203.855   1
   5 -29  -2 520.818 132.906   2
 -24  29  -2 753.087 279.681   1
  29  -5  -2 867.860 291.511   4
  24   5  -2 879.853 316.443   4
  24   5   1 239.391 228.185   2
  -5 -24   1-489.951 238.210   3
   5 -29   1-161.397 237.990   3
  24   5   1 279.246 199.807   1
  29  -5   1-44.1313 234.579   4
  24   5   1 44.2371 242.835   4
 -29  24   1 63.5795 78.9753   3
 -24  29   1 331.789 228.745   1
  29  -5   1 192.946 213.831   2
  -5 -24   4 234.748 227.590   3
   5 -29   4 594.923 253.487   3
 -24  29   4-165.765 238.667   1
  24   5   4 262.793 246.863   1
  29  -5   4 819.367 280.468   4
  24   5   4 594.311 264.064   4
 -29  24   4 521.571 162.993   3
  29  -5   4 364.866 221.649   2
 -29  24   4 709.146 280.805   1
  24   5   4 556.738 243.315   2
  29  -4  -3 642.546 269.893   2
  25   4  -3 250.594 278.557   2
   4 -29  -3 646.578 264.579   4
  29  -4  -3 407.672 303.167   4
  25   4  -3 898.853 330.214   4
  25   4   0 656.375 247.198   2
  -4 -25   0 802.633 280.581   3
   4 -29   0 851.100 279.075   3
   4 -29   0 1077.77 211.001   2
  25   4   0 766.912 224.074   1
 -25  29   0 333.960 258.988   1
  29  -4   0 247.589 238.667   4
  25   4   0 623.329 267.889   4
  29  -4   0 1077.63 294.762   2
  25   4   3 210.198 209.654   2
  -4 -25   3 63.7145 212.819   3
   4 -29   3 148.911 208.102   3
 -29  25   3 504.755 266.076   1
  25   4   3 519.535 241.663   1
 -25  29   3 93.3857 233.166   1
  29  -4   3 432.988 227.885   4
  25   4   3 681.839 279.540   4
 -29  25   3 525.598 163.780   3
  29  -4   3 586.524 259.868   2
  29  -3  -4 1139.24 337.145   2
  26   3  -4 889.252 326.737   2
   3 -29  -4 962.008 274.677   4
  29  -3  -4 717.008 306.591   4
  26   3  -4 989.234 328.406   4
  29  -3  -1 128.310 227.655   2
  26   3  -1-108.680 226.452   2
  -3 -26  -1-88.0237 237.827   3
   3 -29  -1 122.959 219.778   3
   3 -29  -1 135.504 143.207   2
  29  -3  -1 79.9605 239.776   4
  26   3  -1-49.2884 240.179   4
 -26  29  -1-24.0743 224.418   1
  26   3   2 1204.13 299.211   2
  -3 -26   2 1574.65 324.115   3
   3 -29   2 1490.10 308.782   3
  26   3   2 1487.44 304.811   1
 -29  26   2 1257.64 330.610   1
  29  -3   2 1771.56 343.696   4
  26   3   2 1599.12 336.630   4
 -29  26   2 1320.47 177.688   3
  29  -3   2 1002.96 278.221   2
 -26  29   2 1313.17 317.437   1
  -3 -26   5 197.139 253.701   3
   3 -29   5 130.652 224.135   3
 -29  26   5 210.223 275.929   1
  29  -3   5 37.9654 235.413   1
 -26  29   5 27.9621 244.433   1
  26   3   5 98.6910 226.644   1
  29  -3   5-14.1515 236.241   4
  26   3   5-210.968 224.602   4
 -29  26   5 331.371 198.882   3
  29  -3   5-424.224 242.167   2
  26   3   5 185.363 201.769   2
  29  -2  -2 258.687 271.350   2
  27   2  -2-191.914 255.600   2
  -2 -27  -2 156.630 248.495   3
   2 -29  -2-193.777 211.240   3
   2 -29  -2 150.755 116.897   2
  29  -2  -2 239.423 261.167   4
  27   2  -2 363.592 280.718   4
  27   2   1 11.8915 251.709   2
  -2 -27   1 711.068 277.187   3
   2 -29   1 275.294 243.885   3
 -29  27   1 321.459 245.143   1
  27   2   1 335.405 214.669   1
  29  -2   1 280.362 236.146   4
  27   2   1-59.0513 264.529   4
 -27  29   1 156.160 229.489   1
  29  -2   1 259.773 248.052   2
  -2 -27   4 533.082 245.482   3
   2 -29   4 7.76136 228.246   3
 -29  27   4 310.398 253.192   1
  27   2   4-438.196 241.475   1
  29  -2   4-90.7258 229.851   4
  27   2   4 33.6768 215.378   4
 -29  27   4 50.4903 156.801   3
 -27  29   4-12.7816 245.894   1
  29  -2   4-246.383 213.655   2
  27   2   4 74.7297 210.628   2
  29  -1  -3 425.025 284.335   2
  28   1  -3 445.184 299.342   2
  29  -1  -3 891.146 333.830   4
  28   1  -3 699.542 335.637   4
  29  -1   0 62.3555 257.561   2
  28   1   0-75.8010 277.368   2
 -29  28   0 146.134 275.222   1
  -1 -28   0 36.7007 233.574   3
   1 -29   0 500.120 275.439   3
  29  -1   0 499.717 265.983   4
  28   1   0 82.9738 269.010   4
 -28  29   0 567.609 288.290   1
  -1 -28   3 170.201 226.261   3
   1 -29   3 434.631 218.233   3
 -28  29   3 633.556 252.021   1
  28   1   3 84.2439 215.416   1
 -29  28   3 572.152 302.613   1
  29  -1   3 949.613 294.038   4
  28   1   3 196.632 228.132   4
  29  -1   3 743.946 278.343   2
  28   1   3 691.780 281.790   2
  29   0  -1 37.1469 247.178   2
   0 -29  -1-87.6515 223.222   3
  29   0  -1-739.743 339.176   4
   0 -29   2 1723.33 338.958   3
  29   0   2 1238.50 354.308   4
 -29  29   2 912.657 317.919   1
  29   0   2 1362.79 339.839   2
 -30   0   0 101.443 160.416   3
  30 -30   0-58.6775 252.609   4
  30 -30   0 467.917 236.742   2
   0  30   0 178.165 215.192   1
 -29  -1  -1 108.412 155.629   3
  29 -30  -1 527.639 264.270   4
  30 -29  -1 208.336 242.824   4
  29 -30  -1 303.997 216.552   2
  30 -29  -1 417.975 239.660   2
   1  29  -1 243.400 186.844   1
  -1  30  -1 163.014 178.549   1
 -30   1   2 116.345 152.135   3
 -29  -1   2-102.171 157.749   3
  29 -30   2 55.3561 251.502   4
  30 -29   2 459.837 266.202   4
   1  29   2 74.2333 195.974   1
  29 -30   2 176.495 203.173   2
  -1  30   2 151.984 238.888   1
  30 -29   2-43.8081 209.133   2
  -2  30  -2 187.329 164.109   1
  28 -30  -2 543.923 267.921   4
  30 -28  -2 871.931 303.881   4
  28 -30  -2 203.426 196.774   2
  30 -28  -2-48.4050 211.579   2
   2  28  -2 253.281 173.848   1
 -30   2   1 668.018 176.525   3
 -28  -2   1 1053.98 234.237   3
  28 -30   1 479.368 253.334   4
  30 -28   1 884.383 280.385   4
   2  28   1 914.572 251.334   1
  28 -30   1 744.767 235.867   2
  30 -28   1 703.548 217.564   2
  -2  30   1 793.048 244.992   1
  27 -30  -3 98.2125 230.451   4
  30 -27  -3-102.957 257.152   4
  -3  30  -3 81.9049 152.708   1
  27 -30  -3 231.009 199.729   2
  30 -27  -3-13.4087 190.411   2
   3  27  -3 151.498 153.571   1
 -27  -3   0 26.7156 171.326   3
 -30   3   0 200.160 137.957   3
  27 -30   0 93.6148 255.335   4
  30 -27   0-22.4943 216.723   4
   3  27   0 457.858 211.207   1
  27 -30   0 200.948 214.635   2
  30 -27   0 237.538 197.072   2
  -3  30   0 944.490 252.429   1
 -30   3   3 257.550 152.917   3
 -27  -3   3 84.1075 185.108   3
   3  27   3 107.115 200.948   1
  27 -30   3 368.676 236.621   4
  30 -27   3 329.099 236.033   4
  27 -30   3 414.463 227.335   2
  30 -27   3 187.418 225.799   2
  -3  30   3 107.615 222.676   1
  -4  30  -4 260.648 171.006   1
  26 -30  -4 39.2527 223.472   4
  30 -26  -4 307.297 232.537   4
  26 -30  -4-138.264 188.820   2
  30 -26  -4-128.205 206.431   2
  -4  30  -1 706.909 207.789   1
 -26  -4  -1 428.873 200.227   3
  26 -30  -1 206.919 247.303   4
  30 -26  -1 458.350 260.956   4
   4  26  -1 279.430 182.774   1
  26 -30  -1-7.05603 183.588   2
  30 -26  -1-66.0054 198.427   2
 -30   4   2 291.666 139.924   3
 -26  -4   2 5.70927 174.400   3
   4  26   2 259.375 203.548   1
  26 -30   2 124.088 233.383   4
  30 -26   2 368.450 260.323   4
  26 -30   2 70.4472 211.201   2
  30 -26   2 27.8960 198.848   2
  -4  30   2 828.384 261.728   1
 -25  -5  -2 922.151 222.895   3
  -5  30  -2 494.782 194.854   1
  25 -30  -2 808.442 269.523   4
  30 -25  -2 920.383 290.819   4
   5  25  -2 803.290 190.550   1
  25 -30  -2 853.668 228.973   2
  30 -25  -2 472.178 222.195   2
 -30   5   1 1049.43 172.334   3
 -25  -5   1 1126.83 225.290   3
   5  25   1 1477.27 277.356   1
  25 -30   1 1298.66 322.259   4
  30 -25   1 1457.63 310.945   4
  25 -30   1 1503.75 291.184   2
  30 -25   1 963.447 261.405   2
  -5  30   1 1031.86 251.421   1
 -30   5   4 479.502 177.227   3
 -25  -5   4 367.431 206.630   3
   5  25   4 435.778 237.604   1
  25 -30   4 520.040 255.237   4
  30 -25   4 438.897 254.925   4
  25 -30   4-81.4438 216.235   2
  30 -25   4 324.077 240.604   2
  -5  30   4 15.9783 239.524   1
  24 -30  -3 488.093 261.416   4
  30 -24  -3 321.757 245.335   4
   6  24  -3 179.471 131.465   1
  24 -30  -3 544.277 190.642   2
  -6  30  -3 133.175 157.173   1
  30 -24  -3 335.950 209.013   2
  -6  30   0 47.3845 172.824   1
 -24  -6   0 131.256 177.715   3
 -30   6   0 409.308 123.210   3
   6  24   0 556.902 184.483   1
  24 -30   0-0.74729 208.992   4
  30 -24   0 446.799 272.111   4
  24 -30   0 768.363 226.778   2
  30 -24   0-40.7475 188.338   2
 -30   6   3 617.632 160.547   3
 -24  -6   3 306.635 186.738   3
   6  24   3 400.157 218.834   1
  24 -30   3 586.919 251.978   4
  30 -24   3 479.824 261.550   4
  24 -30   3 250.890 227.143   2
  30 -24   3 471.786 228.731   2
  -6  30   3 645.803 245.617   1
  -7  30  -4 269.011 167.003   1
  23 -30  -4 8.10170 217.776   4
  30 -23  -4-162.883 275.256   4
  23 -30  -4 170.986 162.918   2
  30 -23  -4 275.390 214.718   2
 -23  -7  -1-219.123 197.494   3
   7  23  -1-13.1991 155.598   1
  -7  30  -1 51.8326 173.755   1
  23 -30  -1-141.972 225.626   4
  30 -23  -1 280.601 230.687   4
  23 -30  -1 37.0219 177.442   2
  30 -23  -1-71.3159 207.489   2
 -30   7   2 139.992 115.786   3
 -23  -7   2-137.032 179.919   3
   7  23   2-88.0801 190.349   1
  23 -30   2 417.662 236.164   4
  30 -23   2-113.453 210.648   4
  23 -30   2 69.9166 185.317   2
  30 -23   2-255.213 212.497   2
  -7  30   2-48.3176 214.880   1
 -23  -7   5-57.6075 178.593   3
   7  23   5 540.978 259.753   1
  23 -30   5 110.821 218.329   4
  30 -23   5-87.2698 223.401   4
  23 -30   5 468.204 238.513   2
  30 -23   5-76.0153 238.377   2
  -7  30   5-206.546 224.739   1
 -30   7   5-38.2820 143.495   3
  22 -30  -5 34.2902 203.984   4
  30 -22  -5 556.992 249.808   4
  -8  30  -5 376.638 179.630   1
  22 -30  -5 252.131 163.428   2
  30 -22  -5-52.4054 234.982   2
 -22  -8  -2 469.081 213.181   3
   8  22  -2 586.870 165.305   1
  22 -30  -2 483.709 246.967   4
  30 -22  -2 781.642 305.740   4
  22 -30  -2 493.575 185.835   2
  -8  30  -2 543.308 191.141   1
  30 -22  -2 589.801 247.407   2
  -8  30   1 627.357 227.654   1
 -30   8   1 647.521 130.325   3
   8  22   1 561.323 216.738   1
 -22  -8   1 524.030 208.188   3
  22 -30   1 1008.49 276.912   4
  30 -22   1 509.510 240.126   4
  22 -30   1 745.040 225.417   2
  30 -22   1 1051.20 281.992   2
 -22  -8   4 141.271 205.614   3
   8  22   4 426.305 220.556   1
  22 -30   4 633.376 191.524   3
  22 -30   4 666.798 253.850   4
  30 -22   4 638.473 239.385   4
  22 -30   4 1002.20 269.667   2
  30 -22   4 604.553 249.833   2
  -8  30   4 413.457 268.056   1
 -30   8   4 571.811 160.994   3
  -9  30  -3 936.406 212.725   1
   9  21  -3 1124.38 180.409   1
  21 -30  -3 1115.05 299.351   4
  30 -21  -3 1172.00 331.550   4
  21 -30  -3 796.929 191.750   2
  30 -21  -3 222.224 209.857   2
   9  21   0 500.605 204.225   1
 -21  -9   0 667.705 226.946   3
  -9  30   0-108.548 176.738   1
  21 -30   0 477.078 253.492   4
  30 -21   0 433.332 242.887   4
  21 -30   0 293.229 181.366   2
  30 -21   0 374.563 229.883   2
   9  21   3 1449.78 287.010   1
 -21  -9   3 1043.33 240.374   3
  21 -30   3 898.534 207.390   3
  21 -30   3 1232.11 295.796   4
  30 -21   3 1357.60 305.747   4
  21 -30   3 1060.13 258.538   2
  30 -21   3 806.691 262.179   2
  -9  30   3 839.714 249.405   1
 -30   9   3 1097.48 167.320   3
  20 -30  -4 81.6323 204.720   4
  10  20  -4 130.192 103.263   1
  30 -20  -4-127.762 259.992   4
  20 -30  -4 231.408 141.415   2
 -10  30  -4 96.4958 166.435   1
  30 -20  -4-192.943 236.096   2
  10  20  -1 173.531 155.957   1
 -20 -10  -1 296.108 206.439   3
  20 -30  -1-32.1194 210.863   4
  30 -20  -1 160.673 216.312   4
  20 -30  -1 220.181 172.420   2
 -10  30  -1 354.935 187.884   1
  30 -20  -1 356.470 208.937   2
  10  20   2 227.805 187.186   1
 -30  10   2 52.4133 96.4324   3
 -10  30   2-90.8891 197.823   1
 -20 -10   2 357.611 197.627   3
  20 -30   2 218.827 175.523   3
  20 -30   2-49.4538 207.119   4
  30 -20   2 480.931 234.264   4
  20 -30   2-57.5745 173.056   2
  30 -20   2-270.552 199.166   2
  10  20   5-338.821 240.533   1
 -20 -10   5 109.434 201.199   3
  20 -30   5 139.125 179.468   3
  20 -30   5 106.910 217.533   4
  20 -30   5 178.359 198.592   2
  30 -20   5 22.5736 225.289   4
  30 -20   5-186.398 207.217   2
 -10  30   5-67.4476 250.976   1
 -30  10   5 46.0613 140.428   3
  30 -19  -5 609.455 278.395   2
  19 -30  -5 102.275 197.733   4
  30 -19  -5 174.369 270.645   4
 -11  30  -5 36.6790 168.473   1
  11  19  -2 328.989 152.071   1
 -19 -11  -2 114.641 190.806   3
  19 -30  -2 267.842 215.630   4
  30 -19  -2 682.771 304.720   4
  19 -30  -2 188.134 139.479   2
  30 -19  -2 521.571 207.793   2
 -11  30  -2-149.625 178.104   1
 -30  11   1 344.873 90.6424   3
 -19 -11   1 770.490 236.590   3
 -11  30   1 390.194 209.439   1
  19 -30   1 550.922 253.727   4
  30 -19   1 713.203 268.709   4
  19 -30   1 753.669 204.351   2
  30 -19   1 975.153 269.975   2
  11  19   1 348.485 181.544   1
 -11  30   4 206.997 233.549   1
 -19 -11   4 722.149 243.002   3
  19 -30   4 455.826 200.865   3
  19 -30   4 360.240 260.341   4
  19 -30   4 162.522 188.901   2
  30 -19   4 509.493 253.617   4
  30 -19   4 614.951 243.377   2
 -30  11   4 296.478 129.942   3
  11  19   4 308.844 213.510   1
  30 -18  -6 200.953 261.362   2
  18 -30  -6 628.108 224.552   4
  30 -18  -6 422.767 240.895   4
  12  18  -3 839.574 173.254   1
 -18 -12  -3 1354.30 285.430   3
  18 -30  -3 654.088 203.698   4
 -12  30  -3 918.684 214.194   1
  30 -18  -3 1608.93 332.338   4
  18 -30  -3 943.273 176.953   2
  30 -18  -3 521.495 240.488   2
 -18 -12   0 558.255 224.273   3
  18 -30   0 326.651 255.747   4
  30 -18   0 676.203 259.324   4
  18 -30   0 720.299 199.320   2
 -12  30   0 296.611 199.019   1
  30 -18   0-47.4694 220.564   2
  12  18   0 343.038 190.512   1
  18 -30   3 1956.44 275.030   3
 -18 -12   3 1793.59 290.945   3
 -12  30   3 1640.85 319.754   1
  18 -30   3 2218.88 316.054   2
  18 -30   3 1852.96 324.411   4
  30 -18   3 1729.79 311.074   4
  12  18   3 2276.16 315.718   1
  30 -18   3 2033.61 320.825   2
 -30  12   3 1670.67 187.616   3
 -12  30   6 116.946 210.129   1
 -18 -12   6 523.289 230.755   3
  18 -30   6 500.064 212.527   3
  18 -30   6 553.734 282.386   4
  18 -30   6 489.613 236.344   2
  30 -18   6 465.928 257.869   4
  30 -18   6 139.450 232.239   2
 -30  12   6 247.090 178.069   3
  12  18   6 622.346 267.860   1
  13  17  -4 247.558 120.318   1
  17 -30  -4 146.837 200.044   4
 -13  30  -4-252.066 186.440   1
  30 -17  -4 197.882 246.678   4
  17 -30  -4 170.206 126.986   2
  30 -17  -4 60.2600 221.049   2
 -17 -13  -1-256.478 238.477   3
  17 -30  -1-220.573 221.743   4
  30 -17  -1-34.2539 198.601   4
  17 -30  -1 23.1162 152.991   2
  30 -17  -1 381.315 221.139   2
 -13  30  -1 47.6625 180.865   1
  13  17  -1 14.0148 153.340   1
 -17 -13   2-308.405 200.894   3
  17 -30   2 49.7669 174.317   3
 -13  30   2 278.685 221.587   1
  17 -30   2-147.119 201.847   4
  17 -30   2-129.455 175.132   2
  30 -17   2-108.253 206.149   4
  30 -17   2 333.657 224.310   2
  13  17   2-20.2647 180.099   1
 -30  13   2 124.034 88.4341   3
 -17 -13   5 187.626 208.114   3
 -13  30   5 17.4554 247.937   1
  17 -30   5 104.449 179.154   3
  17 -30   5 18.1885 214.429   4
  17 -30   5-262.787 218.620   2
  30 -17   5-185.180 213.968   4
  30 -17   5-10.9884 208.147   2
  13  17   5-0.74239 219.626   1
 -30  13   5 239.584 154.201   3
  30 -16  -5-159.343 225.552   2
  16 -30  -5 132.550 211.021   4
  30 -16  -5 316.730 238.210   4
 -16 -14  -2 58.4268 222.744   3
 -14  30  -2-104.236 189.020   1
  16 -30  -2 174.499 192.727   4
  30 -16  -2 277.611 235.623   4
  16 -30  -2 124.495 130.224   2
  30 -16  -2 173.948 235.871   2
  14  16  -2 34.5445 138.215   1
 -30  14   1 132.970 54.7516   3
 -16 -14   1 600.687 232.779   3
  16 -30   1 291.787 185.160   3
  16 -30   1 140.407 223.788   4
  16 -30   1-51.8637 154.918   2
  30 -16   1-70.1903 223.793   4
 -14  30   1-50.6474 197.680   1
  30 -16   1 145.275 200.252   2
  14  16   1 136.141 161.453   1
 -16 -14   4 284.889 213.070   3
  16 -30   4 69.1594 207.627   3
 -14  30   4 313.424 254.537   1
  16 -30   4 95.6974 208.515   4
  16 -30   4-250.071 207.458   2
  30 -16   4 157.107 196.934   4
  30 -16   4 425.355 227.593   2
  14  16   4 683.473 248.791   1
 -30  14   4 221.170 138.779   3
  15 -30  -6 744.158 226.580   4
  30 -15  -6 857.379 289.527   4
 -15 -15  -3 2868.74 370.752   3
 -15  30  -3 2048.75 303.910   1
  15 -30  -3 2644.09 338.826   4
  30 -15  -3 2600.29 378.713   4
  15 -30  -3 2158.06 210.183   2
  15  15  -3 2549.81 239.654   1
  30 -15  -3 2645.57 384.680   2
 -15 -15   0 507.961 220.850   3
  15 -30   0 432.654 199.315   3
  15 -30   0-22.1216 205.628   4
  15 -30   0 214.680 150.573   2
  30 -15   0 418.650 242.928   4
  15  15   0 359.850 168.853   1
  30 -15   0 276.942 216.149   2
 -15  30   0 483.447 207.792   1
  15 -30   3 1966.37 307.307   3
  15 -30   3 2284.07 356.393   4
  15 -30   3 2854.51 344.341   2
  15  15   3 2750.17 362.617   1
  30 -15   3 1929.50 343.475   4
 -15  30   3 2571.77 356.429   1
  30 -15   3 2074.79 342.381   2
 -30  15   3 2077.79 194.814   3
 -15 -15   3 1843.21 313.286   3
  15  15   3 2461.39 291.828   2
 -15 -15   6 1037.30 295.844   3
  15 -30   6 561.460 231.930   3
 -15  30   6 130.387 221.288   1
  15 -30   6 700.210 278.951   4
  15 -30   6 598.840 257.134   2
  30 -15   6 993.772 282.626   4
  30 -15   6 979.625 283.203   2
  15  15   6 488.955 247.470   1
 -30  15   6 552.448 193.627   3
  14 -30  -4 522.818 214.746   4
 -16  30  -4 90.4041 190.316   1
  30 -14  -4-58.7863 254.641   4
  16  14  -4 42.0329 112.010   1
 -14 -16  -1 393.812 237.393   3
 -16  30  -1-43.5288 167.299   1
  16  14  -1 106.267 213.937   2
  14 -30  -1 186.847 219.569   4
  14 -30  -1 132.269 147.691   2
  30 -14  -1 50.9844 219.397   4
  16  14  -1 194.838 157.741   1
  30 -14  -1 242.414 222.252   2
 -14 -16   2-46.5031 182.146   3
  14 -30   2 65.3944 206.889   3
  16  14   2 225.604 186.265   2
  14 -30   2 254.028 212.201   4
  14 -30   2-188.985 178.575   2
  30 -14   2-287.698 239.986   4
 -16  30   2 23.7612 197.719   1
  16  14   2-8.35762 177.771   1
  30 -14   2-136.140 214.994   2
 -30  16   2 122.146 78.6104   3
 -14 -16   5-220.174 214.331   3
  14 -30   5-93.7121 207.900   3
  14 -30   5 22.6553 210.082   4
 -16  30   5 241.346 239.125   1
  14 -30   5-82.0730 186.819   2
  30 -14   5 161.113 196.949   4
  30 -14   5-22.3552 196.697   2
  16  14   5 158.247 248.547   1
 -30  16   5-4.27765 132.843   3
  30 -13  -5 640.574 285.905   2
  13 -30  -5 262.160 197.876   4
  30 -13  -5 947.535 326.212   4
 -13 -17  -2-139.234 219.654   3
  17  13  -2 180.704 230.694   2
  13 -30  -2 594.744 249.776   4
  30 -13  -2 23.7388 229.344   4
  13 -30  -2-148.188 118.318   2
  17  13  -2 209.759 141.210   1
 -17  30  -2 42.1849 184.831   1
  30 -13  -2 310.817 261.775   2
 -13 -17   1 273.472 214.130   3
  17  13   1 211.457 201.675   2
  13 -30   1 364.537 227.484   3
  13 -30   1-121.778 210.155   4
  13 -30   1 251.616 174.126   2
  30 -13   1-342.900 237.165   4
  17  13   1 261.666 178.130   1
  30 -13   1 187.688 205.755   2
 -17  30   1-464.023 233.407   1
 -13 -17   4-344.898 211.905   3
  17  13   4 74.2361 161.213   2
  13 -30   4 190.212 215.685   3
  13 -30   4-278.110 243.585   4
  13 -30   4 206.269 207.503   2
 -17  30   4-206.904 225.745   1
  30 -13   4 160.412 217.618   4
  30 -13   4 216.466 212.477   2
  17  13   4-204.355 237.213   1
 -30  17   4 61.2590 123.585   3
  30 -12  -6 710.371 307.665   2
  12 -30  -6 325.688 188.340   4
  30 -12  -6 838.086 296.862   4
 -12 -18  -3 2397.01 350.122   3
  18  12  -3 1840.56 343.728   2
  12 -30  -3 1906.80 304.182   4
  18  12  -3 2437.73 243.805   1
 -18  30  -3 2644.18 341.655   1
  12 -30  -3 1981.11 177.265   2
  30 -12  -3 2469.78 383.638   4
  30 -12  -3 2136.33 373.281   2
 -12 -18   0 563.849 235.712   3
  18  12   0 141.180 209.187   2
 -18  30   0 662.567 245.344   1
  12 -30   0 328.062 213.944   3
  12 -30   0-61.4004 201.361   4
  12 -30   0 444.626 179.309   2
  30 -12   0 557.227 258.281   4
  18  12   0 369.228 191.141   1
  30 -12   0 563.476 242.760   2
 -12 -18   3 1155.90 283.928   3
  18  12   3 958.074 222.129   2
  12 -30   3 997.835 262.753   3
  12 -30   3 1098.70 294.874   4
  12 -30   3 1378.33 271.391   2
  30 -12   3 1297.20 304.660   4
  18  12   3 1049.45 262.576   1
 -18  30   3 1083.54 298.341   1
  30 -12   3 1019.26 269.279   2
 -30  18   3 677.363 136.447   3
 -12 -18   6 710.773 254.233   3
  12 -30   6 897.935 274.699   3
  12 -30   6 474.076 312.371   4
  12 -30   6 616.849 237.924   2
 -18  30   6 705.916 262.017   1
  30 -12   6 352.044 224.602   4
  30 -12   6 529.788 227.346   2
  18  12   6 832.710 272.432   1
 -30  18   6 257.933 169.442   3
  30 -11  -4 788.271 307.298   2
  11 -30  -4 340.259 194.080   4
 -19  30  -4 394.889 217.759   1
  30 -11  -4 349.360 285.378   4
  19  11  -4 487.162 137.970   1
  19  11  -1 833.260 285.973   2
 -11 -19  -1-35.4120 226.332   3
  11 -30  -1 747.083 263.179   4
  11 -30  -1 598.528 161.352   2
  30 -11  -1 275.693 271.155   4
  19  11  -1 335.082 179.607   1
 -19  30  -1 264.251 212.092   1
  30 -11  -1 337.318 235.854   2
  19  11   2 528.968 225.211   2
 -11 -19   2 551.197 228.551   3
  11 -30   2-103.753 208.584   3
  11 -30   2 287.991 218.394   4
  11 -30   2 458.422 191.255   2
  30 -11   2 134.027 240.298   4
  19  11   2 477.341 209.989   1
  30 -11   2 97.4401 209.620   2
 -30  19   2 395.813 99.0433   3
 -19  30   2 177.275 211.514   1
 -11 -19   5 447.924 241.113   3
  19  11   5 232.447 187.228   2
  11 -30   5-45.2864 204.805   3
  11 -30   5 34.4928 246.489   4
  11 -30   5 89.5594 196.456   2
  30 -11   5 98.2571 219.011   4
 -19  30   5-310.510 238.612   1
  19  11   5-214.492 231.688   1
  30 -11   5-11.5234 200.084   2
 -30  19   5 207.216 151.086   3
  30 -10  -5 221.721 262.435   2
  10 -30  -5-91.1251 192.478   4
  30 -10  -5-310.707 242.185   4
  20  10  -2-400.933 278.905   2
 -10 -20  -2-104.180 209.163   3
  10 -30  -2 33.0953 205.585   4
 -20  30  -2 183.221 198.050   1
  10 -30  -2 144.800 114.758   2
  30 -10  -2-29.8936 257.035   4
  20  10  -2 78.7830 155.147   1
  20  10  -2 243.026 245.915   4
  30 -10  -2 5.73432 214.620   2
  20  10   1 364.859 209.195   2
 -10 -20   1 211.129 216.094   3
  10 -30   1 473.235 251.845   3
 -20  30   1 386.544 245.243   1
  10 -30   1-78.6622 211.921   4
  10 -30   1 374.299 164.868   2
  30 -10   1-169.690 217.736   4
  20  10   1 402.823 195.992   1
  20  10   1 293.148 222.240   4
  30 -10   1 149.058 210.921   2
  20  10   4-68.5834 180.863   2
 -10 -20   4 304.022 231.075   3
  10 -30   4 22.5835 204.484   3
  10 -30   4-87.3407 229.708   4
  10 -30   4 688.969 232.478   2
  30 -10   4 218.036 214.216   4
  20  10   4-80.8610 205.347   1
  30 -10   4-7.79529 198.113   2
 -30  20   4-120.405 130.610   3
 -20  30   4-121.531 220.957   1
  30  -9  -3 844.679 301.059   2
  21   9  -3 1374.78 352.921   2
  -9 -21  -3 994.804 276.622   3
  21   9  -3 1485.67 229.445   1
   9 -30  -3 1532.51 293.914   4
  30  -9  -3 1271.13 328.820   4
  21   9  -3 1613.23 378.865   4
 -21  30  -3 822.171 260.725   1
  21   9   0 714.768 256.579   2
  -9 -21   0 452.595 221.275   3
   9 -30   0-230.034 233.736   3
   9 -30   0 134.454 226.388   4
   9 -30   0 481.752 163.242   2
  21   9   0 623.027 205.868   1
  30  -9   0 950.479 311.130   4
 -21  30   0 407.929 224.943   1
  21   9   0 471.376 251.710   4
  30  -9   0 77.6200 208.432   2
  21   9   3 959.452 248.530   2
  -9 -21   3 928.988 269.845   3
   9 -30   3 570.252 230.815   3
   9 -30   3 1341.03 262.950   2
  30  -9   3 721.392 259.722   4
  21   9   3 1545.93 299.374   1
  21   9   3 854.999 261.628   4
  30  -9   3 926.269 271.622   2
 -30  21   3 1039.51 162.665   3
 -21  30   3 752.868 252.623   1
  30  -8  -4 509.295 298.239   2
  22   8  -4 374.024 278.058   2
   8 -30  -4 1102.42 276.306   4
  22   8  -4 156.446 148.225   1
  30  -8  -4 327.381 289.810   4
  22   8  -4 570.708 311.849   4
  22   8  -1 539.706 282.981   2
  -8 -22  -1 975.660 278.605   3
 -22  30  -1 593.982 240.395   1
   8 -30  -1 762.055 264.015   3
   8 -30  -1 648.566 279.431   4
   8 -30  -1 779.026 175.905   2
  22   8  -1 660.179 219.653   1
  30  -8  -1 822.230 282.169   4
  22   8  -1 443.626 266.706   4
  30  -8  -1 601.505 249.676   2
  22   8   2 263.353 220.102   2
  -8 -22   2 215.381 213.092   3
   8 -30   2 556.607 255.236   3
 -22  30   2-269.070 255.235   1
   8 -30   2 309.786 186.784   2
  22   8   2 496.357 216.260   1
  30  -8   2 982.771 279.677   4
  22   8   2 973.762 292.511   4
 -30  22   2 703.808 124.858   3
  30  -8   2 141.170 217.545   2
  22   8   5 236.110 182.409   2
  -8 -22   5 60.8401 220.661   3
   8 -30   5 538.111 278.411   3
  30  -8   5 9.93126 226.410   4
  22   8   5 282.181 255.550   1
 -30  22   5 571.153 311.452   1
  30  -8   5 880.261 272.055   2
 -30  22   5 272.557 159.893   3
 -22  30   5 260.893 248.394   1
  30  -7  -5 229.812 280.603   2
  23   7  -5-144.415 276.872   2
   7 -30  -5 556.716 239.458   4
  30  -7  -5-202.028 288.397   4
  23   7  -5 194.451 269.450   4
  30  -7  -2 185.176 227.932   2
  23   7  -2 10.6391 239.809   2
  -7 -23  -2-150.160 225.101   3
   7 -30  -2-93.6986 216.560   4
 -23  30  -2-68.4182 199.311   1
   7 -30  -2 61.8805 113.183   2
  23   7  -2 34.3536 166.864   1
  30  -7  -2 109.588 227.468   4
  23   7  -2 39.1443 241.178   4
  23   7   1-366.194 251.665   2
  -7 -23   1 161.082 211.008   3
   7 -30   1 98.0683 231.763   3
   7 -30   1 48.6269 164.598   2
  23   7   1 134.886 206.792   1
  30  -7   1 301.403 239.367   4
 -23  30   1-97.1870 236.082   1
  23   7   1-44.2058 210.313   4
  30  -7   1 13.2956 208.466   2
  23   7   4-326.772 241.099   2
  -7 -23   4-214.603 216.132   3
 -23  30   4 297.903 227.640   1
   7 -30   4 44.2179 205.241   3
  23   7   4-156.519 210.125   1
  30  -7   4 5.65587 232.117   4
  23   7   4-358.775 218.145   4
 -30  23   4-73.5547 134.776   3
  30  -7   4-28.6894 227.496   2
 -30  23   4-122.064 233.513   1
  30  -6  -3 314.741 267.436   2
  24   6  -3 864.505 320.648   2
  -6 -24  -3 937.969 291.786   3
   6 -30  -3 431.818 231.422   4
  24   6  -3 735.088 198.018   1
  30  -6  -3 324.726 256.980   4
  24   6  -3 735.364 338.213   4
  24   6   0 617.780 243.160   2
  -6 -24   0 15.4548 213.429   3
 -24  30   0 398.825 269.702   1
   6 -30   0 425.763 243.309   3
   6 -30   0 560.831 186.268   2
  24   6   0-52.8159 197.877   1
  30  -6   0 406.505 238.996   4
  24   6   0 421.446 259.562   4
  30  -6   0 410.270 259.142   2
  24   6   3 581.054 243.016   2
  -6 -24   3 587.156 244.896   3
   6 -30   3 470.953 239.147   3
 -24  30   3 686.398 276.654   1
 -30  24   3 201.405 251.067   1
  24   6   3 380.535 232.931   1
  30  -6   3 916.537 294.213   4
  24   6   3 489.936 247.145   4
 -30  24   3 450.833 135.941   3
  30  -6   3 393.819 252.526   2
  30  -5  -4 890.214 333.669   2
  25   5  -4 217.199 274.278   2
   5 -30  -4 389.035 232.999   4
  25   5  -4 216.006 154.626   1
  30  -5  -4 501.584 271.077   4
  25   5  -4 507.368 303.902   4
  25   5  -1 1465.67 326.983   2
 -25  30  -1 1606.19 315.149   1
  -5 -25  -1 1874.06 355.899   3
   5 -30  -1 1128.83 282.161   3
   5 -30  -1 1336.96 200.218   2
  25   5  -1 1204.23 258.691   1
  30  -5  -1 1698.91 374.780   4
  25   5  -1 1371.67 339.747   4
  30  -5  -1 580.759 256.288   2
  25   5   2 736.577 280.246   2
  -5 -25   2 1171.03 289.902   3
   5 -30   2 818.539 278.931   3
 -30  25   2 819.857 283.403   1
  25   5   2 1116.62 274.862   1
  30  -5   2 975.619 336.595   4
  25   5   2 1267.57 320.077   4
 -25  30   2 732.401 274.031   1
 -30  25   2 558.987 129.313   3
  30  -5   2 550.985 255.742   2
  30  -4  -2-191.465 250.960   2
  26   4  -2 142.570 252.838   2
  -4 -26  -2-656.547 266.287   3
   4 -30  -2 279.275 251.844   3
  26   4  -2-58.6593 172.483   1
  30  -4  -2 3.72969 257.985   4
  26   4  -2-118.164 247.579   4
 -26  30  -2 453.725 253.125   1
  26   4   1 841.637 275.125   2
  -4 -26   1 714.380 275.611   3
   4 -30   1 478.669 260.309   3
 -26  30   1 607.311 274.838   1
  26   4   1 213.161 192.436   1
  30  -4   1-15.7797 232.535   4
  26   4   1 378.557 251.274   4
 -30  26   1-241.539 240.423   1
  30  -4   1 325.229 260.666   2
  -4 -26   4 82.9162 218.465   3
   4 -30   4 63.2542 228.479   3
  26   4   4 507.987 260.391   1
 -26  30   4 33.6224 248.122   1
  30  -4   4 388.317 264.777   4
  26   4   4 352.702 238.821   4
 -30  26   4-129.855 150.738   3
  30  -4   4-97.8896 222.273   2
 -30  26   4 345.927 260.907   1
  26   4   4-49.5148 213.561   2
  30  -3  -3 344.655 297.675   2
  27   3  -3-223.783 276.196   2
   3 -30  -3 171.349 236.795   4
  30  -3  -3 242.304 261.991   4
  27   3  -3 561.911 304.012   4
  27   3   0 375.994 240.236   2
 -27  30   0 500.708 245.136   1
  -3 -27   0 135.349 255.500   3
   3 -30   0 307.028 245.411   3
   3 -30   0 476.636 184.335   2
  27   3   0 534.369 218.501   1
  30  -3   0 409.617 265.952   4
  27   3   0 311.197 269.211   4
  30  -3   0 122.235 243.726   2
  27   3   3-126.969 214.501   2
  -3 -27   3 75.6222 219.297   3
 -30  27   3-166.826 245.174   1
   3 -30   3 167.213 262.302   3
  27   3   3 308.363 250.367   1
  30  -3   3-205.217 276.071   4
  27   3   3-7.23780 245.187   4
 -30  27   3 11.1215 128.662   3
 -27  30   3-184.065 241.994   1
  30  -3   3-225.359 249.324   2
  30  -2  -1 418.038 253.418   2
 -28  30  -1 1296.45 341.002   1
  28   2  -1 752.952 274.374   2
  -2 -28  -1 848.885 298.848   3
   2 -30  -1 861.448 289.578   3
   2 -30  -1 935.103 194.987   2
  30  -2  -1 547.882 293.660   4
  28   2  -1 842.686 297.785   4
  28   2   2 366.890 247.247   2
  -2 -28   2 236.970 248.244   3
   2 -30   2 308.125 266.530   3
 -28  30   2 103.467 238.153   1
  28   2   2 562.132 238.265   1
 -30  28   2 203.939 253.985   1
  30  -2   2 1158.77 321.076   4
  28   2   2 708.084 323.798   4
  30  -2   2 619.984 273.403   2
  30  -1  -2 346.041 278.271   2
  29   1  -2 1.85475 263.941   2
  -1 -29  -2-91.9920 254.505   3
   1 -30  -2-46.4854 236.262   3
  30  -1  -2 610.551 330.363   4
  29   1  -2 468.989 301.788   4
  30  -1   1 171.758 268.430   2
  29   1   1 257.952 261.495   2
  -1 -29   1 417.288 258.761   3
   1 -30   1-25.9201 217.936   3
 -30  29   1 165.716 259.939   1
 -29  30   1 41.6885 293.351   1
  30  -1   1 480.065 275.928   4
  29   1   1 88.4543 255.278   4
 -30  30   0-143.533 246.742   1
  30   0   0 16.4197 252.274   2
   0 -30   0 301.395 259.695   3
  30   0   0 662.722 295.532   4
 -29  -2   0 203.105 174.858   3
  29 -31   0 161.808 280.654   4
  31 -29   0-169.833 257.695   4
   2  29   0 310.897 223.025   1
  29 -31   0 23.2647 204.336   2
  31 -29   0 58.1756 214.811   2
  -2  31   0 37.3659 182.116   1
  -3  31  -1 209.760 185.962   1
 -28  -3  -1 45.9662 167.612   3
  28 -31  -1 486.812 260.129   4
  31 -28  -1 390.764 284.103   4
   3  28  -1 252.468 185.187   1
  28 -31  -1 220.198 201.667   2
  31 -28  -1 452.263 229.011   2
 -31   3   2 183.253 160.542   3
 -28  -3   2 145.561 165.534   3
  28 -31   2 336.561 257.658   4
   3  28   2 62.2946 212.631   1
  31 -28   2 172.582 216.788   4
  28 -31   2-327.607 209.087   2
  31 -28   2-16.7076 228.981   2
  -3  31   2 273.388 240.768   1
 -27  -4  -2-47.9614 168.278   3
  -4  31  -2 309.514 184.326   1
  27 -31  -2 399.661 267.779   4
  31 -27  -2-104.902 282.513   4
   4  27  -2-29.2798 147.777   1
  27 -31  -2 145.002 184.568   2
  31 -27  -2 258.857 225.236   2
 -31   4   1 564.835 164.384   3
 -27  -4   1 287.894 187.650   3
  27 -31   1 717.752 279.965   4
   4  27   1 465.931 219.073   1
  31 -27   1 846.171 312.940   4
  27 -31   1 391.074 236.005   2
  31 -27   1 387.060 227.587   2
  -4  31   1 741.650 251.167   1
  26 -31  -3 956.029 292.383   4
  31 -26  -3 440.611 255.030   4
  26 -31  -3 480.610 221.752   2
  -5  31  -3 543.840 199.960   1
   5  26  -3 792.004 184.864   1
  31 -26  -3 883.423 257.325   2
  -5  31   0 40.5788 183.361   1
 -26  -5   0 71.2678 176.543   3
  26 -31   0 222.653 278.096   4
   5  26   0 349.108 186.563   1
  31 -26   0-9.02754 233.790   4
  26 -31   0 271.541 201.579   2
  31 -26   0 60.4720 224.396   2
 -31   5   3-163.572 138.287   3
 -26  -5   3-29.6144 168.590   3
   5  26   3-175.058 208.377   1
  26 -31   3 164.853 234.334   4
  31 -26   3-269.602 260.152   4
  26 -31   3 128.540 219.799   2
  31 -26   3 460.860 241.324   2
  -5  31   3-29.0721 237.114   1
  -6  31  -4 267.645 172.006   1
  25 -31  -4 643.886 257.472   4
  31 -25  -4 452.770 252.527   4
  25 -31  -4 369.839 191.028   2
  31 -25  -4 290.677 244.734   2
 -25  -6  -1 166.359 179.136   3
  -6  31  -1 69.6218 185.896   1
  25 -31  -1-211.531 232.615   4
   6  25  -1 371.678 175.689   1
  31 -25  -1 178.368 227.683   4
  25 -31  -1 338.798 188.984   2
  31 -25  -1 33.9520 183.587   2
 -31   6   2 168.982 127.478   3
 -25  -6   2 48.6133 173.769   3
   6  25   2 308.333 213.110   1
  25 -31   2-82.0550 217.489   4
  31 -25   2-143.973 220.958   4
  25 -31   2 495.642 231.554   2
  31 -25   2-30.8167 209.598   2
  -6  31   2 366.865 231.997   1
 -24  -7  -2 178.292 204.685   3
  24 -31  -2 163.489 232.436   4
   7  24  -2 233.363 146.477   1
  31 -24  -2 382.817 258.913   4
  -7  31  -2 293.437 183.459   1
  24 -31  -2 3.65427 157.210   2
  31 -24  -2 631.526 253.000   2
  -7  31   1 1180.34 271.724   1
 -31   7   1 630.659 137.268   3
 -24  -7   1 901.634 234.574   3
   7  24   1 985.097 249.405   1
  24 -31   1 900.513 298.507   4
  31 -24   1 692.957 262.561   4
  24 -31   1 978.177 244.863   2
  31 -24   1 802.865 253.471   2
 -24  -7   4 221.705 224.230   3
   7  24   4 329.446 243.971   1
  24 -31   4-131.397 240.929   4
  31 -24   4 254.309 248.316   4
  24 -31   4-33.5469 219.946   2
  31 -24   4 438.489 239.757   2
  -7  31   4 304.063 238.366   1
 -31   7   4 688.040 182.479   3
  -8  31  -3 302.684 189.270   1
  23 -31  -3 444.694 245.305   4
  31 -23  -3 874.994 286.320   4
   8  23  -3 315.747 141.688   1
  23 -31  -3 692.540 196.122   2
  31 -23  -3 620.583 250.005   2
 -23  -8   0 152.905 186.872   3
   8  23   0 246.591 176.677   1
  -8  31   0 80.1766 188.118   1
  23 -31   0-73.3103 220.245   4
  31 -23   0 892.896 282.825   4
  23 -31   0 168.180 193.374   2
  31 -23   0 26.8089 222.100   2
 -31   8   3 255.014 132.586   3
 -23  -8   3 418.234 223.809   3
   8  23   3 182.840 204.143   1
  23 -31   3 90.6439 202.383   4
  31 -23   3 496.298 233.012   4
  23 -31   3 576.910 235.406   2
  31 -23   3 581.188 267.432   2
  -8  31   3 849.239 278.911   1
  22 -31  -4 118.774 207.944   4
  31 -22  -4 106.330 233.470   4
  -9  31  -4-43.1378 156.738   1
  22 -31  -4-69.5444 150.436   2
  31 -22  -4 460.226 272.915   2
 -22  -9  -1 286.463 214.313   3
   9  22  -1 136.511 163.704   1
  22 -31  -1 117.194 215.044   4
  31 -22  -1-366.774 260.363   4
  -9  31  -1 32.8788 183.567   1
  22 -31  -1 82.2493 174.052   2
  31 -22  -1-144.494 198.576   2
  -9  31   2 91.7895 196.071   1
 -31   9   2-56.7364 119.813   3
   9  22   2-6.67672 178.811   1
 -22  -9   2 233.971 179.791   3
  22 -31   2-71.8936 209.819   4
  31 -22   2 223.200 234.505   4
  22 -31   2 344.328 224.810   2
  31 -22   2 232.594 209.883   2
 -22  -9   5-41.0598 203.914   3
   9  22   5 52.8156 238.160   1
  22 -31   5-267.237 175.521   3
  22 -31   5 398.031 249.770   4
  31 -22   5 29.4114 218.094   4
  22 -31   5 207.741 209.404   2
  31 -22   5-73.5785 250.038   2
  -9  31   5-70.0257 234.743   1
 -31   9   5-3.71952 146.820   3
 -10  31  -5 77.3390 172.086   1
  21 -31  -5 499.789 221.887   4
  31 -21  -5 436.063 252.581   2
  10  21  -2-203.697 148.772   1
 -21 -10  -2 379.440 223.506   3
  21 -31  -2 210.692 242.111   4
  31 -21  -2-41.2500 232.207   4
  21 -31  -2 299.978 159.364   2
  31 -21  -2-47.6107 202.813   2
 -10  31  -2 217.074 185.682   1
  10  21   1 437.965 203.686   1
 -21 -10   1 636.435 222.125   3
 -10  31   1 509.623 240.296   1
  21 -31   1 635.473 255.046   4
  31 -21   1 116.710 215.907   4
  21 -31   1 581.184 208.777   2
  31 -21   1 124.771 258.170   2
  10  21   4 1136.62 288.933   1
 -21 -10   4 855.769 251.610   3
  21 -31   4 787.396 219.281   3
  21 -31   4 632.958 267.663   4
  21 -31   4 446.870 225.481   2
  31 -21   4 455.882 256.444   4
  31 -21   4 535.661 249.562   2
 -31  10   4 256.290 131.051   3
 -10  31   4 617.774 246.911   1
 -20 -11  -3 767.125 254.010   3
  11  20  -3 781.350 165.559   1
 -11  31  -3 1207.44 241.179   1
  20 -31  -3 800.858 269.366   4
  31 -20  -3 1098.71 279.679   4
  20 -31  -3 847.458 185.202   2
  31 -20  -3 1683.51 321.951   2
  11  20   0 992.866 233.689   1
 -20 -11   0 820.037 246.630   3
  20 -31   0 676.579 248.129   4
 -11  31   0 417.731 222.669   1
  31 -20   0 996.957 292.131   4
  20 -31   0 745.294 219.830   2
  31 -20   0 476.880 255.966   2
 -11  31   3 794.412 267.555   1
 -20 -11   3 946.238 243.585   3
  20 -31   3 909.447 228.450   3
  20 -31   3 976.410 294.671   4
  20 -31   3 1116.74 277.005   2
  31 -20   3 1199.36 308.287   4
  31 -20   3 1727.04 310.624   2
 -31  11   3 966.326 165.201   3
  11  20   3 982.661 258.615   1
 -12  31  -4 354.080 201.076   1
  19 -31  -4 82.0880 199.657   4
  31 -19  -4 40.5643 239.013   4
  19 -31  -4 30.8093 125.160   2
  31 -19  -4 28.6672 226.123   2
  12  19  -1 141.487 155.570   1
 -19 -12  -1-292.029 219.802   3
  19 -31  -1 124.171 221.493   4
  31 -19  -1-349.428 244.055   4
  19 -31  -1 350.515 181.489   2
 -12  31  -1 136.802 193.956   1
  31 -19  -1 0.35126 212.380   2
 -31  12   2 86.0477 91.2746   3
 -19 -12   2-191.971 201.841   3
  19 -31   2 47.0372 177.639   3
 -12  31   2 353.039 230.642   1
  19 -31   2 35.2185 213.753   4
  19 -31   2 413.784 211.356   2
  31 -19   2 73.3596 213.705   4
  31 -19   2-247.422 238.453   2
  12  19   2-210.141 198.645   1
 -12  31   5 650.023 285.047   1
 -19 -12   5-11.2922 208.402   3
  19 -31   5-145.148 185.066   3
  19 -31   5 310.990 241.439   4
  19 -31   5-285.683 230.993   2
  31 -19   5 554.010 251.126   4
  31 -19   5-186.593 232.750   2
 -31  12   5-94.4934 135.578   3
  12  19   5 55.6392 213.597   1
  31 -18  -5 525.598 273.686   2
  18 -31  -5 142.919 215.036   4
  31 -18  -5 75.8338 238.472   4
 -13  31  -5-15.4716 177.287   1
  13  18  -2 753.439 187.288   1
 -13  31  -2-167.204 213.926   1
 -18 -13  -2-162.786 218.958   3
  18 -31  -2 377.680 234.549   4
  31 -18  -2 120.109 225.989   4
  18 -31  -2 329.863 154.763   2
  31 -18  -2 444.605 222.612   2
 -18 -13   1 97.1346 203.466   3
  18 -31   1 295.137 191.426   3
  18 -31   1 607.416 251.825   4
 -13  31   1 152.282 207.650   1
  18 -31   1 314.775 164.999   2
  31 -18   1 786.619 283.094   4
  31 -18   1 103.345 194.971   2
  13  18   1 142.894 184.113   1
 -18 -13   4-83.6739 181.525   3
 -13  31   4 49.8360 213.278   1
  18 -31   4 231.340 201.713   3
  18 -31   4 219.078 221.995   4
  18 -31   4 170.847 210.179   2
  31 -18   4 321.110 216.876   4
  31 -18   4 137.912 224.775   2
  13  18   4 83.1708 229.303   1
 -31  13   4 52.6451 117.415   3
 -17 -14  -3 2136.81 350.725   3
 -14  31  -3 2307.56 314.248   1
  17 -31  -3 1890.60 336.332   4
  17 -31  -3 1610.49 210.387   2
  31 -17  -3 2137.96 379.376   4
  14  17  -3 1759.01 213.729   1
  31 -17  -3 1726.76 331.103   2
 -17 -14   0 813.118 243.505   3
  17 -31   0 994.635 263.212   4
  31 -17   0 724.247 274.205   4
  17 -31   0 483.874 178.713   2
 -14  31   0 931.871 234.459   1
  31 -17   0 1034.47 277.020   2
  14  17   0 1071.14 225.003   1
  17 -31   3 1925.02 301.550   3
  17 -31   3 2368.93 325.837   2
  17 -31   3 1968.32 342.411   4
 -14  31   3 1888.05 347.853   1
  31 -17   3 1759.37 349.240   4
  31 -17   3 2245.48 336.676   2
 -31  14   3 1689.38 177.158   3
  14  17   3 1582.06 290.885   1
 -17 -14   3 1976.59 322.882   3
  15  16  -4-62.3740 114.985   1
  16 -31  -4-159.091 196.959   4
  31 -16  -4 302.191 260.113   4
 -15  31  -4 16.6373 187.630   1
  31 -16  -4-306.979 244.632   2
 -15  31  -1 478.392 209.291   1
 -16 -15  -1-143.419 229.000   3
  16 -31  -1 227.099 226.438   4
  31 -16  -1 536.435 254.133   4
  16 -31  -1-168.405 147.550   2
  15  16  -1 65.0790 155.552   1
  31 -16  -1 394.208 233.732   2
 -16 -15   2-139.755 185.002   3
  16 -31   2 435.547 194.127   3
  16 -31   2 447.521 250.544   4
  16 -31   2 410.326 189.031   2
  31 -16   2 258.054 249.830   4
 -15  31   2-23.3748 233.239   1
  31 -16   2-157.129 207.271   2
  15  16   2 347.162 216.489   1
 -31  15   2-115.914 85.4665   3
 -16 -15   5-117.635 206.704   3
  16 -31   5-314.201 221.942   3
 -15  31   5-33.8424 219.465   1
  16 -31   5 198.426 231.157   4
  16 -31   5 29.0373 198.710   2
  31 -16   5 29.0123 217.234   4
  31 -16   5 273.432 245.699   2
  15  16   5-117.988 212.920   1
 -31  15   5-13.9198 134.122   3
  31 -15  -5 76.3050 285.849   2
  15 -31  -5 161.141 192.231   4
  31 -15  -5 481.782 270.579   4
 -15 -16  -2 412.355 237.437   3
  15 -31  -2 188.387 208.598   4
  31 -15  -2-136.175 223.021   4
 -16  31  -2 40.7947 196.269   1
  15 -31  -2-56.4458 122.260   2
  16  15  -2-46.5436 142.907   1
  31 -15  -2-206.557 217.143   2
 -15 -16   1 279.394 214.846   3
  15 -31   1 453.951 218.424   3
  16  15   1-127.229 188.986   2
  15 -31   1-207.531 210.779   4
  15 -31   1 17.0567 162.871   2
  31 -15   1-367.279 280.181   4
  16  15   1 104.434 176.607   1
 -16  31   1-222.056 208.860   1
  31 -15   1-54.6123 202.300   2
 -15 -16   4 149.113 231.727   3
  15 -31   4 117.999 209.431   3
  16  15   4 164.235 177.673   2
  15 -31   4 364.603 239.331   4
  15 -31   4 311.749 246.351   2
 -16  31   4-162.420 209.136   1
  31 -15   4 117.067 226.495   4
  31 -15   4-64.8239 226.053   2
  16  15   4-75.6962 199.990   1
 -31  16   4 115.499 120.845   3
 -14 -17  -3 1483.70 294.578   3
 -17  31  -3 1605.77 288.920   1
  14 -31  -3 1554.84 300.719   4
  17  14  -3 1845.17 226.910   1
  14 -31  -3 1323.57 174.753   2
  31 -14  -3 1621.60 348.182   4
  31 -14  -3 1413.63 326.921   2
 -17  31   0 747.735 240.394   1
 -14 -17   0 985.360 261.875   3
  17  14   0 1204.17 285.492   2
  14 -31   0 584.089 245.891   3
  14 -31   0 1052.07 280.708   4
  14 -31   0 1104.17 209.552   2
  31 -14   0 808.008 264.674   4
  17  14   0 880.683 224.849   1
  31 -14   0 1123.10 294.763   2
 -14 -17   3 1183.33 282.898   3
  14 -31   3 1340.81 275.697   3
  14 -31   3 1551.63 325.466   4
  17  14   3 1927.58 323.871   1
  14 -31   3 1369.56 265.018   2
  31 -14   3 2009.03 335.767   4
  31 -14   3 2164.37 347.076   2
 -17  31   3 1441.20 312.827   1
 -31  17   3 1543.87 170.100   3
  17  14   3 2146.54 288.018   2
 -18  31  -4 198.561 206.609   1
  13 -31  -4 490.952 237.773   4
  31 -13  -4-89.9539 244.012   4
  18  13  -4-4.08313 123.624   1
 -13 -18  -1 133.281 208.999   3
  18  13  -1 164.399 221.302   2
  13 -31  -1 730.693 260.988   4
 -18  31  -1 162.884 198.005   1
  13 -31  -1 102.472 128.913   2
  31 -13  -1 205.568 245.249   4
  18  13  -1 59.0786 161.648   1
  31 -13  -1 186.719 215.520   2
 -13 -18   2-99.2150 205.612   3
  18  13   2 388.331 212.598   2
  13 -31   2 578.120 225.652   3
  13 -31   2 94.0116 218.790   4
  13 -31   2 161.825 180.617   2
  31 -13   2 226.686 225.397   4
  18  13   2 751.851 252.016   1
  31 -13   2 352.944 231.195   2
 -18  31   2-247.289 216.397   1
 -13 -18   5 381.504 253.147   3
  13 -31   5 0.34505 236.785   3
  13 -31   5-28.8011 230.731   4
  13 -31   5 457.625 242.991   2
 -18  31   5 229.736 262.137   1
  31 -13   5 539.231 260.836   4
  31 -13   5 133.967 217.946   2
  18  13   5 116.689 233.572   1
 -31  18   5 504.522 169.635   3
  31 -12  -5-28.9549 257.296   2
  12 -31  -5 203.934 204.410   4
  31 -12  -5 123.018 262.680   4
 -19  31  -2 236.616 210.523   1
 -12 -19  -2 207.876 247.374   3
  19  12  -2 209.727 228.404   2
  12 -31  -2 42.2170 202.783   4
  12 -31  -2 110.441 126.646   2
  31 -12  -2 32.6661 231.350   4
  19  12  -2 41.7995 150.047   1
  31 -12  -2-142.829 223.051   2
 -19  31   1 74.2671 224.342   1
 -12 -19   1 275.742 214.858   3
  19  12   1 245.382 209.249   2
  12 -31   1-72.3691 193.036   3
  12 -31   1 638.087 259.928   4
  12 -31   1-52.5286 163.351   2
  31 -12   1 636.205 255.361   4
  19  12   1 353.894 212.188   1
  31 -12   1-415.881 247.166   2
 -12 -19   4 328.118 236.265   3
  19  12   4 174.976 175.512   2
  12 -31   4 261.450 222.269   3
  12 -31   4 150.911 255.398   4
  12 -31   4 482.508 230.600   2
  31 -12   4 364.548 239.372   4
  19  12   4 82.4200 211.476   1
 -19  31   4 580.608 232.464   1
  31 -12   4 137.228 206.440   2
 -31  19   4 139.662 128.460   3
  31 -11  -3 1008.23 307.531   2
  20  11  -3 1043.79 309.701   2
 -11 -20  -3 1294.92 306.546   3
 -20  31  -3 1105.03 290.927   1
  11 -31  -3 1288.36 309.018   4
  31 -11  -3 1836.38 373.749   4
  20  11  -3 1128.06 220.619   1
  20  11   0 1267.31 284.912   2
 -11 -20   0 207.911 210.965   3
  11 -31   0 501.553 227.977   3
  11 -31   0 705.050 258.814   4
  11 -31   0 505.056 175.642   2
 -20  31   0 754.958 252.151   1
  31 -11   0 973.338 301.176   4
  20  11   0 801.133 213.021   1
  31 -11   0 504.661 238.389   2
  20  11   3 463.134 192.272   2
 -11 -20   3 555.851 234.252   3
  11 -31   3 549.227 264.950   3
  11 -31   3 1159.90 323.449   4
  11 -31   3 962.301 248.618   2
  31 -11   3 913.010 273.854   4
  20  11   3 867.880 275.143   1
  31 -11   3 1092.54 276.538   2
 -31  20   3 790.344 138.744   3
 -20  31   3 1201.00 298.148   1
  31 -10  -4 737.802 315.151   2
  21  10  -4 508.762 275.693   2
  10 -31  -4 388.689 210.630   4
  31 -10  -4 882.890 345.076   4
  21  10  -4 414.805 155.546   1
  21  10  -1 145.940 260.409   2
 -10 -21  -1 716.200 267.346   3
  10 -31  -1 223.613 243.258   3
  10 -31  -1 756.649 270.002   4
  10 -31  -1 323.371 149.896   2
  31 -10  -1 751.352 279.027   4
  21  10  -1 431.107 203.665   1
  21  10  -1 582.809 277.322   4
  31 -10  -1-113.923 226.462   2
 -21  31  -1 514.008 249.717   1
  21  10   2 146.563 210.068   2
 -21  31   2 32.3548 234.277   1
 -10 -21   2 251.509 223.511   3
  10 -31   2-62.0412 217.220   3
  10 -31   2 386.380 248.163   4
  10 -31   2 220.379 181.062   2
  31 -10   2 272.454 236.674   4
  21  10   2-127.924 208.671   1
  31 -10   2 6.66668 211.123   2
  21  10   5 392.167 196.398   2
 -10 -21   5 543.754 271.861   3
  10 -31   5 451.712 229.784   3
  10 -31   5 817.563 302.085   4
  10 -31   5 17.8793 215.015   2
  31 -10   5 408.598 244.685   4
  21  10   5 467.003 240.131   1
  31 -10   5 394.013 263.406   2
 -31  21   5 277.349 162.250   3
 -21  31   5 127.425 250.952   1
  31  -9  -5-129.929 261.871   2
   9 -31  -5 398.419 228.600   4
  31  -9  -5 266.565 261.549   4
  22   9  -2 9.11824 275.298   2
  -9 -22  -2-101.636 252.413   3
   9 -31  -2-19.9531 219.237   4
   9 -31  -2-74.9957 122.368   2
  22   9  -2-98.6061 177.993   1
  31  -9  -2 480.952 247.835   4
  22   9  -2-13.6501 232.119   4
 -22  31  -2-257.457 213.191   1
  31  -9  -2 274.102 240.935   2
  22   9   1 359.970 225.288   2
  -9 -22   1 272.897 232.575   3
   9 -31   1 197.403 239.858   3
   9 -31   1 562.618 262.565   4
   9 -31   1 273.293 181.887   2
 -22  31   1-355.616 234.036   1
  22   9   1 177.341 183.812   1
  31  -9   1 263.970 231.185   4
  22   9   1-83.8686 240.912   4
  31  -9   1 109.839 228.535   2
  22   9   4 32.5496 200.345   2
  -9 -22   4-74.1001 212.354   3
   9 -31   4 237.635 212.932   3
   9 -31   4-53.4229 185.110   2
  31  -9   4 213.491 229.947   4
  22   9   4 192.589 230.171   1
  31  -9   4-16.4998 220.208   2
 -31  22   4 276.088 137.610   3
 -22  31   4 259.197 243.339   1
  31  -8  -3 574.585 288.655   2
  23   8  -3 311.907 278.167   2
  -8 -23  -3 290.300 236.252   3
   8 -31  -3 688.552 252.852   4
  23   8  -3 139.498 168.727   1
  31  -8  -3 405.496 286.878   4
  23   8  -3 513.627 290.195   4
 -23  31  -3 250.527 236.158   1
  23   8   0 631.809 256.235   2
  -8 -23   0 184.415 230.649   3
   8 -31   0 178.013 229.135   3
   8 -31   0 300.365 229.846   4
   8 -31   0 119.611 153.191   2
  23   8   0 272.005 193.947   1
  31  -8   0 418.058 267.307   4
  23   8   0 222.155 237.524   4
 -23  31   0-12.7794 216.359   1
  31  -8   0-96.2487 221.907   2
  23   8   3 389.136 228.352   2
  -8 -23   3 431.023 247.589   3
   8 -31   3 1033.13 285.995   3
 -23  31   3 518.124 271.640   1
   8 -31   3 871.411 248.593   2
  23   8   3 858.891 268.929   1
  31  -8   3 565.877 300.262   4
  23   8   3 966.747 278.580   4
 -31  23   3 504.699 138.608   3
  31  -8   3 388.020 228.196   2
  31  -7  -4 437.093 285.983   2
  24   7  -4 409.011 277.748   2
   7 -31  -4 421.784 264.408   4
  24   7  -4-74.4892 149.522   1
  31  -7  -4 482.435 301.275   4
  24   7  -4 284.849 275.098   4
  24   7  -1 846.272 300.579   2
  -7 -24  -1 538.666 268.099   3
   7 -31  -1 1058.14 300.968   3
   7 -31  -1 1178.11 318.974   4
   7 -31  -1 1078.12 194.175   2
  24   7  -1 1140.36 261.996   1
  31  -7  -1 700.812 309.366   4
  24   7  -1 796.232 327.399   4
 -24  31  -1 51.1036 223.351   1
  31  -7  -1 1185.57 306.461   2
  24   7   2-512.082 263.305   2
  -7 -24   2-197.811 228.037   3
   7 -31   2-53.9895 218.453   3
   7 -31   2 196.906 191.128   2
  24   7   2 594.283 246.719   1
 -24  31   2-35.8755 225.148   1
  31  -7   2 575.517 264.307   4
  24   7   2 335.504 236.066   4
  31  -7   2 889.018 286.766   2
  31  -6  -2-146.786 259.380   2
  25   6  -2 268.321 278.683   2
  -6 -25  -2 245.995 238.595   3
   6 -31  -2 263.132 232.421   4
  25   6  -2 376.536 184.871   1
 -25  31  -2 48.3141 222.821   1
  31  -6  -2 110.771 254.649   4
  25   6  -2 96.2557 282.562   4
  25   6   1 388.197 257.431   2
  -6 -25   1 174.640 221.498   3
   6 -31   1 386.311 246.601   3
   6 -31   1 289.541 191.223   2
  25   6   1 424.638 220.130   1
  31  -6   1 394.195 262.104   4
  25   6   1 319.217 276.516   4
  31  -6   1 222.825 215.436   2
 -25  31   1 521.174 281.575   1
  25   6   4 251.531 223.419   2
  -6 -25   4 229.881 253.967   3
   6 -31   4 461.869 255.179   3
 -25  31   4 565.200 309.613   1
  25   6   4 374.445 266.447   1
  31  -6   4 175.286 233.580   4
  25   6   4 524.685 243.190   4
 -31  25   4 117.978 242.546   1
 -31  25   4 352.765 160.021   3
  31  -6   4 114.068 248.470   2
  31  -5  -3 840.643 321.257   2
  26   5  -3 200.881 268.645   2
   5 -31  -3 229.759 236.523   4
  26   5  -3 16.3410 158.438   1
  31  -5  -3 308.170 293.077   4
  26   5  -3 553.456 270.654   4
  26   5   0-109.870 214.517   2
  -5 -26   0 143.132 218.730   3
   5 -31   0-155.412 217.389   3
   5 -31   0 85.0063 169.127   2
  26   5   0 235.399 184.645   1
  31  -5   0 325.763 267.166   4
 -26  31   0-203.207 269.211   1
  26   5   0 45.2431 240.014   4
  31  -5   0 10.7784 251.820   2
  26   5   3 713.461 262.691   2
  -5 -26   3 419.690 250.849   3
 -31  26   3 18.9170 232.625   1
   5 -31   3 996.134 294.094   3
  26   5   3 823.880 277.577   1
  31  -5   3 1056.79 315.564   4
 -26  31   3 44.7273 237.576   1
  26   5   3 763.080 288.706   4
  31  -5   3 586.471 250.669   2
  31  -4  -1 636.771 272.491   2
 -27  31  -1 803.105 293.986   1
  27   4  -1 615.337 308.798   2
  -4 -27  -1 718.592 295.191   3
   4 -31  -1 599.078 276.139   3
   4 -31  -1 706.319 175.060   2
  27   4  -1 413.409 210.690   1
  31  -4  -1 701.372 307.213   4
  27   4  -1 909.806 325.900   4
  27   4   2-89.8307 240.467   2
 -27  31   2 16.4002 289.885   1
 -31  27   2-383.868 290.305   1
  -4 -27   2 203.854 234.635   3
   4 -31   2 699.662 275.580   3
  27   4   2 348.893 228.606   1
  31  -4   2 271.400 261.957   4
  27   4   2-147.760 242.764   4
  31  -4   2-347.887 264.569   2
  31  -3  -2-78.2819 283.627   2
  28   3  -2-430.020 279.244   2
  -3 -28  -2 82.2628 243.903   3
   3 -31  -2 121.158 228.914   3
  28   3  -2-7.40828 180.205   1
  31  -3  -2 129.687 308.826   4
  28   3  -2-308.120 282.654   4
  28   3   1 407.541 288.760   2
  -3 -28   1 359.693 256.075   3
   3 -31   1 232.519 246.517   3
  28   3   1 109.851 197.011   1
 -31  28   1 289.484 271.354   1
  31  -3   1-167.880 316.203   4
  28   3   1 392.259 281.217   4
 -28  31   1 584.434 269.462   1
  31  -3   1 463.636 289.349   2
  31  -2   0 229.101 277.962   2
  29   2   0 605.031 309.048   2
  -2 -29   0-54.4012 245.556   3
   2 -31   0-103.050 249.222   3
  29   2   0 142.599 233.157   1
  31  -2   0-209.492 268.892   4
  29   2   0 615.116 331.572   4
 -29  31   0 186.874 259.413   1
  -4  32   0 774.125 259.285   1
 -28  -4   0 142.770 170.373   3
  28 -32   0 3.83965 241.762   4
  32 -28   0 69.9181 260.339   4
   4  28   0 787.510 239.328   1
  28 -32   0-36.1426 194.836   2
  32 -28   0 166.326 238.741   2
 -27  -5  -1-193.977 202.886   3
  -5  32  -1 118.941 191.336   1
  27 -32  -1 391.402 257.623   4
  32 -27  -1 130.324 240.937   4
   5  27  -1 403.739 197.992   1
  27 -32  -1-126.664 202.980   2
  32 -27  -1 69.0725 201.046   2
 -27  -5   2-218.102 198.963   3
   5  27   2 38.2942 219.749   1
  27 -32   2 22.6218 237.457   4
  32 -27   2 435.123 272.307   4
  27 -32   2-22.4151 236.681   2
  32 -27   2 202.847 215.283   2
  -5  32   2 51.6646 223.381   1
 -26  -6  -2 739.127 244.949   3
  26 -32  -2 457.292 261.787   4
  32 -26  -2 671.139 286.218   4
  -6  32  -2 943.637 224.328   1
   6  26  -2 437.708 189.056   1
  26 -32  -2 383.137 190.983   2
  32 -26  -2 840.984 270.458   2
 -26  -6   1 429.484 189.495   3
   6  26   1 258.495 199.283   1
  26 -32   1-470.408 287.715   4
  32 -26   1 435.582 288.430   4
  26 -32   1 31.3456 202.525   2
  32 -26   1 607.841 267.036   2
  -6  32   1 445.036 222.235   1
  25 -32  -3-65.4182 227.234   4
  32 -25  -3-147.991 252.592   4
   7  25  -3 211.603 147.988   1
  25 -32  -3 184.083 165.518   2
  32 -25  -3-57.8233 240.984   2
  -7  32  -3 212.430 187.657   1
 -25  -7   0 477.907 216.168   3
  -7  32   0 581.832 231.377   1
   7  25   0 982.981 253.128   1
  25 -32   0 1324.87 329.364   4
  32 -25   0 532.501 269.297   4
  25 -32   0 1063.45 261.420   2
  32 -25   0 649.025 241.893   2
 -32   7   3 224.417 140.438   3
 -25  -7   3-238.731 222.448   3
   7  25   3 231.443 248.085   1
  25 -32   3-95.8661 248.507   4
  32 -25   3 301.032 237.417   4
  25 -32   3-215.488 233.310   2
  32 -25   3-240.141 248.327   2
  -7  32   3 180.562 218.946   1
 -24  -8  -1 33.3532 184.201   3
   8  24  -1 104.475 157.213   1
  24 -32  -1 401.505 235.355   4
  -8  32  -1 387.783 199.483   1
  32 -24  -1 318.705 257.646   4
  24 -32  -1 236.398 192.989   2
  32 -24  -1 56.6151 217.787   2
  -8  32   2 345.980 224.958   1
 -24  -8   2 643.421 220.774   3
   8  24   2 623.977 239.219   1
  24 -32   2 728.910 323.378   4
  32 -24   2 149.043 240.910   4
  24 -32   2 240.879 203.639   2
  32 -24   2 305.965 254.256   2
 -23  -9  -2 351.887 213.579   3
   9  23  -2 587.255 186.390   1
  23 -32  -2 950.604 277.048   4
  32 -23  -2 450.496 269.798   4
  23 -32  -2 715.208 211.687   2
  -9  32  -2 712.108 223.142   1
  32 -23  -2 491.119 234.056   2
 -23  -9   1 173.689 187.646   3
   9  23   1 92.4869 190.808   1
  -9  32   1 270.785 228.336   1
  23 -32   1 776.101 266.317   4
  32 -23   1 455.352 254.811   4
  23 -32   1 334.382 200.806   2
  32 -23   1 303.862 210.604   2
 -23  -9   4 420.326 224.413   3
   9  23   4 799.090 261.223   1
  23 -32   4 976.496 216.734   3
  23 -32   4 840.714 292.447   4
  32 -23   4 504.051 280.166   4
  23 -32   4 946.524 268.787   2
  32 -23   4 931.826 278.876   2
  -9  32   4 672.078 283.483   1
 -32   9   4 627.439 172.014   3
 -10  32  -3 28.4442 175.762   1
  10  22  -3 152.779 135.868   1
  22 -32  -3 21.7745 202.382   4
  32 -22  -3 378.951 277.793   4
  22 -32  -3 427.648 173.731   2
  32 -22  -3 180.753 207.108   2
  10  22   0 1065.39 226.850   1
 -22 -10   0 1250.20 284.669   3
  22 -32   0 1514.75 320.379   4
 -10  32   0 931.562 238.925   1
  32 -22   0 1281.67 325.511   4
  22 -32   0 953.949 231.841   2
  32 -22   0 917.100 272.215   2
 -32  10   3-25.3857 115.453   3
 -10  32   3-270.967 244.022   1
  10  22   3-91.0319 204.486   1
 -22 -10   3 276.033 211.694   3
  22 -32   3-188.132 172.875   3
  22 -32   3-228.256 229.750   4
  32 -22   3-396.117 237.460   4
  22 -32   3-7.12810 202.459   2
  32 -22   3 324.062 232.250   2
  21 -32  -4-105.370 218.301   4
  32 -21  -4-44.9082 257.847   4
  21 -32  -4 315.388 156.601   2
  32 -21  -4 479.739 271.801   2
 -11  32  -4-138.956 186.784   1
  11  21  -1-148.465 160.772   1
 -21 -11  -1 168.578 198.853   3
  21 -32  -1-29.9773 214.910   4
  32 -21  -1 85.1273 245.231   4
  21 -32  -1 49.0615 164.240   2
 -11  32  -1 43.4745 178.239   1
  32 -21  -1 31.0231 210.487   2
  11  21   2 691.705 226.159   1
 -21 -11   2 720.008 225.684   3
 -11  32   2 276.991 209.095   1
  21 -32   2 273.150 244.329   4
  32 -21   2 776.473 271.240   4
  21 -32   2 340.153 221.002   2
  32 -21   2 516.955 264.424   2
 -12  32  -2 158.995 189.877   1
  12  20  -2 504.351 173.336   1
 -20 -12  -2 1017.40 279.429   3
  20 -32  -2 611.706 265.465   4
  32 -20  -2 942.998 299.552   4
  20 -32  -2 583.259 188.255   2
  32 -20  -2 275.841 228.467   2
 -20 -12   1 499.257 241.195   3
  20 -32   1 141.234 223.471   4
 -12  32   1 694.460 262.584   1
  32 -20   1 953.116 330.403   4
  20 -32   1 406.215 204.933   2
  32 -20   1 244.482 214.075   2
  12  20   1 911.856 241.336   1
 -20 -12   4 773.459 269.389   3
 -12  32   4 518.799 253.487   1
  20 -32   4 481.580 223.298   3
  20 -32   4 871.493 310.104   4
  20 -32   4 987.512 267.627   2
  32 -20   4 919.677 287.164   4
  32 -20   4 213.404 234.759   2
 -32  12   4 308.948 143.303   3
  12  20   4 1246.65 309.751   1
  13  19  -3 140.810 143.095   1
 -19 -13  -3 86.4224 236.397   3
  19 -32  -3-31.1559 196.862   4
  32 -19  -3 89.3447 261.914   4
 -13  32  -3-150.122 186.691   1
  19 -32  -3-17.8790 125.315   2
  32 -19  -3 195.221 234.897   2
 -19 -13   0 2267.81 342.118   3
  19 -32   0 2301.49 364.542   4
  19 -32   0 1886.71 276.671   2
  32 -19   0 1732.67 330.389   4
 -13  32   0 1500.96 292.227   1
  32 -19   0 1716.12 311.244   2
  13  19   0 1590.88 257.063   1
 -19 -13   3-480.503 226.469   3
  19 -32   3-487.252 225.812   3
 -13  32   3-446.506 241.085   1
  19 -32   3 649.676 276.600   4
  19 -32   3 251.353 194.762   2
  32 -19   3 87.5002 261.573   4
  32 -19   3 233.317 244.148   2
  13  19   3-159.745 201.781   1
 -32  13   3 178.789 111.850   3
  18 -32  -4-193.228 200.578   4
 -14  32  -4 133.032 199.681   1
  32 -18  -4-304.462 271.043   4
  32 -18  -4-254.280 254.144   2
 -18 -14  -1 115.005 199.318   3
  18 -32  -1-47.4357 198.216   4
  32 -18  -1-353.542 265.638   4
  18 -32  -1-253.437 168.300   2
  32 -18  -1 86.0553 210.033   2
  14  18  -1-177.754 166.931   1
 -14  32  -1-51.8077 192.659   1
 -18 -14   2 576.142 239.355   3
  18 -32   2-24.8223 216.988   3
  18 -32   2-28.0177 239.726   4
 -14  32   2 405.671 240.281   1
  18 -32   2 789.666 222.414   2
  32 -18   2 59.6087 208.785   4
  32 -18   2-306.903 239.476   2
  14  18   2 139.011 181.968   1
  32 -17  -5 210.714 235.751   2
  32 -17  -5 34.1431 243.989   4
 -17 -15  -2-54.7508 225.180   3
  17 -32  -2 436.584 240.894   4
 -15  32  -2 400.724 225.091   1
  32 -17  -2 276.483 278.393   4
  17 -32  -2 47.8353 131.682   2
  32 -17  -2 547.797 274.368   2
  15  17  -2 264.531 147.230   1
 -17 -15   1-434.933 239.886   3
  17 -32   1 30.6334 178.566   3
  17 -32   1-16.0494 214.366   4
  17 -32   1 113.812 187.500   2
  32 -17   1-5.18593 238.679   4
 -15  32   1-63.2581 222.943   1
  32 -17   1 218.967 221.690   2
  15  17   1 35.4619 177.852   1
 -17 -15   4-11.8080 201.361   3
  17 -32   4-55.3613 196.478   3
 -15  32   4-265.646 242.037   1
  17 -32   4-517.953 277.926   4
  17 -32   4 77.0603 230.881   2
  32 -17   4 282.519 234.178   4
  32 -17   4-129.970 234.564   2
  15  17   4-488.025 233.233   1
 -32  15   4 192.002 126.867   3
 -16  32  -3 169.407 199.127   1
 -16 -16  -3-341.020 232.581   3
  16 -32  -3-91.8803 198.035   4
  32 -16  -3 193.050 278.653   4
  16 -32  -3-190.187 121.733   2
  16  16  -3-253.526 147.561   1
  32 -16  -3 22.9484 227.217   2
 -16 -16   0 2072.42 326.483   3
  16 -32   0 2279.61 288.104   2
  16 -32   0 2106.10 347.838   4
  16  16   0 2441.73 307.809   1
  32 -16   0 2304.63 367.652   4
  32 -16   0 1864.22 331.932   2
 -16  32   0 1687.76 288.462   1
 -16 -16   3-327.082 218.775   3
  16 -32   3 560.085 249.914   3
  16  16   3 226.492 171.261   2
  16 -32   3 111.467 243.459   4
  16 -32   3 125.404 188.952   2
 -16  32   3-381.692 220.307   1
  32 -16   3-391.132 241.497   4
  32 -16   3-200.405 222.984   2
  16  16   3 454.597 249.478   1
 -32  16   3-21.7684 103.733   3
  32 -15  -4-127.160 261.798   2
  15 -32  -4 349.843 224.602   4
 -17  32  -4 262.195 201.117   1
  32 -15  -4 88.7627 251.730   4
 -15 -17  -1 435.995 227.300   3
 -17  32  -1-91.8785 203.684   1
  15 -32  -1-142.479 206.276   4
  15 -32  -1-76.3529 135.553   2
  32 -15  -1-300.576 270.394   4
  17  15  -1 273.987 179.939   1
  32 -15  -1 512.931 237.320   2
 -15 -17   2 666.896 240.234   3
  15 -32   2-119.642 213.099   3
  17  15   2 462.386 213.151   2
  15 -32   2-30.0722 241.502   4
  15 -32   2 811.055 221.795   2
  32 -15   2 240.158 268.392   4
 -17  32   2 476.406 230.583   1
  17  15   2 329.923 211.637   1
  32 -15   2 616.884 251.892   2
 -15 -17   5-145.383 235.838   3
  15 -32   5 152.560 236.291   3
  32 -15   5 618.637 290.899   4
  32 -15   5 56.6085 214.488   2
 -14 -18  -2-277.884 241.572   3
  14 -32  -2-107.387 216.300   4
  32 -14  -2 138.872 235.409   4
  14 -32  -2 129.303 125.153   2
  18  14  -2 267.989 160.303   1
 -18  32  -2-75.4746 198.312   1
  32 -14  -2 51.3605 232.772   2
 -14 -18   1-80.7002 212.159   3
  18  14   1-38.1138 198.594   2
  14 -32   1-219.734 205.622   3
  14 -32   1 368.177 235.919   4
  14 -32   1 223.433 177.796   2
  32 -14   1-343.055 278.669   4
  18  14   1 2.41769 173.242   1
  32 -14   1-2.63613 207.719   2
 -18  32   1-0.72812 214.820   1
 -14 -18   4-75.2817 223.440   3
  14 -32   4-20.0000 222.335   3
  18  14   4 177.923 167.473   2
  14 -32   4-381.284 271.260   4
  14 -32   4-27.7139 213.011   2
  32 -14   4 9.11106 214.920   4
 -18  32   4 380.534 240.667   1
  32 -14   4 307.879 238.700   2
  18  14   4 245.099 221.839   1
 -32  18   4 246.554 131.201   3
 -13 -19  -3 122.998 222.879   3
  13 -32  -3 352.019 228.589   4
  32 -13  -3 170.295 278.116   4
  19  13  -3 57.5304 143.233   1
 -19  32  -3-84.8199 222.287   1
  32 -13  -3 58.0124 226.407   2
 -13 -19   0 2325.75 354.279   3
  19  13   0 2053.52 331.340   2
  13 -32   0 1485.17 308.713   3
  13 -32   0 2256.42 355.235   4
 -19  32   0 1623.42 311.769   1
  13 -32   0 2498.95 283.547   2
  19  13   0 2649.22 318.980   1
  32 -13   0 1798.50 360.486   4
  32 -13   0 2068.92 350.571   2
 -13 -19   3-137.150 219.854   3
  19  13   3-48.2968 186.603   2
  13 -32   3-431.785 226.697   3
  13 -32   3 73.4278 222.253   4
  13 -32   3 108.497 224.594   2
  32 -13   3-81.8227 217.366   4
  19  13   3-201.111 206.339   1
  32 -13   3 8.00171 209.963   2
 -19  32   3-237.972 215.572   1
  32 -12  -4 610.601 304.073   2
  12 -32  -4 964.844 284.453   4
  32 -12  -4 852.047 306.318   4
  20  12  -4 659.565 170.506   1
 -12 -20  -1 173.062 266.274   3
  20  12  -1 928.537 288.409   2
  12 -32  -1 291.827 235.823   4
  12 -32  -1-40.5582 143.102   2
  32 -12  -1 430.787 277.162   4
  20  12  -1 208.442 177.211   1
 -20  32  -1-13.5235 229.508   1
  32 -12  -1 444.429 252.570   2
 -20  32   2 881.371 289.439   1
 -12 -20   2 468.237 251.590   3
  20  12   2 643.883 252.758   2
  12 -32   2 506.112 256.420   3
  12 -32   2 574.461 266.598   4
  12 -32   2 703.032 215.657   2
  32 -12   2 528.540 274.988   4
  20  12   2 696.311 246.049   1
  32 -12   2 909.976 262.744   2
  21  11  -2 228.323 254.543   2
 -11 -21  -2 942.126 287.732   3
  11 -32  -2 590.684 267.446   4
 -21  32  -2 967.730 285.328   1
  11 -32  -2 484.736 147.163   2
  32 -11  -2 736.872 298.200   4
  21  11  -2 504.020 188.271   1
  32 -11  -2 1311.88 348.177   2
  21  11   1 35.5833 209.537   2
 -11 -21   1 52.9872 219.305   3
  11 -32   1 237.805 223.718   3
 -21  32   1-417.006 240.766   1
  11 -32   1-193.090 235.746   4
  11 -32   1 240.555 170.579   2
  32 -11   1 108.271 231.350   4
  21  11   1 149.790 206.277   1
  32 -11   1 514.953 242.729   2
 -11 -21   4-169.233 237.861   3
  21  11   4 252.233 218.164   2
  11 -32   4 111.748 225.871   3
  11 -32   4 295.429 236.099   4
  11 -32   4 293.277 217.685   2
  32 -11   4-101.702 244.179   4
  21  11   4 15.1124 226.838   1
  32 -11   4 378.557 245.328   2
 -32  21   4 244.052 129.442   3
 -21  32   4 178.304 243.150   1
  32 -10  -3-133.092 262.263   2
 -22  32  -3 134.870 199.854   1
  22  10  -3-31.4895 270.354   2
 -10 -22  -3-173.240 233.643   3
  10 -32  -3 448.046 251.668   4
  32 -10  -3 373.531 297.091   4
  22  10  -3-41.0057 150.364   1
  22  10   0 874.014 265.117   2
 -10 -22   0 1226.87 297.071   3
  10 -32   0 1686.23 331.092   3
  10 -32   0 1101.13 319.482   4
  10 -32   0 1317.23 222.715   2
  32 -10   0 1189.49 329.219   4
  22  10   0 1607.09 270.566   1
  22  10   0 1236.82 326.928   4
 -22  32   0 599.660 250.740   1
  32 -10   0 578.571 257.562   2
 -22  32   3 417.500 239.036   1
  22  10   3 100.993 224.778   2
 -10 -22   3 396.807 240.497   3
  10 -32   3 977.594 288.969   3
  10 -32   3 308.203 266.662   4
  10 -32   3 121.282 194.190   2
  32 -10   3 76.9385 247.910   4
  22  10   3-461.664 249.749   1
  32 -10   3-399.488 264.123   2
  32  -9  -4 1028.58 343.083   2
  23   9  -4 394.159 290.424   2
   9 -32  -4 590.829 248.484   4
  23   9  -4 586.405 177.240   1
  32  -9  -4 903.868 360.813   4
  23   9  -1 491.912 274.227   2
  -9 -23  -1 277.878 230.880   3
   9 -32  -1 86.9393 218.792   3
   9 -32  -1 219.492 242.204   4
 -23  32  -1 6.69072 232.146   1
   9 -32  -1 265.131 143.627   2
  23   9  -1 131.050 185.157   1
  32  -9  -1 259.940 248.793   4
  23   9  -1 362.394 299.885   4
  32  -9  -1-164.146 246.465   2
  23   9   2 929.307 278.768   2
  -9 -23   2 514.802 239.070   3
   9 -32   2 547.764 251.145   3
   9 -32   2 1194.26 315.525   4
   9 -32   2 620.001 224.274   2
 -23  32   2 1027.33 316.220   1
  32  -9   2 719.868 284.259   4
  23   9   2 745.684 264.684   1
  23   9   2 857.431 270.461   4
  32  -9   2 665.660 246.514   2
  32  -8  -2 207.884 281.898   2
  24   8  -2 585.053 275.250   2
  -8 -24  -2 800.390 291.705   3
   8 -32  -2 255.165 240.359   4
 -24  32  -2 162.953 265.625   1
  24   8  -2 533.685 210.271   1
  32  -8  -2 269.160 279.400   4
  24   8  -2 154.937 292.573   4
  24   8   1-250.697 236.321   2
  -8 -24   1 248.894 231.956   3
   8 -32   1-127.618 223.334   3
   8 -32   1 115.339 282.788   4
   8 -32   1-141.234 167.058   2
  24   8   1 252.354 219.038   1
  32  -8   1 3.90033 266.269   4
  24   8   1 140.544 241.026   4
 -24  32   1 270.908 266.908   1
  32  -8   1 192.325 231.836   2
  32  -7  -3-16.9980 247.187   2
   7 -32  -3 173.935 267.994   4
  25   7  -3 140.850 162.521   1
  32  -7  -3-279.132 283.038   4
  25   7  -3-435.977 301.508   4
  25   7   0 961.190 287.637   2
  -7 -25   0 674.519 272.983   3
   7 -32   0 988.163 284.631   3
 -25  32   0 280.489 247.183   1
   7 -32   0 750.578 333.714   4
   7 -32   0 710.424 191.671   2
  25   7   0 954.037 264.720   1
  32  -7   0 446.349 302.472   4
  25   7   0 674.160 277.126   4
  32  -7   0 935.960 302.907   2
  25   7   3 225.835 234.420   2
  -7 -25   3 391.719 247.353   3
   7 -32   3 326.861 275.190   3
   7 -32   3-213.334 203.118   2
 -25  32   3 234.531 249.146   1
  25   7   3 197.085 232.663   1
  32  -7   3 372.357 272.899   4
  25   7   3 180.086 261.831   4
  32  -7   3 273.995 255.623   2
  32  -6  -1 679.799 278.780   2
  26   6  -1 875.761 311.122   2
  -6 -26  -1 314.038 245.730   3
   6 -32  -1 423.406 265.271   3
 -26  32  -1 469.747 272.916   1
   6 -32  -1 591.953 264.787   4
   6 -32  -1 424.824 160.544   2
  26   6  -1-5.30349 177.497   1
  32  -6  -1-51.9328 236.666   4
  26   6  -1 367.557 319.005   4
  26   6   2 890.100 273.964   2
  -6 -26   2 1189.47 312.447   3
   6 -32   2 834.916 284.785   3
   6 -32   2 548.481 224.674   2
  26   6   2 277.573 224.432   1
  32  -6   2 929.379 314.338   4
  26   6   2 765.174 310.360   4
 -26  32   2 177.936 250.084   1
  32  -6   2 778.274 302.510   2
  32  -5  -2-423.395 288.752   2
  27   5  -2 396.005 319.922   2
  -5 -27  -2 64.9164 238.171   3
   5 -32  -2 241.725 252.916   4
  27   5  -2 225.325 188.654   1
  32  -5  -2 173.739 282.926   4
  27   5  -2 56.3420 289.767   4
  27   5   1-103.741 228.681   2
  -5 -27   1 40.8682 230.703   3
   5 -32   1 38.5693 239.592   3
   5 -32   1-322.220 204.152   2
 -27  32   1 120.628 280.507   1
  27   5   1 75.5497 203.948   1
  32  -5   1-226.912 281.574   4
  27   5   1 3.17129 248.857   4
  32  -5   1-136.723 230.320   2
  32  -4   0 169.727 243.284   2
  28   4   0 743.762 336.826   2
  -4 -28   0 260.893 236.590   3
   4 -32   0 254.122 238.354   3
 -28  32   0 374.920 269.038   1
   4 -32   0 399.101 199.155   2
  28   4   0 367.471 241.625   1
  32  -4   0 72.4830 261.326   4
  28   4   0 314.017 288.927   4
 -27  -6   0 187.748 188.948   3
  27 -33   0 148.477 231.075   4
  33 -27   0 318.957 257.155   4
  27 -33   0-221.032 215.104   2
  33 -27   0-178.613 217.330   2
 -26  -7  -1 187.246 190.759   3
  -7  33  -1-135.707 187.928   1
  26 -33  -1 690.472 292.397   4
   7  26  -1 87.1441 161.299   1
  33 -26  -1-6.69514 235.001   4
  26 -33  -1 252.447 189.706   2
  33 -26  -1-42.5833 207.036   2
 -25  -8  -2 51.5019 195.334   3
  25 -33  -2-97.6105 229.728   4
   8  25  -2 233.783 162.824   1
  33 -25  -2-113.169 238.967   4
  25 -33  -2 45.8034 178.941   2
  -8  33  -2 132.525 173.283   1
  33 -25  -2 220.116 231.887   2
  -8  33   1 608.369 255.705   1
 -25  -8   1 379.960 229.294   3
   8  25   1 580.560 227.451   1
  25 -33   1 319.813 262.986   4
  33 -25   1 559.903 302.809   4
  25 -33   1 782.518 249.972   2
  33 -25   1 312.490 252.539   2
 -24  -9   0 562.848 242.214   3
   9  24   0 679.342 228.809   1
  -9  33   0 788.336 249.113   1
  24 -33   0 382.675 262.799   4
  33 -24   0 989.020 312.284   4
  24 -33   0 700.699 250.697   2
  33 -24   0 555.851 247.338   2
 -23 -10  -1 474.641 218.878   3
  10  23  -1 521.100 194.636   1
  23 -33  -1 69.1153 233.239   4
  33 -23  -1 181.247 240.241   4
  23 -33  -1 109.859 173.221   2
 -10  33  -1 366.390 204.183   1
  33 -23  -1 236.057 235.623   2
  10  23   2 199.864 198.287   1
 -10  33   2 154.397 212.170   1
  23 -33   2-2.48171 212.216   4
  33 -23   2 341.064 245.961   4
  23 -33   2 52.5230 197.155   2
  33 -23   2 582.706 266.873   2
 -22 -11  -2 746.973 256.700   3
  11  22  -2 688.750 187.966   1
  22 -33  -2 165.138 227.157   4
  33 -22  -2-126.442 255.786   4
  22 -33  -2 285.123 179.866   2
  33 -22  -2 538.775 253.833   2
 -11  33  -2 467.990 211.306   1
  11  22   1 768.507 225.814   1
 -22 -11   1 272.238 223.350   3
 -11  33   1 139.374 201.800   1
  22 -33   1 222.940 244.649   4
  33 -22   1 257.715 234.197   4
  22 -33   1 323.548 206.034   2
  33 -22   1 102.472 224.094   2
  12  21  -3 1182.95 197.898   1
  21 -33  -3 903.946 282.459   4
 -12  33  -3 846.800 236.262   1
  33 -21  -3 1330.15 344.163   4
  21 -33  -3 848.184 189.108   2
  33 -21  -3 1055.24 301.025   2
  12  21   0 314.858 196.821   1
 -21 -12   0 430.451 254.398   3
  21 -33   0-43.9160 216.184   4
  33 -21   0 545.376 278.984   4
  21 -33   0 117.192 194.294   2
 -12  33   0-213.009 198.522   1
  33 -21   0 110.709 235.640   2
  12  21   3 1087.61 275.045   1
 -12  33   3 1219.53 322.367   1
  21 -33   3 896.520 242.775   3
  21 -33   3 1607.67 334.716   4
  21 -33   3 1186.82 285.624   2
  33 -21   3 1015.76 292.860   4
  33 -21   3 1293.61 295.470   2
 -21 -12   3 1934.91 318.293   3
  13  20  -1-0.26141 178.435   1
 -20 -13  -1 344.112 251.641   3
  20 -33  -1 307.573 260.281   4
  33 -20  -1 386.759 275.407   4
  20 -33  -1 251.269 169.047   2
  33 -20  -1-160.748 233.491   2
 -13  33  -1-28.5483 202.992   1
 -20 -13   2-381.902 209.678   3
  20 -33   2 68.2773 193.425   3
  20 -33   2 518.662 251.244   4
 -13  33   2-149.245 239.661   1
  20 -33   2 336.312 234.734   2
  33 -20   2 383.047 267.643   4
  33 -20   2 556.359 266.435   2
  13  20   2 168.708 213.587   1
  14  19  -2 264.901 161.135   1
 -19 -14  -2 525.772 253.332   3
 -14  33  -2 418.476 205.513   1
  19 -33  -2 604.954 266.376   4
  33 -19  -2 288.196 273.759   4
  19 -33  -2 38.0548 142.238   2
  33 -19  -2-169.556 264.087   2
 -19 -14   1 68.3322 191.994   3
  19 -33   1 23.4494 230.987   4
  33 -19   1 394.690 281.341   4
  19 -33   1 130.803 183.971   2
 -14  33   1 359.941 224.460   1
  33 -19   1 270.214 229.463   2
  14  19   1 164.830 187.790   1
 -19 -14   4 298.477 236.568   3
  19 -33   4 459.893 221.608   3
 -14  33   4 210.051 242.616   1
  19 -33   4 27.3159 247.888   4
  19 -33   4-97.0526 223.372   2
  33 -19   4 242.894 250.560   4
  33 -19   4-225.522 226.952   2
  14  19   4-369.751 254.582   1
 -18 -15  -3 1576.04 346.085   3
  18 -33  -3 1097.96 301.689   4
  33 -18  -3 1950.16 386.951   4
  15  18  -3 1623.03 218.625   1
  18 -33  -3 1266.97 195.536   2
 -15  33  -3 1247.79 285.579   1
  33 -18  -3 1404.76 321.057   2
 -18 -15   0 544.764 232.614   3
  18 -33   0 207.086 232.717   4
  33 -18   0 563.195 276.405   4
  18 -33   0 293.327 180.128   2
  33 -18   0-9.61594 217.371   2
 -15  33   0 490.820 225.610   1
  15  18   0 520.635 203.379   1
 -18 -15   3 628.847 239.191   3
  18 -33   3 1139.41 276.850   3
  18 -33   3 874.291 277.271   4
 -15  33   3 1098.44 299.552   1
  18 -33   3 976.170 256.990   2
  33 -18   3 951.559 331.866   4
  33 -18   3 978.568 282.552   2
  15  18   3 1406.75 297.057   1
 -16  33  -4-187.360 214.642   1
  17 -33  -4 341.681 242.320   4
  33 -17  -4 616.003 301.470   4
  33 -17  -4-385.091 266.731   2
 -16  33  -1 114.540 235.221   1
 -17 -16  -1 276.275 235.507   3
  17 -33  -1 494.378 267.816   4
  33 -17  -1 96.8632 224.825   4
  17 -33  -1-233.112 165.576   2
  33 -17  -1 210.689 239.168   2
  16  17  -1 213.660 173.630   1
 -17 -16   2 303.101 229.327   3
  17 -33   2 358.162 259.193   3
  17 -33   2-48.1320 237.498   4
  17 -33   2 283.061 198.036   2
  33 -17   2 269.525 238.845   4
 -16  33   2 580.896 223.795   1
  33 -17   2-61.5140 211.297   2
  16  17   2-283.275 212.046   1
 -16 -17  -2-471.577 263.601   3
  16 -33  -2 13.6773 218.561   4
  33 -16  -2 292.785 250.444   4
  16 -33  -2-72.4991 130.318   2
 -17  33  -2 6.25986 195.972   1
  17  16  -2 104.188 150.664   1
  33 -16  -2 316.439 256.295   2
 -16 -17   1-191.542 219.260   3
  16 -33   1 381.842 233.895   3
  16 -33   1 101.944 225.916   4
  16 -33   1-51.9146 172.069   2
  33 -16   1 182.588 225.170   4
  17  16   1-161.348 199.924   1
  33 -16   1-6.21138 211.883   2
 -17  33   1 307.205 244.581   1
 -16 -17   4-184.637 229.602   3
  16 -33   4-116.561 209.056   3
  16 -33   4 229.237 238.709   4
  16 -33   4 90.3531 189.546   2
 -17  33   4 85.7241 223.668   1
  33 -16   4-106.366 225.746   4
  33 -16   4-72.7180 211.675   2
  17  16   4 178.288 241.041   1
 -15 -18  -3 477.821 277.759   3
  15 -33  -3 1078.10 277.291   4
 -18  33  -3 942.371 281.614   1
  33 -15  -3 1108.40 328.151   4
  18  15  -3 872.315 191.808   1
  33 -15  -3 1527.43 363.908   2
 -18  33   0 219.499 226.413   1
 -15 -18   0 462.290 251.777   3
  18  15   0 793.820 278.548   2
  15 -33   0 285.659 230.732   4
  15 -33   0 511.125 197.106   2
  33 -15   0 520.156 274.836   4
  18  15   0 389.918 195.132   1
  33 -15   0 268.578 246.053   2
 -15 -18   3 884.967 277.502   3
  15 -33   3 1167.15 293.855   3
  18  15   3 1494.42 270.637   2
  15 -33   3 1414.51 356.326   4
  15 -33   3 1822.10 320.225   2
  33 -15   3 2061.94 380.295   4
 -18  33   3 1493.70 330.459   1
  33 -15   3 1078.06 306.469   2
  18  15   3 1137.81 278.642   1
  33 -14  -4-388.570 273.669   2
  14 -33  -4 254.479 246.521   4
  33 -14  -4 264.314 313.428   4
 -19  33  -4 201.490 226.762   1
 -14 -19  -1 61.4836 248.926   3
  19  14  -1 355.740 244.258   2
  14 -33  -1 451.205 225.561   4
  14 -33  -1 323.357 168.828   2
 -19  33  -1-16.6361 221.608   1
  33 -14  -1-445.662 276.539   4
  19  14  -1 90.4345 173.405   1
  33 -14  -1 445.553 242.779   2
 -14 -19   2 3.64689 214.750   3
  19  14   2 3.79335 201.425   2
  14 -33   2 318.488 242.090   3
  14 -33   2-199.144 229.967   4
  14 -33   2-76.9817 192.637   2
  33 -14   2 442.935 276.876   4
  19  14   2 404.589 237.305   1
  33 -14   2 279.133 220.472   2
 -19  33   2 229.111 230.642   1
 -20  33  -2 321.245 242.810   1
 -13 -20  -2 64.6390 237.098   3
  20  13  -2-43.9304 237.663   2
  13 -33  -2 61.9661 203.758   4
  13 -33  -2 120.142 134.050   2
  33 -13  -2 227.322 243.480   4
  20  13  -2 120.784 159.461   1
  33 -13  -2 360.334 248.353   2
 -20  33   1 230.373 221.005   1
 -13 -20   1 193.835 233.194   3
  20  13   1 211.021 223.738   2
  13 -33   1 416.084 250.915   3
  13 -33   1 302.118 247.240   4
  13 -33   1 715.870 230.019   2
  33 -13   1 689.992 284.363   4
  20  13   1 297.353 200.194   1
  33 -13   1 685.497 292.691   2
  33 -12  -3 1369.68 343.764   2
 -12 -21  -3 1156.34 328.860   3
  21  12  -3 711.068 313.087   2
  12 -33  -3 1711.38 342.738   4
 -21  33  -3 897.475 270.365   1
  33 -12  -3 1716.27 370.133   4
  21  12  -3 1137.76 212.989   1
 -12 -21   0 46.4370 218.547   3
  21  12   0 657.985 267.492   2
  12 -33   0 61.0669 219.326   3
  12 -33   0 439.191 255.570   4
  12 -33   0 490.013 188.174   2
 -21  33   0 439.748 241.952   1
  33 -12   0 227.896 283.956   4
  21  12   0 341.599 200.618   1
  33 -12   0 187.558 229.846   2
 -12 -21   3 821.523 273.839   3
  21  12   3 617.381 231.372   2
  12 -33   3 1043.79 323.276   3
  12 -33   3 967.319 332.331   4
  12 -33   3 1361.88 281.760   2
  33 -12   3 1446.41 341.287   4
  21  12   3 1314.98 307.651   1
  33 -12   3 1386.58 327.520   2
 -21  33   3 429.765 248.374   1
 -22  33  -1 646.542 265.556   1
  22  11  -1 596.782 282.646   2
 -11 -22  -1 159.340 223.050   3
  11 -33  -1 306.748 241.438   4
  11 -33  -1 174.717 139.981   2
  33 -11  -1 139.018 243.956   4
  22  11  -1 416.453 205.733   1
  33 -11  -1 247.149 249.560   2
  22  11   2 540.782 250.315   2
 -11 -22   2 218.609 236.169   3
  11 -33   2 1153.77 302.947   3
 -22  33   2 308.141 257.894   1
  11 -33   2 331.258 266.043   4
  11 -33   2 250.536 189.914   2
  33 -11   2 729.799 289.609   4
  22  11   2 863.892 269.263   1
  33 -11   2 52.2279 221.540   2
  23  10  -2 542.886 285.619   2
 -10 -23  -2 363.297 274.355   3
  10 -33  -2 434.019 257.094   4
  33 -10  -2 420.390 305.145   4
  23  10  -2 289.689 184.939   1
 -23  33  -2 528.637 269.985   1
  33 -10  -2 481.026 277.716   2
  23  10   1 233.557 225.112   2
 -10 -23   1-47.1485 234.828   3
  10 -33   1-324.748 264.528   3
  10 -33   1 359.148 258.450   4
  10 -33   1-100.785 166.935   2
 -23  33   1 423.883 251.087   1
  33 -10   1-232.333 246.355   4
  23  10   1 164.675 210.899   1
  23  10   1 69.6364 238.198   4
  33 -10   1-285.850 249.521   2
 -24  33   0 137.660 249.683   1
  24   9   0 564.447 274.318   2
  -9 -24   0 503.196 267.653   3
   9 -33   0 553.878 259.358   3
   9 -33   0 470.192 273.415   4
   9 -33   0 551.775 190.812   2
  24   9   0 879.414 245.954   1
  33  -9   0 668.572 331.836   4
  24   9   0 137.858 296.140   4
  33  -9   0 584.999 277.541   2
  25   8  -1 315.154 278.085   2
  -8 -25  -1 579.954 265.524   3
   8 -33  -1 994.904 308.882   3
   8 -33  -1 874.573 329.562   4
   8 -33  -1 799.495 196.205   2
  25   8  -1 881.164 250.217   1
  33  -8  -1 913.369 329.770   4
  25   8  -1 797.759 300.783   4
 -25  33  -1 408.635 286.754   1
  33  -8  -1 957.309 316.547   2
  25   8   2 34.9644 219.203   2
  -8 -25   2 583.909 255.766   3
   8 -33   2 612.047 289.322   3
   8 -33   2 366.820 218.482   2
  25   8   2 77.5257 222.805   1
  33  -8   2-113.484 256.107   4
 -25  33   2 211.434 255.968   1
  25   8   2 638.243 309.289   4
  33  -8   2 408.978 256.851   2
 -26  33   1 308.434 281.014   1
  26   7   1 449.739 247.250   2
  -7 -26   1-322.699 261.603   3
   7 -33   1 323.748 246.331   3
   7 -33   1-128.057 176.073   2
  26   7   1 436.637 243.342   1
  33  -7   1 122.433 260.075   4
  26   7   1 74.2668 246.017   4
  33  -7   1-182.425 255.995   2
  27   6   0 196.348 256.566   2
  -6 -27   0 176.107 250.972   3
   6 -33   0 575.961 270.670   3
   6 -33   0 31.8259 168.244   2
  27   6   0 89.5041 203.731   1
  33  -6   0 107.506 250.523   4
  27   6   0 97.5534 269.861   4
 -27  33   0 232.335 259.370   1
  33  -6   0 398.264 249.430   2
 -24 -10   1 438.787 243.802   3
  10  24   1-108.672 198.170   1
 -10  34   1 77.6617 197.892   1
  24 -34   1 18.4040 252.640   4
  34 -24   1 7.13709 252.648   4
  24 -34   1 23.8122 229.283   2
  34 -24   1-2.01892 227.383   2
  11  23   0 131.665 206.852   1
 -23 -11   0 65.6831 237.966   3
  23 -34   0 387.256 293.655   4
  34 -23   0-148.478 232.558   4
  23 -34   0 154.626 204.377   2
  34 -23   0-353.606 246.816   2
  12  22  -1 687.823 227.979   1
 -22 -12  -1 461.304 253.233   3
  22 -34  -1 671.033 271.182   4
  34 -22  -1 115.676 234.023   4
  22 -34  -1 398.299 194.396   2
  34 -22  -1 427.203 246.038   2
 -12  34  -1 615.874 243.649   1
  12  22   2-433.955 233.849   1
 -22 -12   2-120.373 199.869   3
 -12  34   2-121.060 237.652   1
  22 -34   2 373.462 259.497   4
  34 -22   2 546.859 275.672   4
  22 -34   2-148.349 209.096   2
  34 -22   2 290.030 249.172   2
  13  21  -2 382.629 174.186   1
 -13  34  -2 444.815 238.601   1
 -21 -13  -2 844.104 270.181   3
  21 -34  -2 446.549 267.609   4
  34 -21  -2 610.827 272.543   4
  21 -34  -2 221.904 168.851   2
  34 -21  -2 154.315 269.665   2
  13  21   1-188.052 197.158   1
 -21 -13   1 186.089 217.404   3
  21 -34   1 505.828 245.453   4
  34 -21   1 282.916 283.125   4
 -13  34   1 494.454 248.584   1
  21 -34   1 35.4806 194.773   2
  34 -21   1 667.233 285.289   2
 -20 -14   0 204.801 215.249   3
  20 -34   0 421.453 233.429   4
  34 -20   0 268.172 243.982   4
  20 -34   0 471.946 204.277   2
 -14  34   0 164.927 210.855   1
  34 -20   0 327.405 249.263   2
  14  20   0 677.984 234.127   1
 -15  34  -1 112.501 197.930   1
 -19 -15  -1-140.065 251.422   3
  19 -34  -1 398.437 251.852   4
  34 -19  -1 42.1244 247.821   4
  19 -34  -1 150.184 170.535   2
  34 -19  -1 332.042 263.021   2
  15  19  -1 51.8211 161.920   1
 -19 -15   2 720.845 264.648   3
  19 -34   2-39.2608 187.933   3
  19 -34   2 266.111 250.817   4
  19 -34   2 495.456 218.100   2
  34 -19   2 40.2530 248.853   4
 -15  34   2 429.637 248.990   1
  34 -19   2 593.117 262.000   2
  15  19   2 373.031 226.105   1
 -18 -16  -2 59.7211 251.776   3
  18 -34  -2 406.872 233.417   4
 -16  34  -2 184.756 215.594   1
  34 -18  -2 431.124 269.562   4
  18 -34  -2 416.554 164.240   2
  34 -18  -2-122.469 253.984   2
  16  18  -2 108.131 158.481   1
 -18 -16   1 42.5666 209.446   3
  18 -34   1-28.5318 232.817   4
  18 -34   1-62.7052 172.354   2
  34 -18   1-65.6270 219.526   4
 -16  34   1 330.569 237.668   1
  34 -18   1 49.5428 225.487   2
  16  18   1-32.8798 195.786   1
 -17  34  -3 1513.72 307.380   1
 -17 -17  -3 1091.49 292.696   3
  17 -34  -3 1678.26 352.920   4
  34 -17  -3 1694.47 372.875   4
  17  17  -3 1484.15 222.350   1
  34 -17  -3 1795.51 362.974   2
 -17  34   0-200.101 208.850   1
 -17 -17   0 239.755 223.618   3
  17 -34   0 410.561 262.125   4
  17 -34   0 638.635 203.751   2
  34 -17   0 75.1377 243.163   4
  34 -17   0 510.941 267.974   2
  17  17   0 320.546 203.257   1
 -17 -17   3 1979.38 337.712   3
  17 -34   3 1462.57 302.300   3
  17 -34   3 1002.13 317.803   4
  17 -34   3 1768.12 327.643   2
  34 -17   3 1683.36 361.005   4
 -17  34   3 695.682 271.549   1
  34 -17   3 1288.11 324.602   2
  17  17   3 1660.12 325.753   1
 -16 -18  -1 36.4357 246.985   3
  16 -34  -1-37.4726 244.387   4
 -18  34  -1-64.5215 245.345   1
  34 -16  -1 418.628 289.053   4
  16 -34  -1-299.722 176.425   2
  18  16  -1 47.8325 175.375   1
  34 -16  -1 733.876 278.383   2
 -16 -18   2 327.455 219.335   3
  16 -34   2-125.434 219.613   3
  18  16   2 464.215 221.622   2
  16 -34   2 51.9157 237.680   4
  16 -34   2 411.317 235.693   2
  34 -16   2 572.373 273.453   4
  34 -16   2-151.930 232.951   2
  18  16   2 240.305 221.982   1
 -18  34   2 298.296 245.146   1
 -15 -19  -2 148.744 252.105   3
  15 -34  -2 221.344 244.665   4
  34 -15  -2 75.7990 280.130   4
  15 -34  -2 263.423 148.397   2
  19  15  -2 268.816 173.045   1
  34 -15  -2 697.416 293.779   2
 -19  34  -2 117.911 204.975   1
 -19  34   1-54.8355 224.055   1
 -15 -19   1 101.318 232.746   3
  19  15   1 301.579 234.158   2
  15 -34   1 161.937 214.619   3
  15 -34   1 266.438 251.138   4
  15 -34   1 18.3880 187.878   2
  34 -15   1 323.626 261.690   4
  19  15   1 55.9700 219.311   1
  34 -15   1 590.850 300.600   2
 -14 -20   0 698.895 280.190   3
  20  14   0 581.252 246.301   2
  14 -34   0 646.595 248.065   3
  14 -34   0 682.797 289.775   4
 -20  34   0 419.357 214.793   1
  14 -34   0 605.460 203.324   2
  34 -14   0 386.629 277.997   4
  20  14   0 750.751 233.698   1
  34 -14   0 430.885 242.129   2
 -13 -21  -1 499.116 246.591   3
  21  13  -1 432.381 269.564   2
  13 -34  -1 231.344 243.040   4
  13 -34  -1 260.934 169.774   2
  34 -13  -1 224.417 263.477   4
  21  13  -1 104.357 170.277   1
 -21  34  -1 648.145 264.894   1
  34 -13  -1-118.102 266.096   2
 -21  34   2 430.664 283.127   1
 -13 -21   2 133.931 235.687   3
  21  13   2 324.338 249.815   2
  13 -34   2 65.3756 249.365   3
  13 -34   2 948.396 307.709   4
  13 -34   2 186.018 191.499   2
  34 -13   2-54.1132 235.780   4
  21  13   2 446.060 250.450   1
  34 -13   2 478.329 306.555   2
  22  12  -2-45.7989 254.137   2
 -12 -22  -2 168.357 250.593   3
  12 -34  -2 401.690 270.059   4
 -22  34  -2 35.2304 242.096   1
  34 -12  -2-169.177 258.819   4
  22  12  -2 269.914 187.169   1
  34 -12  -2-70.0692 248.736   2
 -12 -22   1 674.672 278.412   3
  22  12   1 185.920 231.538   2
  12 -34   1 394.492 233.879   3
  12 -34   1 537.769 283.167   4
 -22  34   1 384.289 251.148   1
  12 -34   1 339.649 194.400   2
  34 -12   1 442.022 274.400   4
  22  12   1 338.889 213.721   1
  34 -12   1 376.800 248.838   2
  23  11   0 642.423 316.524   2
 -11 -23   0 560.986 269.760   3
  11 -34   0 552.905 268.704   3
  11 -34   0 163.237 259.999   4
  11 -34   0 313.045 183.234   2
  34 -11   0-265.261 266.736   4
  23  11   0 30.5158 194.060   1
 -23  34   0-213.603 231.636   1
  34 -11   0 612.175 290.052   2
  24  10  -1 201.517 272.728   2
 -10 -24  -1 366.925 283.886   3
  10 -34  -1 840.475 291.625   4
 -24  34  -1 296.955 245.742   1
  10 -34  -1 522.806 170.221   2
  34 -10  -1 108.937 277.441   4
  24  10  -1 416.378 231.942   1
  24  10  -1 620.390 272.045   4
  34 -10  -1 373.070 264.460   2
 -19 -16   0 1118.20 299.929   3
  19 -35   0 1196.93 329.794   4
  35 -19   0 1972.69 397.995   4
  19 -35   0 1560.72 257.848   2
  35 -19   0 1598.90 344.879   2
  16  19   0 1730.56 287.068   1
 -16  35   0 1665.59 340.478   1
 -18 -17  -1-195.651 242.754   3
 -17  35  -1 735.665 265.075   1
  18 -35  -1 173.598 233.864   4
  35 -18  -1 575.364 309.392   4
  18 -35  -1 101.065 167.932   2
  35 -18  -1 121.697 274.973   2
  17  18  -1-225.486 181.498   1
 -17 -18   1-219.569 242.152   3
  17 -35   1 170.455 210.397   3
  17 -35   1 894.424 323.840   4
  17 -35   1 449.332 229.052   2
  35 -17   1 403.733 271.436   4
  35 -17   1 40.4526 269.153   2
  18  17   1-266.872 203.749   1
 -18  35   1 381.610 271.327   1
 -16 -19   0 1476.92 327.947   3
 -19  35   0 1490.73 343.149   1
  16 -35   0 1822.67 355.816   4
  16 -35   0 1975.97 290.327   2
  35 -16   0 2158.10 407.226   4
  19  16   0 1349.46 270.161   1
  35 -16   0 1727.96 352.962   2
   0   0   0    0.00    0.00   0

TITL YY_Zn_Gly_Pyr_benzene in R3c
REM R3c (#161 in standard setting)
CELL 0.71073  29.567668  29.567668  10.123695  90.0000  90.0000 120.0000
ZERR   18.00   0.001052   0.001052   0.000324   0.0000   0.0000   0.0000
LATT -3
SYMM -y, x-y, z
SYMM -x+y,-x, z
SYMM -y,-x, z+1/2
SYMM -x+y, y, z+1/2
SYMM  x, x-y, z+1/2
SFAC C H N O Zn
UNIT 144.00 144.00 54.00 54.00 18.00
TREF
HKLF 4
END
;
_shelx_hkl_checksum              88339
_olex2_submission_special_instructions 'No special instructions were received'
_oxdiff_exptl_absorpt_empirical_details
;
Empirical correction (ABSPACK) includes:
- Absorption correction using spherical harmonics
- Frame scaling
;
_oxdiff_exptl_absorpt_empirical_full_max 1.257
_oxdiff_exptl_absorpt_empirical_full_min 0.800
loop_
_space_group_symop_operation_xyz
'x, y, z'
'-y, x-y, z'
'-x+y, -x, z'
'-x+y, y, z+1/2'
'x, x-y, z+1/2'
'-y, -x, z+1/2'
'x+2/3, y+1/3, z+1/3'
'-y+2/3, x-y+1/3, z+1/3'
'-x+y+2/3, -x+1/3, z+1/3'
'-x+y+2/3, y+1/3, z+5/6'
'x+2/3, x-y+1/3, z+5/6'
'-y+2/3, -x+1/3, z+5/6'
'x+1/3, y+2/3, z+2/3'
'-y+1/3, x-y+2/3, z+2/3'
'-x+y+1/3, -x+2/3, z+2/3'
'-x+y+1/3, y+2/3, z+7/6'
'x+1/3, x-y+2/3, z+7/6'
'-y+1/3, -x+2/3, z+7/6'
loop_
_atom_site_label
_atom_site_type_symbol
_atom_site_fract_x
_atom_site_fract_y
_atom_site_fract_z
_atom_site_U_iso_or_equiv
_atom_site_adp_type
_atom_site_occupancy
_atom_site_site_symmetry_order
_atom_site_calc_flag
_atom_site_refinement_flags_posn
_atom_site_refinement_flags_adp
_atom_site_refinement_flags_occupancy
_atom_site_disorder_assembly
_atom_site_disorder_group
Zn1 Zn 0.31110(4) 0.31374(4) 0.60362(14) 0.0187(3) Uani 1 1 d . . . . .
O2 O 0.2749(3) 0.3544(3) 0.5844(7) 0.0245(16) Uani 1 1 d . . . . .
C6 C 0.2947(4) 0.3911(4) 0.5014(9) 0.022(2) Uani 1 1 d . . . . .
N2 N 0.2995(3) 0.2663(3) 0.4541(7) 0.0206(13) Uani 1 1 d . . . . .
C1 C 0.4267(4) 0.3928(4) 0.5863(10) 0.023(2) Uani 1 1 d . . . . .
H1 H 0.4268 0.3972 0.4933 0.028 Uiso 1 1 calc R . . . .
N1 N 0.3839(3) 0.3620(3) 0.6577(8) 0.0206(13) Uani 1 1 d . . . . .
O1 O 0.2708(3) 0.2647(3) 0.7455(6) 0.0221(16) Uani 1 1 d . . . . .
C2 C 0.2807(4) 0.2150(4) 0.4587(9) 0.022(2) Uani 1 1 d . . . . .
H2 H 0.2692 0.1942 0.5365 0.027 Uiso 1 1 calc R . . . .
C5 C 0.2810(4) 0.4338(4) 0.5121(9) 0.022(2) Uani 1 1 d . . . . .
H5A H 0.3040 0.4594 0.5791 0.026 Uiso 1 1 calc R . . . .
H5B H 0.2883 0.4522 0.4263 0.026 Uiso 1 1 calc R . . . .
C3 C 0.4704(4) 0.4174(4) 0.6658(9) 0.023(2) Uani 1 1 d . . . . .
N3 N 0.2273(3) 0.4155(4) 0.5477(8) 0.026(2) Uani 1 1 d . . . . .
H3 H 0.2185 0.4121 0.6317 0.031 Uiso 1 1 calc R . . . .
C4 C 0.5233(4) 0.4533(3) 0.6209(9) 0.021(2) Uani 1 1 d . . . . .
O3 O 0.5344(3) 0.4612(3) 0.5008(6) 0.0333(19) Uani 1 1 d . . . . .
C12B C 0.4842(8) 0.5465(8) 0.396(2) 0.040(8) Uiso 0.381(16) 1 d . . P A 2
H12B H 0.5007 0.5284 0.4303 0.048 Uiso 0.381(16) 1 calc R . P A 2
C7B C 0.4320(8) 0.5190(6) 0.359(3) 0.054(11) Uiso 0.381(16) 1 d G . P A 2
H7B H 0.4127 0.4820 0.3676 0.065 Uiso 0.381(16) 1 calc R . P A 2
C8B C 0.4079(7) 0.5455(9) 0.309(3) 0.068(13) Uiso 0.381(16) 1 d G . P A 2
H8B H 0.3722 0.5266 0.2840 0.082 Uiso 0.381(16) 1 calc R . P A 2
C9B C 0.4360(9) 0.5995(9) 0.297(2) 0.074(13) Uiso 0.381(16) 1 d G . P A 2
H9B H 0.4196 0.6176 0.2631 0.088 Uiso 0.381(16) 1 calc R . P A 2
C10B C 0.4883(8) 0.6270(6) 0.334(2) 0.038(8) Uiso 0.381(16) 1 d G . P A 2
H10B H 0.5075 0.6640 0.3257 0.045 Uiso 0.381(16) 1 calc R . P A 2
C11B C 0.5123(6) 0.6006(8) 0.384(3) 0.051(10) Uiso 0.381(16) 1 d G . P A 2
H11B H 0.5480 0.6194 0.4093 0.062 Uiso 0.381(16) 1 calc R . P A 2
C10C C 0.3387(12) 0.5741(13) 0.427(2) 0.091(14) Uiso 0.346(15) 1 d . U P B 3
H10C H 0.3482 0.5900 0.5114 0.109 Uiso 0.346(15) 1 calc R . P B 3
C11C C 0.3731(10) 0.5640(13) 0.356(3) 0.075(13) Uiso 0.346(15) 1 d G U P B 3
H11C H 0.4062 0.5731 0.3931 0.091 Uiso 0.346(15) 1 calc R . P B 3
C12C C 0.3592(10) 0.5407(13) 0.233(3) 0.074(12) Uiso 0.346(15) 1 d G U P B 3
H12C H 0.3827 0.5339 0.1847 0.089 Uiso 0.346(15) 1 calc R . P B 3
C7C C 0.3108(11) 0.5274(11) 0.179(2) 0.063(11) Uiso 0.346(15) 1 d G U P B 3
H7C H 0.3013 0.5115 0.0945 0.076 Uiso 0.346(15) 1 calc R . P B 3
C8C C 0.2764(9) 0.5374(11) 0.249(3) 0.042(9) Uiso 0.346(15) 1 d G U P B 3
H8C H 0.2433 0.5283 0.2127 0.051 Uiso 0.346(15) 1 calc R . P B 3
C9C C 0.2903(11) 0.5608(12) 0.373(3) 0.067(12) Uiso 0.346(15) 1 d G U P B 3
H9C H 0.2668 0.5676 0.4212 0.080 Uiso 0.346(15) 1 calc R . P B 3
C7A C 0.4649(9) 0.5142(6) 0.389(2) 0.073(10) Uiso 0.479(19) 1 d . U P C -1
H7A H 0.4473 0.4780 0.4086 0.087 Uiso 0.479(19) 1 calc R . P C -1
C8A C 0.4878(9) 0.5506(8) 0.4903(17) 0.056(9) Uiso 0.479(19) 1 d G U P C -1
H8A H 0.4858 0.5391 0.5788 0.067 Uiso 0.479(19) 1 calc R . P C -1
C9A C 0.5135(8) 0.6037(7) 0.4619(19) 0.049(8) Uiso 0.479(19) 1 d G U P C -1
H9A H 0.5291 0.6285 0.5310 0.059 Uiso 0.479(19) 1 calc R . P C -1
C10A C 0.5163(9) 0.6204(7) 0.332(2) 0.062(9) Uiso 0.479(19) 1 d G U P C -1
H10A H 0.5338 0.6567 0.3129 0.075 Uiso 0.479(19) 1 calc R . P C -1
C11A C 0.4934(10) 0.5841(10) 0.2312(17) 0.087(12) Uiso 0.479(19) 1 d G U P C -1
H11A H 0.4953 0.5956 0.1427 0.105 Uiso 0.479(19) 1 calc R . P C -1
C12A C 0.4677(10) 0.5310(9) 0.2596(19) 0.093(13) Uiso 0.479(19) 1 d G U P C -1
H12A H 0.4521 0.5062 0.1905 0.112 Uiso 0.479(19) 1 calc R . P C -1
loop_
_atom_site_aniso_label
_atom_site_aniso_U_11
_atom_site_aniso_U_22
_atom_site_aniso_U_33
_atom_site_aniso_U_23
_atom_site_aniso_U_13
_atom_site_aniso_U_12
Zn1 0.0251(7) 0.0214(7) 0.0096(5) -0.0003(5) -0.0011(5) 0.0117(5)
O2 0.030(4) 0.031(4) 0.017(4) 0.003(3) 0.002(3) 0.018(3)
C6 0.018(5) 0.035(6) 0.010(5) 0.000(4) -0.005(4) 0.010(5)
N2 0.028(3) 0.024(3) 0.008(3) -0.005(3) 0.000(2) 0.011(3)
C1 0.017(5) 0.028(6) 0.015(5) 0.000(4) 0.000(4) 0.005(5)
N1 0.028(3) 0.024(3) 0.008(3) -0.005(3) 0.000(2) 0.011(3)
O1 0.025(4) 0.029(4) 0.011(3) 0.004(3) 0.001(3) 0.013(3)
C2 0.032(6) 0.023(5) 0.012(5) 0.002(4) -0.001(4) 0.014(5)
C5 0.022(5) 0.031(6) 0.012(5) -0.003(4) 0.004(4) 0.014(5)
C3 0.031(6) 0.021(5) 0.015(5) -0.003(4) -0.003(4) 0.012(5)
N3 0.032(5) 0.035(5) 0.009(4) -0.001(4) 0.003(3) 0.015(4)
C4 0.023(5) 0.012(5) 0.020(6) -0.004(4) -0.002(4) 0.003(4)
O3 0.032(4) 0.043(5) 0.009(4) 0.004(3) 0.005(3) 0.007(4)
loop_
_atom_type_symbol
_atom_type_description
_atom_type_scat_dispersion_real
_atom_type_scat_dispersion_imag
_atom_type_scat_source
C C 0.0033 0.0016 'International Tables Vol C Tables 4.2.6.8 and 6.1.1.4'
H H 0.0000 0.0000 'International Tables Vol C Tables 4.2.6.8 and 6.1.1.4'
N N 0.0061 0.0033 'International Tables Vol C Tables 4.2.6.8 and 6.1.1.4'
O O 0.0106 0.0060 'International Tables Vol C Tables 4.2.6.8 and 6.1.1.4'
Zn Zn 0.2839 1.4301 'International Tables Vol C Tables 4.2.6.8 and 6.1.1.4'
loop_
_geom_angle_atom_site_label_1
_geom_angle_atom_site_label_2
_geom_angle_atom_site_label_3
_geom_angle
_geom_angle_site_symmetry_1
_geom_angle_site_symmetry_3
_geom_angle_publ_flag
N2 Zn1 O2 113.7(3) . . ?
N2 Zn1 N1 117.7(3) . . ?
N1 Zn1 O2 108.3(3) . . ?
O1 Zn1 O2 102.0(3) . . ?
O1 Zn1 N2 102.2(3) . . ?
O1 Zn1 N1 111.8(3) . . ?
C6 O2 Zn1 115.5(6) . . ?
O2 C6 O1 124.3(10) . 15_554 ?
O2 C6 C5 118.1(9) . . ?
O1 C6 C5 117.5(9) 15_554 . ?
N1 N2 Zn1 123.8(6) 15_554 . ?
C2 N2 Zn1 127.5(7) . . ?
C2 N2 N1 108.7(8) . 15_554 ?
N1 C1 C3 111.1(9) . . ?
N2 N1 Zn1 122.4(6) 8 . ?
C1 N1 Zn1 131.2(7) . . ?
C1 N1 N2 106.3(8) . 8 ?
C6 O1 Zn1 140.5(7) 8 . ?
N2 C2 C3 109.7(8) . 15_554 ?
N3 C5 C6 114.1(9) . . ?
C1 C3 C2 104.2(9) . 8 ?
C1 C3 C4 125.7(9) . . ?
C2 C3 C4 130.1(9) 8 . ?
C4 N3 C5 121.4(8) 11_454 . ?
N3 C4 C3 117.7(8) 17_554 . ?
O3 C4 C3 121.7(9) . . ?
O3 C4 N3 120.6(9) . 17_554 ?
C7B C12B C11B 120.0 . . ?
C12B C7B C8B 120.0 . . ?
C7B C8B C9B 120.0 . . ?
C10B C9B C8B 120.0 . . ?
C9B C10B C11B 120.0 . . ?
C10B C11B C12B 120.0 . . ?
C11C C10C C9C 120.0 . . ?
C12C C11C C10C 120.0 . . ?
C11C C12C C7C 120.0 . . ?
C8C C7C C12C 120.0 . . ?
C7C C8C C9C 120.0 . . ?
C8C C9C C10C 120.0 . . ?
C8A C7A C12A 120.0 . . ?
C9A C8A C7A 120.0 . . ?
C8A C9A C10A 120.0 . . ?
C9A C10A C11A 120.0 . . ?
C12A C11A C10A 120.0 . . ?
C11A C12A C7A 120.0 . . ?
loop_
_geom_bond_atom_site_label_1
_geom_bond_atom_site_label_2
_geom_bond_distance
_geom_bond_site_symmetry_2
_geom_bond_publ_flag
Zn1 O2 1.978(7) . ?
Zn1 N2 1.973(8) . ?
Zn1 N1 1.974(9) . ?
Zn1 O1 1.964(6) . ?
O2 C6 1.262(12) . ?
C6 O1 1.277(12) 15_554 ?
C6 C5 1.508(15) . ?
N2 N1 1.384(11) 15_554 ?
N2 C2 1.332(13) . ?
C1 N1 1.341(13) . ?
C1 C3 1.382(13) . ?
N1 N2 1.384(11) 8 ?
O1 C6 1.276(12) 8 ?
C2 C3 1.391(13) 15_554 ?
C5 N3 1.446(13) . ?
C3 C2 1.391(13) 8 ?
C3 C4 1.455(14) . ?
N3 C4 1.358(13) 11_454 ?
C4 N3 1.358(13) 17_554 ?
C4 O3 1.251(11) . ?
C12B C7B 1.3900 . ?
C12B C11B 1.3900 . ?
C7B C8B 1.3900 . ?
C8B C9B 1.3900 . ?
C9B C10B 1.3900 . ?
C10B C11B 1.3900 . ?
C10C C11C 1.3900 . ?
C10C C9C 1.3900 . ?
C11C C12C 1.3900 . ?
C12C C7C 1.3900 . ?
C7C C8C 1.3900 . ?
C8C C9C 1.3900 . ?
C7A C8A 1.3900 . ?
C7A C12A 1.3900 . ?
C8A C9A 1.3900 . ?
C9A C10A 1.3900 . ?
C10A C11A 1.3900 . ?
C11A C12A 1.3900 . ?
