#------------------------------------------------------------------------------
#$Date: 2021-02-04 02:56:53 +0200 (Thu, 04 Feb 2021) $
#$Revision: 261479 $
#$URL: file:///home/coder/svn-repositories/cod/cif/4/13/56/4135614.cif $
#------------------------------------------------------------------------------
#
# This file is available in the Crystallography Open Database (COD),
# http://www.crystallography.net/
#
# All data on this site have been placed in the public domain by the
# contributors.
#
data_4135614
loop_
_publ_author_name
'Vilela, S\'ergio M F'
'Navarro, Jorge A. R.'
'Barbosa, Paula'
'Mendes, Ricardo F.'
'P\'erez-S\'anchez, Germ\'an'
'Nowell, Harriott'
'Ananias, Duarte'
'Figueiredo, Filipe'
'Gomes, Jos\'e R B'
'Tom\'e, Jo\~ao P C'
'Paz, Filipe A Almeida'
_publ_section_title
;
 Multifunctionality in an Ion-Exchanged Porous Metal-Organic Framework.
;
_journal_issue                   3
_journal_name_full               'Journal of the American Chemical Society'
_journal_page_first              1365
_journal_page_last               1376
_journal_paper_doi               10.1021/jacs.0c10421
_journal_volume                  143
_journal_year                    2021
_chemical_formula_moiety         'C24 H21 O9 P3, 3(C H4 O)'
_chemical_formula_sum            'C27 H33 O12 P3'
_chemical_formula_weight         642.44
_space_group_crystal_system      monoclinic
_space_group_IT_number           9
_space_group_name_Hall           'C -2yc'
_space_group_name_H-M_alt        'C 1 c 1'
_atom_sites_solution_hydrogens   geom
_audit_creation_date             '26 November 2019'
_audit_creation_method           'SHELXL-2018/3, manual editing plus enCIFer'
_cell_angle_alpha                90
_cell_angle_beta                 104.358(3)
_cell_angle_gamma                90
_cell_formula_units_Z            4
_cell_length_a                   16.1261(8)
_cell_length_b                   24.9525(13)
_cell_length_c                   7.5650(4)
_cell_measurement_reflns_used    4884
_cell_measurement_temperature    150(2)
_cell_measurement_theta_max      28.47
_cell_measurement_theta_min      2.77
_cell_volume                     2949.0(3)
_computing_cell_refinement       'SAINT V8.37a   (Bruker, 2015)'
_computing_data_collection       'APEX3 2016.9-0 (Bruker, 2016)'
_computing_data_reduction        'SAINT V8.37a   (Bruker, 2015)'
_computing_molecular_graphics    'DIAMOND (Brandenburg, 1999)'
_computing_publication_material  'SHELXL-2018/3 (Sheldrick, 2015b)'
_computing_structure_refinement  'SHELXL-2018/3 (Sheldrick, 2015b)'
_computing_structure_solution    'SHELXT 2014/5 (Sheldrick, 2015a)'
_diffrn_ambient_temperature      150(2)
_diffrn_measured_fraction_theta_full 0.997
_diffrn_measured_fraction_theta_max 0.996
_diffrn_measurement_device_type  'Bruker X8 Kappa CCD APEX II'
_diffrn_measurement_method       '\w / \f scans'
_diffrn_radiation_monochromator  graphite
_diffrn_radiation_type           MoK\a
_diffrn_radiation_wavelength     0.71073
_diffrn_reflns_av_R_equivalents  0.0318
_diffrn_reflns_av_unetI/netI     0.0538
_diffrn_reflns_Laue_measured_fraction_full 0.997
_diffrn_reflns_Laue_measured_fraction_max 0.996
_diffrn_reflns_limit_h_max       22
_diffrn_reflns_limit_h_min       -21
_diffrn_reflns_limit_k_max       34
_diffrn_reflns_limit_k_min       -28
_diffrn_reflns_limit_l_max       10
_diffrn_reflns_limit_l_min       -10
_diffrn_reflns_number            16071
_diffrn_reflns_point_group_measured_fraction_full 0.992
_diffrn_reflns_point_group_measured_fraction_max 0.970
_diffrn_reflns_theta_full        25.242
_diffrn_reflns_theta_max         29.130
_diffrn_reflns_theta_min         3.688
_diffrn_source                   'fine-focus sealed tube'
_exptl_absorpt_coefficient_mu    0.265
_exptl_absorpt_correction_T_max  0.9921
_exptl_absorpt_correction_T_min  0.9715
_exptl_absorpt_correction_type   multi-scan
_exptl_absorpt_process_details
; 
  SADABS-2016/2
  Reference: Krause, L., Herbst-Irmer, R., Sheldrick G.M. & Stalke D.,
  J. Appl. Cryst. 48 (2015) 3-10.
;
_exptl_crystal_colour            Colourless
_exptl_crystal_density_diffrn    1.447
_exptl_crystal_description       Needle
_exptl_crystal_F_000             1344
_exptl_crystal_size_max          0.110
_exptl_crystal_size_mid          0.040
_exptl_crystal_size_min          0.030
_refine_diff_density_max         0.290
_refine_diff_density_min         -0.302
_refine_diff_density_rms         0.053
_refine_ls_abs_structure_details
;
 Flack x determined using 2777 quotients [(I+)-(I-)]/[(I+)+(I-)]
 (Parsons, Flack and Wagner, Acta Cryst. B69 (2013) 249-259).
;
_refine_ls_abs_structure_Flack   0.04(4)
_refine_ls_extinction_method     none
_refine_ls_goodness_of_fit_ref   1.021
_refine_ls_hydrogen_treatment    constr
_refine_ls_matrix_type           full
_refine_ls_number_parameters     391
_refine_ls_number_reflns         7706
_refine_ls_number_restraints     2
_refine_ls_restrained_S_all      1.021
_refine_ls_R_factor_all          0.0509
_refine_ls_R_factor_gt           0.0391
_refine_ls_shift/su_max          0.001
_refine_ls_shift/su_mean         0.000
_refine_ls_structure_factor_coef Fsqd
_refine_ls_weighting_details
'w=1/[\s^2^(Fo^2^)+(0.0407P)^2^+0.0381P] where P=(Fo^2^+2Fc^2^)/3'
_refine_ls_weighting_scheme      calc
_refine_ls_wR_factor_gt          0.0796
_refine_ls_wR_factor_ref         0.0850
_reflns_Friedel_coverage         0.944
_reflns_Friedel_fraction_full    0.986
_reflns_Friedel_fraction_max     0.945
_reflns_number_gt                6656
_reflns_number_total             7706
_reflns_threshold_expression     'I > 2\s(I)'
_cod_data_source_file            ja0c10421_si_003.cif
_cod_data_source_block           L
_cod_original_sg_symbol_H-M      'C c'
_cod_database_code               4135614
_shelx_shelxl_version_number     2018/3
_shelx_space_group_comment
;
The symmetry employed for this shelxl refinement is uniquely defined
by the following loop, which should always be used as a source of
symmetry information in preference to the above space-group names.
They are only intended as comments.
;
_shelx_estimated_absorpt_t_min   0.971
_shelx_estimated_absorpt_t_max   0.992
_exptl_absorpt_special_details
;
?
;
_shelx_res_file
;
TITL FP_12_012 in Cc
    fp_12_012.res
    created by SHELXL-2018/3 at 13:21:40 on 26-Nov-2019
CELL 0.71073  16.1261  24.9525   7.5650  90.000 104.358  90.000
ZERR    4.00   0.0008   0.0013   0.0004   0.000   0.003   0.000
LATT -7
SYMM X, -Y, 0.5+Z
SFAC C  H  O  P
UNIT 108 132 48 12

LIST 4

L.S. 18

BOND $H
ACTA
CONF
WPDB

TEMP -123.000
SIZE 0.11 0.04 0.03
REM Colourless Needle
SHEL 5.8 0.73

EQIV $1 x-1/2, y-1/2, z
EQIV $2 x-1/2, -y+1/2, z-1/2
EQIV $3 x+1, -y+1, z+1/2
EQIV $4 x+1, -y+1, z+3/2
EQIV $5 x+1/2, -y+1/2, z+1/2
EQIV $6 x, -y+1, z+1/2
EQIV $7 x-1/2, y+1/2, z-1
EQIV $8 x-1/2, y-1/2, z-1
EQIV $9 x-1/2, -y+1/2, z-3/2

HTAB C17 O2_$1
HTAB C21 O4_$2
HTAB O2 O12_$3
HTAB O3 O11_$4
HTAB O4 O10_$5
HTAB O5 O1_$6
HTAB O7 O6_$7
HTAB O8 O9_$6
HTAB O10 O1_$8
HTAB O11 O6_$9
HTAB O12 O9
HTAB

FMAP 2
PLAN -5

WGHT    0.040700    0.038100
FVAR       0.07850
C1    1    0.883106    0.512089    0.839427    11.00000    0.01715    0.01518 =
         0.01898    0.00003    0.00305   -0.00023
C2    1    0.907134    0.458626    0.870879    11.00000    0.01608    0.01628 =
         0.02337    0.00126    0.00333   -0.00034
AFIX  43
H2    2    0.964745    0.450485    0.931238    11.00000   -1.20000
AFIX   0
C3    1    0.849549    0.416882    0.816803    11.00000    0.01937    0.01428 =
         0.01879    0.00155    0.00479    0.00088
C4    1    0.764627    0.428926    0.728364    11.00000    0.01738    0.01371 =
         0.02176   -0.00040    0.00222   -0.00227
AFIX  43
H4    2    0.724235    0.400686    0.695346    11.00000   -1.20000
AFIX   0
C5    1    0.738293    0.481923    0.687817    11.00000    0.01816    0.01610 =
         0.01937   -0.00126    0.00542   -0.00049
C6    1    0.798345    0.522748    0.746353    11.00000    0.01907    0.01059 =
         0.02613    0.00211    0.00268    0.00005
AFIX  43
H6    2    0.780954    0.558941    0.722051    11.00000   -1.20000
AFIX   0
C7    1    0.946299    0.555998    0.896027    11.00000    0.01714    0.01355 =
         0.02284   -0.00105    0.00627   -0.00188
C8    1    0.929792    0.607467    0.826663    11.00000    0.01799    0.02088 =
         0.02969    0.00495   -0.00046   -0.00100
AFIX  43
H8    2    0.876012    0.614930    0.745040    11.00000   -1.20000
AFIX   0
C9    1    0.989452    0.648235    0.873020    11.00000    0.02229    0.01431 =
         0.02953    0.00465    0.00164   -0.00189
AFIX  43
H9    2    0.976056    0.683209    0.824746    11.00000   -1.20000
AFIX   0
C10   1    1.069017    0.637973    0.990304    11.00000    0.01674    0.01405 =
         0.02504   -0.00228    0.00658   -0.00303
C11   1    1.085917    0.586899    1.063813    11.00000    0.01734    0.02080 =
         0.03359    0.00250   -0.00027    0.00142
AFIX  43
H11   2    1.139612    0.579506    1.145860    11.00000   -1.20000
AFIX   0
C12   1    1.025433    0.546913    1.018655    11.00000    0.02225    0.01479 =
         0.03627    0.00267    0.00162    0.00000
AFIX  43
H12   2    1.037778    0.512440    1.071995    11.00000   -1.20000
AFIX   0
C13   1    0.880545    0.360913    0.857859    11.00000    0.01667    0.01349 =
         0.01820   -0.00106   -0.00076    0.00116
C14   1    0.965495    0.348033    0.858327    11.00000    0.02188    0.01620 =
         0.02474    0.00108    0.00648   -0.00249
AFIX  43
H14   2    0.999542    0.373730    0.815973    11.00000   -1.20000
AFIX   0
C15   1    1.000551    0.298802    0.919060    11.00000    0.01960    0.01595 =
         0.02702    0.00056    0.00631   -0.00067
AFIX  43
H15   2    1.058333    0.291183    0.919600    11.00000   -1.20000
AFIX   0
C16   1    0.951206    0.260267    0.979590    11.00000    0.02053    0.01215 =
         0.01977   -0.00172    0.00142    0.00007
C17   1    0.865628    0.271224    0.969383    11.00000    0.01961    0.01537 =
         0.02426    0.00303    0.00243   -0.00315
AFIX  43
H17   2    0.830552    0.244578    1.003742    11.00000   -1.20000
AFIX   0
C18   1    0.831030    0.321082    0.909022    11.00000    0.01521    0.01797 =
         0.02628   -0.00114    0.00135   -0.00134
AFIX  43
H18   2    0.772429    0.327963    0.902743    11.00000   -1.20000
AFIX   0
C19   1    0.649278    0.495521    0.583407    11.00000    0.01571    0.01515 =
         0.01761   -0.00088    0.00238   -0.00138
C20   1    0.592697    0.455981    0.501777    11.00000    0.02086    0.01173 =
         0.05244   -0.00192    0.00122    0.00237
AFIX  43
H20   2    0.610700    0.419622    0.513706    11.00000   -1.20000
AFIX   0
C21   1    0.510172    0.468018    0.402722    11.00000    0.01727    0.01540 =
         0.04287   -0.00646    0.00087   -0.00460
AFIX  43
H21   2    0.472713    0.439942    0.348129    11.00000   -1.20000
AFIX   0
C22   1    0.482028    0.520663    0.382881    11.00000    0.01559    0.01886 =
         0.01686    0.00191    0.00263   -0.00025
C23   1    0.538107    0.560715    0.462020    11.00000    0.02713    0.01408 =
         0.04816    0.00174   -0.01158    0.00551
AFIX  43
H23   2    0.520169    0.597078    0.449081    11.00000   -1.20000
AFIX   0
C24   1    0.620392    0.548220    0.560209    11.00000    0.02525    0.01761 =
         0.04732   -0.00232   -0.01459   -0.00171
AFIX  43
H24   2    0.658076    0.576381    0.613079    11.00000   -1.20000
AFIX   0
O1    3    1.111918    0.743398    0.985233    11.00000    0.02693    0.01695 =
         0.02552    0.00033    0.00244   -0.00132
O2    3    1.219387    0.676206    0.940718    11.00000    0.02744    0.02705 =
         0.04540   -0.00968    0.01662   -0.01052
AFIX 147
H2A   2    1.217179    0.643570    0.912707    11.00000   -1.50000
AFIX   0
O3    3    1.187424    0.684773    1.248489    11.00000    0.02167    0.02933 =
         0.02377    0.00169    0.00079   -0.00588
AFIX 147
H3    2    1.238913    0.694444    1.273237    11.00000   -1.50000
AFIX   0
O4    3    1.009351    0.162585    0.901739    11.00000    0.02572    0.01453 =
         0.02726    0.00043    0.00430   -0.00040
AFIX 147
H4A   2    1.050645    0.174306    0.863881    11.00000   -1.50000
AFIX   0
O5    3    1.091390    0.208315    1.176974    11.00000    0.02013    0.02253 =
         0.02466   -0.00206    0.00222    0.00140
AFIX 147
H5    2    1.090346    0.230308    1.260460    11.00000   -1.50000
AFIX   0
O6    3    0.943108    0.168731    1.165665    11.00000    0.02449    0.01556 =
         0.03176    0.00640    0.00708    0.00077
O7    3    0.371025    0.574998    0.106029    11.00000    0.02303    0.02185 =
         0.01848    0.00361   -0.00032   -0.00438
AFIX 147
H7    2    0.401471    0.601798    0.145822    11.00000   -1.50000
AFIX   0
O8    3    0.331683    0.565680    0.399115    11.00000    0.02554    0.02256 =
         0.02362    0.00275    0.00611    0.00610
AFIX 147
H8A   2    0.333021    0.546419    0.490846    11.00000   -1.50000
AFIX   0
O9    3    0.327593    0.484793    0.190366    11.00000    0.02070    0.02005 =
         0.02184   -0.00208    0.00422   -0.00579
P1    4    1.148863    0.689021    1.040622    11.00000    0.01686    0.01594 =
         0.02186   -0.00135    0.00363   -0.00333
P2    4    0.998312    0.197163    1.063931    11.00000    0.01804    0.01270 =
         0.02135    0.00168    0.00176    0.00068
P3    4    0.373507    0.535064    0.264596    11.00000    0.01570    0.01602 =
         0.01694    0.00102    0.00192   -0.00067

C25   1    0.712197    0.318623    0.352704    11.00000    0.03532    0.03421 =
         0.04610   -0.01179    0.01398   -0.00456
AFIX 137
H25A  2    0.751523    0.308150    0.278660    11.00000   -1.50000
H25B  2    0.715305    0.292343    0.450403    11.00000   -1.50000
H25C  2    0.728333    0.354043    0.406200    11.00000   -1.50000
AFIX   0
C26   1    0.380380    0.296691    0.044239    11.00000    0.04287    0.08326 =
         0.02620    0.00858   -0.00573   -0.00262
AFIX 137
H26A  2    0.433074    0.275433    0.077003    11.00000   -1.50000
H26B  2    0.341214    0.284803    0.116820    11.00000   -1.50000
H26C  2    0.394169    0.334643    0.068870    11.00000   -1.50000
AFIX   0
C27   1    0.163394    0.412443    0.111362    11.00000    0.03102    0.04558 =
         0.03683    0.01210   -0.00310   -0.01005
AFIX 137
H27A  2    0.105858    0.402601    0.121079    11.00000   -1.50000
H27B  2    0.183301    0.386289    0.034421    11.00000   -1.50000
H27C  2    0.161809    0.448160    0.056748    11.00000   -1.50000
AFIX   0
O10   3    0.626646    0.320568    0.240011    11.00000    0.03948    0.02415 =
         0.03321   -0.00413    0.01143    0.00051
AFIX 147
H10   2    0.620022    0.296267    0.160897    11.00000   -1.50000
AFIX   0
O11   3    0.340780    0.289725   -0.144195    11.00000    0.02376    0.04002 =
         0.02377    0.00630    0.00007   -0.00382
AFIX 147
H11A  2    0.371164    0.303996   -0.206725    11.00000   -1.50000
AFIX   0
O12   3    0.220068    0.412847    0.287454    11.00000    0.03279    0.04582 =
         0.03468    0.01246   -0.00313   -0.02073
AFIX 147
H12A  2    0.260938    0.433792    0.288254    11.00000   -1.50000

AFIX   0
HKLF 4




REM  FP_12_012 in Cc
REM wR2 = 0.0850, GooF = S = 1.021, Restrained GooF = 1.021 for all data
REM R1 = 0.0391 for 6656 Fo > 4sig(Fo) and 0.0509 for all 7706 data
REM 391 parameters refined using 2 restraints

END

WGHT      0.0407      0.0381

REM Instructions for potential hydrogen bonds
HTAB C17 O2_$1
HTAB C21 O4_$2
HTAB O2 O12_$3
HTAB O3 O11_$4
HTAB O4 O10_$5
HTAB O5 O1_$6
HTAB O7 O6_$7
HTAB O8 O9_$6
HTAB O10 O1_$8
HTAB O11 O6_$9
HTAB O12 O9

REM Highest difference peak  0.290,  deepest hole -0.302,  1-sigma level  0.053
Q1    1   0.9729  0.2306  1.0155  11.00000  0.05    0.29
Q2    1   0.2444  0.3916  0.2245  11.00000  0.05    0.27
Q3    1   1.1004  0.6625  1.0208  11.00000  0.05    0.27
Q4    1   0.8450  0.5179  0.8060  11.00000  0.05    0.25
Q5    1   0.8100  0.4206  0.7596  11.00000  0.05    0.25
;
_shelx_res_checksum              47075
_shelx_hkl_file
;
  -2   0   0   88.71    2.06
   2   0   0   89.39    2.02
   2   0   0   92.87    2.06
  -2   0   0   92.90    2.02
   4   0   0   84.29    1.96
   4   0   0   85.84    2.00
  -4   0   0   85.02    1.96
  -4   0   0   84.57    1.92
  -4   0   0   85.41    2.01
  -4   0   0   86.13    2.01
  -6   0   0  104.30    2.50
  -6   0   0  105.94    2.51
   6   0   0  103.05    2.43
  -6   0   0  105.00    2.38
  -8   0   0  170.52    3.82
  -8   0   0  168.20    4.00
   8   0   0  171.05    3.90
 -10   0   0    0.52    0.21
 -10   0   0    0.41    0.23
  10   0   0    0.24    0.17
 -12   0   0    1.08    0.29
 -12   0   0    0.37    0.25
  12   0   0    0.58    0.24
 -14   0   0   33.09    1.19
  14   0   0   34.28    1.15
 -14   0   0   34.33    1.13
  16   0   0    9.72    0.61
 -16   0   0    9.02    0.67
 -18   0   0   16.13    0.90
  18   0   0   16.83    0.84
 -20   0   0    1.42    0.47
  20   0   0    0.47    0.32
  -1  -1   0   14.92    0.37
   1   1   0   14.84    0.37
   1   1   0   14.85    0.38
  -3  -1   0    4.02    0.23
   3  -1   0    3.88    0.18
  -3  -1   0    4.04    0.26
   3  -1   0    3.93    0.21
   3   1   0    4.15    0.25
  -3   1   0    3.89    0.23
  -3   1   0    4.07    0.21
  -3   1   0    4.10    0.19
  -3   1   0    3.95    0.21
   3   1   0    4.35    0.22
   5  -1   0   61.58    1.47
  -5  -1   0   63.60    1.56
  -5  -1   0   62.25    1.56
  -5   1   0   61.97    1.52
  -5   1   0   62.10    1.47
   5   1   0   61.79    1.54
   5   1   0   62.64    1.51
  -5   1   0   63.37    1.52
  -7  -1   0  109.54    2.51
  -7  -1   0  109.97    2.68
   7  -1   0  109.19    2.56
   7   1   0  108.35    2.60
  -7   1   0  112.13    2.65
  -7   1   0  111.36    2.64
  -7   1   0  108.72    2.54
  -9  -1   0    4.22    0.38
  -9  -1   0    3.88    0.32
   9  -1   0    4.01    0.32
   9   1   0    4.19    0.35
  -9   1   0    4.31    0.37
  -9   1   0    3.28    0.32
  -9   1   0    3.89    0.34
 -11  -1   0    1.31    0.25
  11  -1   0    1.15    0.24
 -11  -1   0    1.25    0.30
  11   1   0    0.73    0.23
 -11   1   0    1.03    0.27
 -11   1   0    1.35    0.26
 -13  -1   0    3.04    0.36
 -13  -1   0    1.90    0.39
  13  -1   0    2.78    0.34
 -13   1   0    2.69    0.39
 -13   1   0    2.88    0.38
  13   1   0    2.81    0.36
  15  -1   0    2.25    0.37
 -15  -1   0    1.45    0.39
  15   1   0    1.79    0.34
 -15   1   0    1.99    0.36
 -15   1   0    2.13    0.41
 -17  -1   0    5.50    0.59
  17  -1   0    6.49    0.55
  17   1   0    6.57    0.58
 -17   1   0    5.92    0.59
 -19  -1   0    4.58    0.59
  19  -1   0    4.58    0.51
 -19   1   0    3.85    0.55
  19   1   0    4.93    0.55
  21  -1   0    3.05    0.48
 -21  -1   0    1.88    0.52
 -21   1   0    2.42    0.52
  21   1   0    2.28    0.43
   2  -2   0  115.21    2.53
  -2  -2   0  113.70    2.65
   2   2   0  115.08    2.59
  -2   2   0  119.90    2.60
  -2   2   0  114.80    2.57
   4  -2   0   36.48    0.88
  -4  -2   0   37.03    0.98
  -4   2   0   36.73    0.91
   4   2   0   36.08    0.97
  -4   2   0   37.85    0.91
  -4   2   0   35.89    0.87
  -4   2   0   36.61    0.93
   4   2   0   36.36    0.94
  -6  -2   0   26.61    0.83
   6  -2   0   26.58    0.72
   6   2   0   26.14    0.78
  -6   2   0   26.37    0.75
  -6   2   0   25.37    0.76
   6   2   0   27.24    0.82
  -6   2   0   26.68    0.78
  -8  -2   0   15.31    0.57
   8  -2   0   15.09    0.54
  -8  -2   0   15.44    0.67
   8   2   0   14.84    0.60
   8   2   0   16.04    0.63
  -8   2   0   15.34    0.60
  -8   2   0   14.34    0.57
  -8   2   0   15.23    0.60
 -10  -2   0    3.78    0.32
 -10  -2   0    3.67    0.38
  10  -2   0    3.89    0.32
  10   2   0    3.51    0.34
 -10   2   0    4.09    0.36
 -10   2   0    3.36    0.34
 -10   2   0    3.81    0.34
 -12  -2   0    5.41    0.51
  12  -2   0    5.48    0.41
 -12  -2   0    6.26    0.46
 -12   2   0    6.26    0.48
 -12   2   0    5.21    0.44
  12   2   0    5.57    0.47
  14  -2   0   13.90    0.65
 -14  -2   0   13.63    0.77
 -14  -2   0   12.37    0.63
 -14   2   0   12.38    0.68
  14   2   0   14.05    0.71
 -14   2   0   12.88    0.69
 -16  -2   0    0.40    0.35
  16  -2   0    0.31    0.25
 -16   2   0    0.13    0.30
 -16   2   0    0.89    0.35
  16   2   0    0.55    0.30
  18  -2   0    3.37    0.43
 -18  -2   0    3.96    0.56
  18   2   0    3.32    0.47
 -18   2   0    4.50    0.54
  20  -2   0    8.80    0.63
 -20  -2   0    7.98    0.78
  20   2   0    7.81    0.70
 -20   2   0    7.92    0.72
  -1  -3   0   65.74    1.52
   1  -3   0   65.29    1.47
  -1   3   0   62.68    1.44
   1   3   0   63.70    1.52
  -1   3   0   67.31    1.47
   1   3   0   65.20    1.49
   3  -3   0  106.83    2.39
  -3  -3   0  112.71    2.55
   3   3   0  104.84    2.47
  -3   3   0  109.61    2.43
  -3   3   0  107.84    2.42
  -3   3   0  106.38    2.43
   3   3   0  109.18    2.54
   5  -3   0   11.56    0.36
  -5  -3   0   12.02    0.48
   5   3   0   11.92    0.48
   5   3   0   11.71    0.45
  -5   3   0   11.97    0.39
  -5   3   0   12.39    0.46
  -5   3   0   12.37    0.39
   7  -3   0   16.99    0.55
  -7  -3   0   17.83    0.72
   7   3   0   18.49    0.65
  -7   3   0   17.28    0.65
   7   3   0   14.97    0.66
  -7   3   0   17.37    0.59
  -7   3   0   17.03    0.58
  -9  -3   0   14.97    0.55
  -9  -3   0   15.52    0.69
   9  -3   0   15.02    0.55
   9   3   0   14.79    0.64
   9   3   0   15.70    0.65
  -9   3   0   16.21    0.60
  -9   3   0   15.66    0.62
  -9   3   0   15.30    0.58
  11  -3   0   25.33    0.81
 -11  -3   0   24.91    0.80
 -11  -3   0   23.69    0.94
 -11   3   0   23.99    0.87
  11   3   0   25.71    0.90
 -11   3   0   25.93    0.86
 -13  -3   0    4.20    0.48
  13  -3   0    4.50    0.39
 -13  -3   0    3.94    0.38
 -13   3   0    4.38    0.45
 -13   3   0    4.01    0.42
  13   3   0    4.94    0.47
  15  -3   0    2.42    0.35
 -15  -3   0    3.18    0.48
 -15   3   0    3.27    0.44
 -15   3   0    3.08    0.42
  15   3   0    3.01    0.42
 -17  -3   0    2.72    0.51
  17  -3   0    2.85    0.39
  17   3   0    3.68    0.49
 -17   3   0    2.62    0.43
 -19  -3   0    9.96    0.82
  19  -3   0   11.02    0.68
  19   3   0   11.93    0.74
 -19   3   0   12.28    0.77
 -21  -3   0    7.02    0.76
  21   3   0    6.63    0.69
 -21   3   0    6.38    0.69
   0  -4   0   83.43    1.94
   0   4   0   84.13    1.90
  -2  -4   0   14.35    0.49
   2   4   0   14.99    0.46
  -2   4   0   14.11    0.38
  -2   4   0   14.49    0.45
  -4  -4   0   74.77    1.84
   4  -4   0   73.08    1.67
  -4   4   0   74.50    1.69
   4   4   0   71.23    1.78
  -4   4   0   75.49    1.75
  -4   4   0   74.36    1.69
   4   4   0   74.27    1.84
   6  -4   0   11.98    0.41
  -6  -4   0   13.86    0.61
   6   4   0   13.25    0.54
  -6   4   0   12.90    0.45
  -6   4   0   13.59    0.55
   6   4   0   13.31    0.58
  -6   4   0   13.21    0.44
  -8  -4   0   16.30    0.74
   8  -4   0   17.51    0.56
   8   4   0   17.55    0.71
   8   4   0   17.87    0.68
  -8   4   0   18.25    0.60
  -8   4   0   17.15    0.69
  -8   4   0   17.96    0.61
 -10  -4   0    1.28    0.31
  10  -4   0    1.03    0.19
 -10  -4   0    0.85    0.20
 -10   4   0    1.27    0.25
 -10   4   0    1.08    0.26
 -10   4   0    1.20    0.22
  10   4   0    0.81    0.24
  12  -4   0    0.45    0.21
 -12  -4   0    0.74    0.33
 -12  -4   0    0.59    0.23
 -12   4   0    0.31    0.25
 -12   4   0    0.79    0.24
  12   4   0    0.50    0.26
  14  -4   0    4.40    0.40
 -14  -4   0    4.09    0.53
 -14   4   0    4.02    0.46
  14   4   0    4.77    0.48
 -14   4   0    3.44    0.41
  16  -4   0    0.43    0.26
 -16  -4   0    0.49    0.36
 -16   4   0    0.06    0.30
 -16   4   0    0.97    0.34
  16   4   0    0.71    0.32
  18  -4   0    0.51    0.26
 -18  -4   0    0.78    0.41
 -18   4   0    0.42    0.33
  18   4   0    0.88    0.35
 -20  -4   0    0.59    0.48
 -20   4   0    0.31    0.36
  20   4   0    0.64    0.38
  -1  -5   0  147.72    3.43
   1   5   0  151.64    3.36
  -1   5   0  147.86    3.31
  -1   5   0  150.04    3.29
   1   5   0  151.37    3.44
  -1   5   0  150.67    3.38
  -3  -5   0    4.33    0.31
   3  -5   0    4.34    0.17
   3   5   0    4.45    0.27
  -3   5   0    4.58    0.18
  -3   5   0    4.70    0.30
  -3   5   0    4.84    0.20
   5  -5   0    7.03    0.26
  -5  -5   0    6.43    0.43
   5   5   0    6.85    0.43
  -5   5   0    6.83    0.39
   5   5   0    6.76    0.38
  -5   5   0    7.25    0.27
  -5   5   0    6.93    0.27
  -7  -5   0   30.81    1.05
   7  -5   0   30.70    0.82
  -7   5   0   30.46    0.85
   7   5   0   31.50    1.03
  -7   5   0   31.94    0.96
  -7   5   0   32.65    0.87
   7   5   0   31.87    0.97
   9  -5   0   18.16    0.58
  -9  -5   0   18.42    0.79
   9   5   0   17.37    0.71
   9   5   0   18.63    0.76
  -9   5   0   18.69    0.62
  -9   5   0   18.53    0.64
  -9   5   0   18.92    0.72
 -11  -5   0    8.68    0.45
 -11  -5   0    8.56    0.57
  11  -5   0    9.64    0.45
 -11   5   0    8.20    0.45
  11   5   0    9.51    0.55
 -11   5   0    8.80    0.55
 -11   5   0    9.31    0.51
 -13  -5   0   13.89    0.80
  13  -5   0   13.97    0.60
 -13   5   0   14.42    0.65
  13   5   0   14.87    0.75
 -13   5   0   15.10    0.73
  15  -5   0    1.49    0.27
 -15  -5   0    0.47    0.38
  15   5   0    1.12    0.33
 -15   5   0    0.89    0.32
 -15   5   0    0.99    0.32
 -17  -5   0    6.19    0.65
  17  -5   0    5.88    0.46
 -17   5   0    5.50    0.52
 -17   5   0    7.02    0.61
  17   5   0    6.40    0.61
 -19  -5   0    0.00    0.43
  19   5   0    0.00    0.29
 -19   5   0    0.66    0.37
 -21  -5   0    1.33    0.50
  21   5   0    0.63    0.40
   0  -6   0   99.30    2.19
   0   6   0   96.60    2.11
   0   6   0   84.04    2.18
   0   6   0   94.35    2.14
  -2  -6   0    7.24    0.38
   2   6   0    6.60    0.31
  -2   6   0    6.75    0.24
  -2   6   0    7.52    0.32
   2   6   0    7.61    0.27
  -2   6   0    6.96    0.26
   2   6   0    7.21    0.38
  -4  -6   0   75.82    1.95
   4  -6   0   76.43    1.73
  -4   6   0   78.28    1.76
  -4   6   0   77.86    1.77
  -4   6   0   77.48    1.84
   4   6   0   75.91    1.88
   6  -6   0   49.48    1.22
  -6  -6   0   55.49    1.51
   6   6   0   50.25    1.39
  -6   6   0   51.52    1.26
  -6   6   0   52.13    1.40
  -6   6   0   52.76    1.26
   6   6   0   52.20    1.46
  -8  -6   0    6.84    0.52
   8  -6   0    8.98    0.36
  -8   6   0    9.06    0.53
  -8   6   0    9.01    0.38
   8   6   0    8.49    0.50
  -8   6   0    9.35    0.40
   8   6   0    9.47    0.56
 -10  -6   0    5.43    0.50
  10  -6   0    5.14    0.31
 -10   6   0    5.51    0.44
 -10   6   0    4.93    0.34
  10   6   0    5.30    0.41
 -10   6   0    5.76    0.37
 -12  -6   0   25.29    1.07
  12  -6   0   27.20    0.84
  12   6   0   24.72    0.99
 -12   6   0   26.73    0.88
 -12   6   0   26.67    0.91
 -12   6   0   27.29    0.99
 -14  -6   0    5.01    0.58
  14  -6   0    4.20    0.37
 -14   6   0    3.50    0.39
 -14   6   0    3.66    0.47
  14   6   0    5.29    0.52
  16  -6   0    6.02    0.45
 -16  -6   0    5.58    0.64
 -16   6   0    6.10    0.50
 -16   6   0    6.32    0.58
  16   6   0    5.95    0.60
 -18  -6   0    0.86    0.43
 -18   6   0    0.67    0.34
  18   6   0    0.42    0.35
 -20  -6   0    2.14    0.54
 -20   6   0    1.42    0.37
  20   6   0    2.06    0.46
  -1  -7   0   61.92    1.53
   1   7   0   61.90    1.49
   1   7   0   62.82    1.53
  -1   7   0   59.69    1.44
   1   7   0   60.57    1.42
  -1   7   0   60.23    1.46
  -1   7   0   61.01    1.48
  -3  -7   0    1.93    0.25
  -3   7   0    2.06    0.22
   3   7   0    1.73    0.21
  -3   7   0    2.03    0.15
   5  -7   0   81.70    1.85
   5  -7   0   81.28    1.86
  -5  -7   0   86.05    2.14
  -5   7   0   81.29    2.00
   5   7   0   81.30    2.11
   5   7   0   80.98    2.04
  -5   7   0   82.82    1.89
  -5   7   0   79.55    1.89
  -7  -7   0    2.92    0.37
   7  -7   0    3.17    0.23
   7   7   0    3.21    0.36
  -7   7   0    3.23    0.23
  -7   7   0    3.26    0.27
   7   7   0    2.78    0.32
  -7   7   0    2.85    0.33
  -9  -7   0   20.77    0.88
   9  -7   0   22.32    0.65
   9   7   0   22.50    0.85
  -9   7   0   24.14    0.86
   9   7   0   23.82    0.89
  -9   7   0   23.45    0.70
  -9   7   0   23.34    0.70
  11  -7   0    8.55    0.40
 -11  -7   0    8.70    0.64
  11   7   0    9.34    0.57
 -11   7   0    8.43    0.58
 -11   7   0    8.70    0.46
 -11   7   0    8.82    0.44
  13  -7   0    5.35    0.39
 -13  -7   0    5.80    0.61
 -13   7   0    5.06    0.41
  13   7   0    5.46    0.53
 -13   7   0    5.10    0.51
 -15  -7   0    2.00    0.46
  15  -7   0    2.76    0.32
  15   7   0    2.22    0.42
 -15   7   0    2.34    0.42
 -15   7   0    1.98    0.34
 -17  -7   0    1.86    0.48
 -17   7   0    1.72    0.36
  17   7   0    1.07    0.37
 -17   7   0    1.70    0.39
 -19  -7   0    0.07    0.45
 -19   7   0    0.34    0.33
  19   7   0    0.42    0.35
   0  -8   0  418.19    9.60
   0   8   0  436.76    9.62
   0   8   0  434.49    9.24
   0   8   0  429.71    9.43
  -2  -8   0   22.06    0.72
   2   8   0   20.47    0.71
  -2   8   0   21.30    0.58
  -2   8   0   21.16    0.65
   2   8   0   22.36    0.67
  -2   8   0   21.75    0.61
   2   8   0   21.28    0.59
  -4  -8   0    2.64    0.33
  -4   8   0    3.55    0.32
  -4   8   0    3.31    0.23
   4   8   0    3.39    0.30
   6  -8   0   43.85    1.07
  -6  -8   0   44.60    1.35
   6  -8   0   43.87    1.08
  -6   8   0   45.24    1.10
   6   8   0   45.82    1.37
  -6   8   0   45.86    1.28
  -6   8   0   43.48    1.11
   6   8   0   44.72    1.29
   8  -8   0    7.20    0.30
  -8  -8   0    6.90    0.52
  -8   8   0    7.39    0.50
  -8   8   0    7.87    0.34
  -8   8   0    7.40    0.34
   8   8   0    6.79    0.47
   8   8   0    6.92    0.52
  10  -8   0    3.61    0.26
 -10  -8   0    3.56    0.46
  10   8   0    2.77    0.37
 -10   8   0    3.83    0.31
 -10   8   0    3.87    0.42
 -10   8   0    3.96    0.32
  12  -8   0    4.35    0.33
 -12  -8   0    4.11    0.53
 -12   8   0    5.01    0.39
  12   8   0    4.42    0.47
 -12   8   0    4.17    0.46
 -12   8   0    4.98    0.38
  14  -8   0    8.77    0.47
 -14  -8   0    9.22    0.77
  14   8   0    8.48    0.63
 -14   8   0    8.51    0.64
 -14   8   0    9.53    0.51
 -16  -8   0    5.36    0.65
  16   8   0    4.85    0.56
 -16   8   0    4.48    0.43
 -16   8   0    5.51    0.58
 -18  -8   0    4.21    0.63
 -18   8   0    2.50    0.49
  18   8   0    2.92    0.50
 -18   8   0    2.81    0.41
 -20  -8   0    3.02    0.61
 -20   8   0    2.32    0.42
  20   8   0    2.29    0.51
  -1  -9   0   18.68    0.65
   1   9   0   18.85    0.58
  -1   9   0   19.23    0.58
   1   9   0   18.94    0.62
  -1   9   0   20.29    0.62
  -1   9   0   19.07    0.62
  -3  -9   0    2.07    0.31
  -3   9   0    2.55    0.21
   3   9   0    2.71    0.29
  -3   9   0    2.63    0.27
  -3   9   0    2.18    0.18
  -5  -9   0   32.36    1.11
  -5   9   0   36.09    0.89
   5   9   0   35.91    1.08
  -5   9   0   33.65    1.04
  -7  -9   0    2.80    0.39
   7  -9   0    2.49    0.19
   7  -9   0    2.71    0.19
   7   9   0    2.55    0.37
  -7   9   0    2.80    0.22
  -7   9   0    2.57    0.35
   7   9   0    2.50    0.33
  -7   9   0    2.41    0.20
  -9  -9   0    3.77    0.46
   9  -9   0    4.01    0.24
   9   9   0    3.70    0.42
   9   9   0    4.56    0.43
  -9   9   0    4.38    0.29
  -9   9   0    4.41    0.30
  -9   9   0    4.74    0.44
  11  -9   0    4.49    0.29
 -11  -9   0    4.26    0.53
 -11   9   0    4.08    0.33
 -11   9   0    4.23    0.47
 -11   9   0    3.84    0.32
  11   9   0    4.46    0.46
 -13  -9   0   16.49    0.93
  13  -9   0   15.61    0.59
 -13   9   0   16.17    0.65
  13   9   0   16.04    0.82
 -13   9   0   15.53    0.81
 -13   9   0   16.24    0.67
 -15  -9   0    9.63    0.77
  15   9   0    9.22    0.67
 -15   9   0    8.58    0.52
 -15   9   0    8.09    0.63
 -17  -9   0    3.55    0.59
  17   9   0    4.65    0.59
 -17   9   0    4.84    0.57
 -17   9   0    3.90    0.42
 -19  -9   0    0.83    0.48
  19   9   0    0.88    0.39
 -19   9   0    0.94    0.40
 -19   9   0    0.82    0.34
   0 -10   0    6.88    0.39
   0  10   0    6.95    0.38
   0  10   0    7.01    0.40
   0  10   0    6.49    0.37
  -2 -10   0   75.15    1.90
  -2  10   0   73.43    1.79
  -2  10   0   71.83    1.80
  -2  10   0   71.40    1.73
   2  10   0   73.96    1.91
   2  10   0   73.54    1.83
   2  10   0   73.08    1.73
  -4 -10   0    3.95    0.40
  -4  10   0    4.32    0.39
   4  10   0    4.46    0.38
  -4  10   0    4.35    0.29
   6 -10   0   31.11    0.80
  -6 -10   0   29.79    1.07
  -6  10   0   32.08    0.82
   6  10   0   31.51    1.08
  -6  10   0   30.37    1.00
   6  10   0   32.82    1.03
  -8 -10   0    0.77    0.29
   8 -10   0    0.89    0.14
   8 -10   0    0.88    0.14
   8  10   0    0.99    0.30
  -8  10   0    0.82    0.16
  -8  10   0    0.82    0.27
   8  10   0    0.67    0.24
  -8  10   0    0.70    0.16
  10 -10   0    0.47    0.14
 -10 -10   0    0.77    0.35
 -10  10   0    0.51    0.18
 -10  10   0    0.55    0.19
  10  10   0    0.72    0.27
 -10  10   0    0.54    0.26
  12 -10   0   38.70    1.04
 -12 -10   0   36.61    1.42
 -12  10   0   38.38    1.31
  12  10   0   39.31    1.36
 -12  10   0   39.04    1.10
 -12  10   0   39.87    1.11
 -14 -10   0   16.64    0.97
 -14  10   0   16.21    0.84
  14  10   0   17.55    0.88
 -14  10   0   16.46    0.66
 -16 -10   0    0.99    0.44
 -16  10   0    0.43    0.35
 -16  10   0    0.51    0.26
  16  10   0    0.99    0.37
 -18 -10   0    2.96    0.60
  18  10   0    2.24    0.47
 -18  10   0    2.40    0.37
 -18  10   0    2.44    0.46
 -20 -10   0    8.01    0.88
 -20  10   0    8.98    0.60
  20  10   0    7.88    0.80
  -1 -11   0   21.31    0.75
  -1  11   0   19.83    0.65
  -1  11   0   20.32    0.71
   1  11   0   20.41    0.67
  -1  11   0   19.75    0.68
   1  11   0   19.33    0.69
  -3 -11   0   92.00    2.33
   3  11   0   87.79    2.09
  -3  11   0   90.35    2.20
   3  11   0   89.38    2.25
  -3  11   0   92.78    2.16
  -3  11   0   88.89    2.08
  -5 -11   0    6.02    0.50
  -5  11   0    6.36    0.48
   5  11   0    5.46    0.42
  -5  11   0    6.03    0.31
  -7 -11   0    1.40    0.34
   7 -11   0    2.06    0.18
   7 -11   0    2.44    0.19
   7  11   0    2.11    0.37
  -7  11   0    2.04    0.32
   7  11   0    2.25    0.33
  -7  11   0    1.83    0.18
  -9 -11   0    3.04    0.46
   9 -11   0    3.35    0.24
  -9  11   0    3.40    0.28
   9  11   0    2.99    0.38
  -9  11   0    3.12    0.26
  -9  11   0    2.77    0.38
   9  11   0    4.37    0.48
  11 -11   0    0.12    0.14
 -11 -11   0   -0.18    0.31
 -11  11   0    0.32    0.19
 -11  11   0    0.44    0.31
  11  11   0   -0.14    0.25
 -11  11   0    0.10    0.20
 -13 -11   0    1.20    0.45
 -13  11   0    2.00    0.42
 -13  11   0    1.80    0.28
 -13  11   0    1.80    0.28
  13  11   0    2.05    0.41
 -15 -11   0    4.13    0.61
  15  11   0    4.69    0.56
 -15  11   0    4.49    0.40
 -15  11   0    5.05    0.58
 -17 -11   0    2.50    0.57
 -17  11   0    2.99    0.37
  17  11   0    3.41    0.54
 -17  11   0    5.43    0.61
 -19 -11   0    2.54    0.60
 -19  11   0    2.41    0.49
 -19  11   0    2.36    0.37
  19  11   0    1.66    0.46
   0  12   0    2.58    0.31
   0  12   0    2.64    0.30
   0  12   0    3.88    0.33
  -2 -12   0   50.52    1.43
  -2  12   0   50.86    1.33
   2  12   0   49.46    1.27
  -2  12   0   49.46    1.35
   2  12   0   48.87    1.37
   2  12   0   48.57    1.43
  -2  12   0   48.11    1.26
  -4 -12   0   18.35    0.79
   4  12   0   17.73    0.72
  -4  12   0   18.29    0.59
  -4  12   0   17.12    0.72
  -6 -12   0    7.87    0.54
  -6  12   0    5.70    0.45
  -6  12   0    7.43    0.33
   6  12   0    7.25    0.52
   6  12   0    6.55    0.48
  -8 -12   0   15.05    0.78
   8 -12   0   13.83    0.46
  -8  12   0   14.40    0.48
   8  12   0   13.28    0.72
   8  12   0   14.95    0.71
  -8  12   0   14.00    0.71
  10 -12   0   17.34    0.54
 -10 -12   0   18.06    0.89
 -10  12   0   15.61    0.57
 -10  12   0   17.46    0.80
  10  12   0   17.78    0.84
 -10  12   0   18.24    0.58
 -12 -12   0    1.21    0.45
 -12  12   0    1.64    0.40
 -12  12   0    2.08    0.27
  12  12   0    0.94    0.34
 -12  12   0    1.74    0.25
 -14 -12   0    0.82    0.42
  14  12   0    1.50    0.37
 -14  12   0    0.77    0.37
 -14  12   0    0.83    0.25
 -16 -12   0    3.99    0.63
 -16  12   0    4.00    0.39
 -16  12   0    3.67    0.53
  16  12   0    4.47    0.57
 -18 -12   0   -0.25    0.44
  18  12   0    0.56    0.38
 -18  12   0    0.20    0.27
 -18  12   0    0.67    0.37
 -20 -12   0    0.55    0.52
 -20  12   0    1.12    0.44
  20  12   0    0.78    0.40
 -20  12   0    0.55    0.29
  -1 -13   0   19.32    0.74
   1  13   0   19.11    0.67
  -1  13   0   18.94    0.70
  -1  13   0   18.37    0.69
  -1  13   0   18.91    0.66
   1  13   0   18.82    0.70
  -3 -13   0    8.10    0.54
  -3  13   0    6.80    0.48
   3  13   0    6.67    0.39
  -3  13   0    6.31    0.33
   3  13   0    7.11    0.46
  -3  13   0    7.30    0.40
  -5 -13   0   14.26    0.73
  -5  13   0   14.93    0.66
  -5  13   0   15.22    0.52
   5  13   0   14.85    0.66
  -7 -13   0    5.96    0.55
   7  13   0    4.97    0.50
  -7  13   0    5.20    0.46
   7  13   0    5.56    0.48
  -7  13   0    6.37    0.31
   9 -13   0   90.26    2.10
  -9 -13   0   82.75    2.52
   9  13   0   89.99    2.46
  -9  13   0   96.14    2.15
   9  13   0   94.18    2.56
  -9  13   0   88.71    2.39
 -11 -13   0    0.35    0.38
 -11  13   0    0.65    0.33
 -11  13   0    0.83    0.21
  11  13   0    1.07    0.34
 -13 -13   0    4.25    0.61
 -13  13   0    4.73    0.34
 -13  13   0    4.67    0.56
 -13  13   0    4.08    0.34
  13  13   0    3.94    0.52
 -15 -13   0    1.54    0.53
 -15  13   0    2.67    0.31
 -15  13   0    2.45    0.47
  15  13   0    2.35    0.47
 -17 -13   0   10.90    0.96
  17  13   0    9.30    0.83
 -17  13   0    9.38    0.52
 -17  13   0    8.83    0.77
 -19  13   0    1.16    0.44
 -19  13   0    0.72    0.26
  19  13   0    1.10    0.44
   0  14   0   14.28    0.65
   0  14   0   14.74    0.61
   0  14   0   14.24    0.61
  -2 -14   0   10.22    0.58
   2  14   0   11.14    0.57
   2  14   0   10.08    0.53
  -2  14   0   11.25    0.56
  -2  14   0   11.37    0.53
  -2  14   0   10.66    0.46
   2  14   0   10.28    0.50
  -4 -14   0   35.54    1.16
  -4  14   0   31.16    0.86
  -4  14   0   35.38    0.97
  -4  14   0   33.46    1.06
   4  14   0   33.50    1.10
  -6 -14   0    1.39    0.32
  -6  14   0    1.42    0.19
   6  14   0    1.47    0.30
  -6  14   0    1.65    0.31
  -8 -14   0    2.64    0.43
   8 -14   0    3.18    0.24
  -8  14   0    2.45    0.23
  -8  14   0    2.31    0.36
   8  14   0    2.84    0.45
   8  14   0    3.05    0.42
 -10 -14   0   11.48    0.80
  10 -14   0   10.69    0.40
 -10  14   0   11.89    0.73
  10  14   0   11.79    0.72
 -10  14   0   11.34    0.45
 -12 -14   0    5.77    0.67
  12  14   0    5.84    0.60
 -12  14   0    5.85    0.58
 -12  14   0    6.37    0.37
 -14 -14   0    2.74    0.54
  14  14   0    3.61    0.52
 -14  14   0    2.99    0.48
 -16  14   0    0.39    0.36
  16  14   0    1.14    0.41
 -16  14   0    0.95    0.25
 -18  14   0    0.12    0.38
  18  14   0   -0.03    0.33
 -18  14   0    0.14    0.24
  -1 -15   0   -0.16    0.19
   1  15   0    0.07    0.19
  -1  15   0    0.03    0.17
   1  15   0   -0.18    0.16
   1  15   0   -0.02    0.09
  -1  15   0    0.06    0.18
  -1  15   0   -0.04    0.20
  -3 -15   0    2.71    0.37
   3  15   0    1.84    0.30
  -3  15   0    2.11    0.31
   3  15   0    1.93    0.25
  -3  15   0    2.24    0.23
  -3  15   0    2.20    0.26
  -5 -15   0    7.89    0.59
  -5  15   0    7.53    0.39
  -5  15   0    7.32    0.53
   5  15   0    7.66    0.53
  -7 -15   0   13.54    0.78
   7  15   0   12.10    0.69
  -7  15   0   12.60    0.70
   7  15   0   12.00    0.72
  -7  15   0   13.97    0.49
   9 -15   0    1.35    0.19
  -9 -15   0    0.83    0.40
  -9  15   0    0.41    0.30
  -9  15   0    1.16    0.20
   9  15   0    1.20    0.36
 -11 -15   0    9.87    0.76
  11  15   0   10.28    0.68
 -11  15   0   10.78    0.43
 -11  15   0    9.26    0.70
  13  15   0    3.37    0.50
 -13  15   0    3.76    0.30
 -13  15   0    3.39    0.52
  15  15   0    8.93    0.70
 -15  15   0    9.20    0.73
 -17  15   0    1.28    0.44
  17  15   0    2.11    0.50
  19  15   0    1.19    0.45
 -19  15   0    1.61    0.45
   0  16   0    5.58    0.44
   0  16   0    5.29    0.42
   0  16   0    5.49    0.39
  -2 -16   0   34.45    1.17
  -2  16   0   36.63    1.05
   2  16   0   35.98    1.07
  -2  16   0   37.73    1.16
  -2  16   0   37.22    1.11
   2  16   0   36.05    1.15
   2  16   0   37.81    1.21
  -4 -16   0    4.36    0.46
   4  16   0    4.86    0.44
  -4  16   0    4.51    0.42
  -4  16   0    4.72    0.37
  -6  16   0   20.95    0.88
  -6  16   0   21.03    0.69
   6  16   0   19.44    0.87
  -8  16   0    8.29    0.67
  -8  16   0    8.40    0.40
   8  16   0    7.89    0.62
   8  16   0    9.00    0.70
 -10  16   0   10.48    0.69
 -10  16   0   10.04    0.43
  10  16   0   10.13    0.68
  12  16   0    3.09    0.51
 -12  16   0    3.53    0.29
 -12  16   0    2.63    0.45
  14  16   0    5.70    0.65
 -14  16   0    5.46    0.63
 -16  16   0    4.44    0.61
  16  16   0    5.28    0.67
  18  16   0    3.43    0.60
 -18  16   0    2.94    0.55
  -1  17   0    8.49    0.46
   1  17   0    7.88    0.48
  -1  17   0    6.61    0.50
  -1  17   0    8.51    0.52
   1  17   0    8.12    0.50
  -3  17   0    7.40    0.46
  -3  17   0    8.16    0.52
   3  17   0    6.55    0.46
   3  17   0    7.15    0.45
   5  17   0    3.19    0.42
  -5  17   0    2.94    0.39
  -5  17   0    2.71    0.29
  -7  17   0    5.09    0.51
   7  17   0    5.19    0.54
  -7  17   0    5.26    0.36
   7  17   0    5.17    0.57
  -9  17   0    8.54    0.41
  -9  17   0    9.02    0.69
   9  17   0    9.51    0.68
 -11  17   0    0.40    0.18
 -11  17   0   -0.06    0.32
  11  17   0    0.49    0.34
 -13  17   0    5.96    0.63
 -13  17   0    5.63    0.32
  13  17   0    5.41    0.64
 -15  17   0    1.74    0.41
  15  17   0    1.66    0.47
  17  17   0    3.56    0.60
 -17  17   0    4.58    0.62
   0  18   0   43.79    1.29
   0  18   0   41.17    1.26
  -2  18   0    1.21    0.30
  -2  18   0    1.16    0.24
   2  18   0    1.31    0.28
   2  18   0    1.37    0.27
  -2  18   0    1.07    0.26
  -4  18   0    1.82    0.36
   4  18   0    2.08    0.35
  -4  18   0    1.52    0.26
   6  18   0   14.02    0.80
   6  18   0   14.30    0.77
  -6  18   0   15.21    0.76
  -6  18   0   15.78    0.61
  -8  18   0   25.20    0.78
   8  18   0   22.70    1.04
  -8  18   0   24.45    1.01
   8  18   0   25.38    1.15
 -10  18   0   20.89    0.66
  10  18   0   20.52    1.01
 -10  18   0   21.75    1.01
 -12  18   0    8.44    0.38
 -12  18   0    7.94    0.71
  12  18   0    9.04    0.72
  14  18   0    7.11    0.74
 -14  18   0    7.59    0.72
 -16  18   0    1.06    0.44
  16  18   0    1.64    0.49
  18  18   0    0.97    0.44
 -18  18   0    1.14    0.45
  -1  19   0   13.30    0.62
  -1  19   0   14.30    0.70
   1  19   0   13.25    0.64
   1  19   0   14.02    0.67
   3  19   0   42.35    1.24
   3  19   0   42.35    1.36
  -3  19   0   40.58    1.33
  -5  19   0    1.10    0.26
  -5  19   0    0.73    0.33
   5  19   0    1.13    0.32
  -7  19   0    0.31    0.21
  -7  19   0    0.13    0.30
   7  19   0    0.47    0.35
   7  19   0    0.21    0.28
  -9  19   0    3.45    0.30
   9  19   0    3.58    0.52
  -9  19   0    3.86    0.51
 -11  19   0    0.62    0.36
 -11  19   0    0.04    0.17
  11  19   0    0.50    0.36
 -13  19   0    1.23    0.43
  13  19   0    2.78    0.53
 -15  19   0    2.30    0.50
  15  19   0    2.81    0.56
 -17  19   0    2.88    0.55
  17  19   0    3.44    0.63
   0  20   0    0.72    0.28
   0  20   0    0.68    0.25
  -2  20   0   47.52    1.49
   2  20   0   48.23    1.50
   2  20   0   48.66    1.41
   4  20   0    4.84    0.51
  -4  20   0    4.02    0.49
   6  20   0    6.65    0.63
  -6  20   0    9.57    0.72
   6  20   0    6.69    0.67
   8  20   0    3.18    0.55
  -8  20   0    3.41    0.49
   8  20   0    3.07    0.48
  -8  20   0    3.91    0.33
  10  20   0    4.04    0.57
 -10  20   0    4.67    0.34
 -10  20   0    4.37    0.57
 -12  20   0    5.31    0.62
  12  20   0    5.40    0.65
  14  20   0    0.96    0.43
 -14  20   0    0.51    0.38
  16  20   0    0.41    0.39
 -16  20   0   -0.27    0.35
   1  21   0   30.52    1.12
   1  21   0   32.21    1.10
  -1  21   0   31.90    1.14
   3  21   0    8.96    0.57
   3  21   0    8.16    0.60
  -3  21   0    7.99    0.64
  -5  21   0    0.53    0.31
   5  21   0    0.75    0.32
  -7  21   0    3.27    0.48
   7  21   0    2.49    0.50
   7  21   0    3.40    0.51
   9  21   0    6.88    0.68
  -9  21   0    6.00    0.62
 -11  21   0    2.39    0.49
 -11  21   0    2.33    0.25
  11  21   0    1.77    0.47
 -13  21   0    0.92    0.43
  13  21   0    0.76    0.42
  15  21   0    3.24    0.62
 -15  21   0    2.64    0.53
   0  22   0    0.00    0.25
   2  22   0   21.37    0.93
   2  22   0   20.31    0.86
  -2  22   0   20.88    0.94
  -4  22   0   26.72    1.06
   4  22   0   24.11    1.06
  -6  22   0    4.85    0.57
   6  22   0    5.16    0.59
   6  22   0    4.74    0.60
  -8  22   0    1.82    0.43
   8  22   0    2.01    0.44
  10  22   0    2.38    0.48
 -10  22   0    2.46    0.49
 -12  22   0    4.56    0.62
  12  22   0    4.11    0.61
 -14  22   0    2.34    0.54
  14  22   0    0.09    0.35
 -16  22   0    2.64    0.55
  16  22   0    3.98    0.68
  -1  23   0   -0.20    0.26
   1  23   0    0.06    0.27
  -3  23   0    5.82    0.59
   3  23   0    5.92    0.51
   3  23   0    5.71    0.57
  -5  23   0   38.79    1.39
   5  23   0   40.06    1.44
   5  23   0   38.07    1.50
   7  23   0    1.41    0.43
  -7  23   0    1.44    0.40
   7  23   0    0.77    0.44
  -9  23   0    1.48    0.42
   9  23   0    0.59    0.37
  11  23   0    7.37    0.78
 -11  23   0    8.89    0.81
 -13  23   0    7.03    0.75
  13  23   0    6.16    0.75
  15  23   0    1.84    0.51
 -15  23   0    1.69    0.53
   0  24   0    0.52    0.32
  -2  24   0    1.99    0.42
   2  24   0    2.20    0.38
   4  24   0    5.43    0.60
  -4  24   0    4.37    0.53
   6  24   0    6.64    0.74
   6  24   0    8.75    0.75
  -6  24   0    8.67    0.69
  -8  24   0    2.44    0.48
   8  24   0    3.13    0.54
 -10  24   0    2.84    0.54
  10  24   0    3.27    0.57
  12  24   0    7.04    0.78
 -12  24   0    8.41    0.84
 -14  24   0    1.60    0.51
  14  24   0    1.51    0.51
  -1  25   0    6.54    0.61
   1  25   0    6.45    0.59
   3  25   0    0.64    0.30
  -3  25   0    1.43    0.40
   5  25   0    1.23    0.40
   5  25   0    0.74    0.41
  -5  25   0    0.51    0.37
   7  25   0    6.84    0.72
   7  25   0    8.88    0.84
  -7  25   0    7.32    0.72
  -9  25   0    3.24    0.54
   9  25   0    4.01    0.61
  11  25   0    5.45    0.69
 -11  25   0    5.37    0.69
 -13  25   0    4.09    0.64
  13  25   0    4.35    0.69
   0  26   0    2.98    0.46
   2  26   0    1.97    0.39
  -2  26   0    2.45    0.42
  -4  26   0    5.01    0.59
   4  26   0    5.96    0.70
   6  26   0    8.78    0.79
  -6  26   0    9.46    0.74
   6  26   0    9.15    0.88
   8  26   0   21.91    1.13
  -8  26   0   20.10    1.07
  10  26   0    7.09    0.79
 -10  26   0    6.35    0.73
 -12  26   0    0.05    0.36
  12  26   0   -0.29    0.34
  -1  27   0    1.53    0.40
   1  27   0    1.68    0.40
  -3  27   0    0.98    0.37
   3  27   0    1.69    0.49
  -5  27   0   10.79    0.83
   5  27   0   10.21    0.81
  -7  27   0   -0.65    0.31
  -9  27   0    4.60    0.63
   9  27   0    2.98    0.58
 -11  27   0    1.65    0.49
  11  27   0    2.10    0.54
 -13  27   0    9.28    0.92
  13  27   0   11.53    1.05
   0  28   0   -0.19    0.29
  -2  28   0    6.62    0.68
   2  28   0    6.55    0.61
   4  28   0   13.98    0.95
  -4  28   0   13.34    0.89
   6  28   0    7.57    0.84
  -6  28   0    7.42    0.74
  -8  28   0   -0.23    0.33
 -10  28   0    1.31    0.50
  10  28   0    2.11    0.56
  12  28   0    1.85    0.58
 -12  28   0    3.05    0.61
  -1  29   0    4.87    0.58
   1  29   0    4.57    0.56
   3  29   0    9.55    0.87
  -3  29   0    8.89    0.79
   5  29   0    0.80    0.46
  -5  29   0    0.58    0.40
  -7  29   0    8.44    0.83
  -9  29   0    1.54    0.48
 -11  29   0    4.01    0.34
  11  29   0    3.52    0.68
 -11  29   0    3.50    0.61
   0  30   0   -0.39    0.30
  -2  30   0   11.14    0.83
   2  30   0   13.07    0.93
  -4  30   0    1.60    0.47
   4  30   0    2.28    0.57
  -6  30   0    3.62    0.58
   6  30   0    2.79    0.62
  -8  30   0    5.97    0.73
 -10  30   0    2.27    0.33
 -10  30   0    2.30    0.58
  -1  31   0   13.80    0.90
   1  31   0   11.96    0.89
  -1  31   0   12.90    0.88
   1  31   0   13.74    0.89
  -3  31   0    6.28    0.71
   3  31   0    7.50    0.83
   5  31   0    5.34    0.76
  -5  31   0    5.09    0.67
  -7  31   0    3.48    0.46
  -7  31   0    3.54    0.62
   0  32   0    2.50    0.49
   0  32   0    1.63    0.51
   2  32   0    4.53    0.71
  -2  32   0    3.32    0.55
  -2  32   0    4.49    0.61
   4  32   0    1.26    0.56
  -4  32   0    1.00    0.44
  -4  32   0    1.82    0.51
  -6  32   0    2.73    0.45
  -6  32   0    3.07    0.58
   1  33   0    2.15    0.54
  -1  33   0    1.61    0.49
  -1  33   0    2.31    0.54
  -3  33   0    2.00    0.49
   3  33   0    0.90    0.51
  -3  33   0    1.60    0.49
   5  33   0    6.40    0.82
  -5  33   0    6.21    0.76
   0  34   0   -0.07    0.40
   2  34   0    0.56    0.44
  -2  34   0    0.23    0.42
 -20   0   1    0.28    0.39
  20   0  -1   -0.29    0.26
  18   0  -1    0.04    0.26
 -18   0   1    0.09    0.34
 -16   0   1   -0.33    0.30
  16   0  -1    0.02    0.25
  14   0  -1    0.02    0.22
 -14   0   1   -0.03    0.22
 -14   0   1   -0.13    0.27
  12   0  -1    0.46    0.21
 -12   0   1    0.25    0.19
 -12   0   1    0.26    0.26
  10   0  -1    0.06    0.17
 -10   0   1    0.17    0.22
 -10   0   1   -0.15    0.15
   8   0  -1    0.18    0.18
  -8   0   1    0.27    0.22
  -8   0   1    0.16    0.17
  -6   0   1   -0.30    0.12
   6   0  -1    0.04    0.12
  -6   0   1    0.05    0.14
  -4   0   1   -0.10    0.11
   4   0  -1   -0.15    0.10
  -2   0   1   -0.21    0.10
   2   0  -1   -0.13    0.09
   0   0   1   -0.09    0.08
   0   0   1    0.03    0.09
   0   0   1   -0.05    0.08
   0   0  -1   -0.05    0.08
   0   0  -1   -0.05    0.08
   0   0  -1    0.04    0.09
   2   0   1   -0.14    0.11
   2   0   1   -0.09    0.13
  -2   0  -1   -0.10    0.14
  -2   0  -1    0.18    0.13
  -2   0  -1    0.01    0.14
   4   0   1    0.10    0.12
  -4   0  -1   -0.08    0.13
   4   0   1   -0.17    0.12
  -4   0  -1   -0.05    0.12
  -4   0  -1   -0.01    0.03
   6   0   1    0.02    0.21
  -6   0  -1    0.26    0.21
  -6   0  -1    0.24    0.19
   6   0   1   -0.12    0.16
  -6   0  -1    0.01    0.18
   8   0   1    0.00    0.17
  -8   0  -1    0.02    0.19
  -8   0  -1    0.28    0.23
  -8   0  -1   -0.16    0.22
  10   0   1   -0.15    0.18
 -10   0  -1    0.06    0.22
 -10   0  -1   -0.07    0.21
 -10   0  -1    0.13    0.19
 -10   0  -1   -0.12    0.21
  12   0   1   -0.41    0.20
 -12   0  -1    0.01    0.26
 -12   0  -1   -0.20    0.24
 -14   0  -1    0.00    0.30
  14   0   1   -0.32    0.21
 -14   0  -1   -0.15    0.31
  16   0   1    0.01    0.26
 -16   0  -1   -0.48    0.32
  18   0   1   -0.09    0.27
 -18   0  -1    0.25    0.40
 -20   0  -1    0.27    0.45
  20   0   1    0.04    0.30
  21  -1  -1    0.13    0.30
 -21  -1   1   -0.11    0.38
 -21   1   1    0.25    0.38
  21   1  -1    0.35    0.32
 -19  -1   1   -0.20    0.34
  19  -1  -1    0.40    0.28
  19   1  -1    0.09    0.28
 -19   1   1   -0.06    0.34
  17  -1  -1    0.22    0.25
 -17  -1   1    0.90    0.36
 -17   1   1   -0.10    0.33
  17   1  -1    0.11    0.25
 -15  -1   1    5.34    0.54
  15  -1  -1    4.44    0.43
 -15   1   1    4.73    0.50
  15   1  -1    5.19    0.48
  13  -1  -1    3.07    0.35
 -13  -1   1    3.98    0.45
 -13  -1   1    4.23    0.36
  13   1  -1    3.50    0.39
 -13   1   1    3.27    0.39
 -13   1   1    3.79    0.37
  11  -1  -1   11.99    0.53
 -11  -1   1   12.44    0.63
 -11  -1   1   12.72    0.50
 -11   1   1   12.99    0.59
  11   1  -1   11.32    0.54
 -11   1   1   12.99    0.54
  -9  -1   1    9.83    0.41
   9  -1  -1    9.41    0.45
  -9  -1   1    9.85    0.52
   9   1  -1    9.91    0.47
  -9   1   1    9.16    0.44
  -9   1   1    9.46    0.49
   7  -1  -1   11.43    0.43
  -7  -1   1   11.64    0.42
  -7  -1   1   11.32    0.52
  -7   1   1   10.78    0.45
   7   1  -1   11.78    0.48
  -7   1   1   11.41    0.49
  -5  -1   1   81.47    1.94
   5  -1  -1   80.03    1.85
  -5   1   1   78.61    1.82
  -5   1   1   81.51    1.90
   5   1  -1   80.64    1.89
   3  -1  -1  130.80    2.90
  -3  -1   1  132.59    2.99
  -3   1   1  131.98    2.95
   3   1  -1  126.50    2.93
  -1  -1   1   64.15    1.50
   1  -1  -1   62.01    1.49
   1  -1  -1   62.96    1.46
  -1   1   1   62.78    1.47
  -1   1   1   65.55    1.49
   1   1  -1   63.52    1.48
   1  -1   1   75.33    1.72
   1  -1   1   76.08    1.74
  -1  -1  -1   73.02    1.71
  -1  -1  -1   74.32    1.75
  -1  -1  -1   74.33    1.74
  -1   1  -1   71.76    1.75
   1   1   1   73.67    1.71
  -1   1  -1   75.28    1.74
  -1   1  -1   73.18    1.70
   1   1   1   73.45    1.74
   3  -1   1  138.93    3.17
  -3  -1  -1  143.74    3.25
   3  -1   1  142.63    3.22
  -3  -1  -1  139.16    3.24
  -3  -1  -1  140.63    3.19
  -3   1  -1  141.31    3.17
   3   1   1  138.41    3.17
   3   1   1  137.58    3.24
  -3   1  -1  138.45    3.23
   5  -1   1    8.62    0.41
  -5  -1  -1    9.27    0.41
  -5  -1  -1    8.85    0.41
   5  -1   1    7.81    0.37
   5   1   1    7.78    0.38
  -5   1  -1    8.86    0.41
  -5   1  -1    8.70    0.39
  -5   1  -1    9.13    0.41
   5   1   1    8.73    0.42
  -7  -1  -1   28.92    0.91
  -7  -1  -1   29.95    0.96
   7  -1   1   29.58    0.88
  -7   1  -1   29.13    0.93
   7   1   1   28.85    0.93
  -7   1  -1   29.79    0.88
   7   1   1   28.69    0.90
  -7   1  -1   29.83    0.94
  -9  -1  -1   21.60    0.78
  -9  -1  -1   20.43    0.81
  -9  -1  -1   21.41    0.82
   9  -1   1   21.23    0.75
  -9   1  -1   21.45    0.80
  -9   1  -1   22.24    0.81
   9   1   1   23.50    0.79
  -9   1  -1   22.88    0.80
  -9   1  -1   21.66    0.74
  11  -1   1   10.78    0.54
 -11  -1  -1    9.37    0.59
 -11  -1  -1   11.18    0.58
 -11   1  -1   10.29    0.52
  11   1   1    9.44    0.55
 -11   1  -1   10.78    0.59
 -11   1  -1   10.10    0.59
  13  -1   1   15.01    0.73
 -13  -1  -1   16.09    0.77
 -13  -1  -1   16.24    0.81
  13   1   1   16.42    0.75
 -13   1  -1   16.93    0.78
 -13   1  -1   15.94    0.77
 -15  -1  -1    2.23    0.44
 -15  -1  -1    2.07    0.38
  15  -1   1    2.36    0.38
 -15   1  -1    1.91    0.42
 -15   1  -1    2.42    0.43
  15   1   1    1.58    0.35
 -17  -1  -1   15.08    0.91
  17  -1   1   15.10    0.78
  17   1   1   16.11    0.84
 -17   1  -1   15.00    0.88
 -19  -1  -1    4.11    0.62
  19  -1   1    4.94    0.56
 -19   1  -1    4.04    0.60
  19   1   1    4.14    0.54
 -20  -2   1    0.60    0.43
  20  -2  -1    0.33    0.29
 -20   2   1    0.02    0.35
  20   2  -1    0.06    0.31
  18  -2  -1    0.44    0.29
 -18  -2   1    0.80    0.38
 -18   2   1    0.80    0.37
  18   2  -1    1.26    0.34
 -16  -2   1    1.20    0.41
  16  -2  -1    2.70    0.36
  16   2  -1    2.18    0.36
 -16   2   1    1.73    0.37
 -14  -2   1   38.37    1.38
  14  -2  -1   41.38    1.23
 -14   2   1   40.59    1.24
  14   2  -1   42.86    1.32
 -14   2   1   41.91    1.31
 -12  -2   1   12.76    0.51
 -12  -2   1   12.54    0.68
  12  -2  -1   11.78    0.55
 -12   2   1   12.90    0.61
  12   2  -1   12.35    0.61
 -12   2   1   12.36    0.57
 -10  -2   1   12.95    0.47
  10  -2  -1   12.44    0.49
 -10  -2   1   12.70    0.61
 -10   2   1   12.15    0.55
  10   2  -1   12.67    0.57
 -10   2   1   12.32    0.53
  -8  -2   1    1.52    0.19
  -8  -2   1    1.12    0.28
   8  -2  -1    1.15    0.19
   8   2  -1    1.26    0.24
  -8   2   1    1.44    0.23
  -8   2   1    1.29    0.23
   6  -2  -1    2.82    0.21
  -6  -2   1    3.51    0.29
  -6   2   1    3.46    0.25
   6   2  -1    3.39    0.27
  -6   2   1    3.68    0.26
   4  -2  -1   96.55    2.12
  -4  -2   1   94.34    2.25
  -4   2   1   96.03    2.12
  -4   2   1   94.27    2.16
   4   2  -1   92.22    2.19
  -2  -2   1   74.23    1.76
   2  -2  -1   72.63    1.67
  -2   2   1   74.43    1.67
  -2   2   1   74.88    1.70
  -2   2   1   74.56    1.67
   2   2  -1   74.85    1.73
   0  -2  -1  107.23    2.44
   0  -2   1  104.38    2.44
   0  -2  -1  107.90    2.40
   0   2  -1  109.13    2.45
   0   2   1  100.81    2.44
   0   2   1  105.74    2.39
   0   2  -1  108.99    2.41
   0   2   1  108.15    2.44
  -2  -2  -1  282.85    6.08
   2  -2   1  278.48    6.16
  -2  -2  -1  278.32    6.19
   2  -2   1  272.15    6.07
   2   2   1  274.39    6.07
   2   2   1  269.40    6.19
  -2   2  -1  274.42    6.17
  -2   2  -1  271.31    6.05
  -4  -2  -1   69.42    1.73
  -4  -2  -1   71.94    1.75
   4  -2   1   69.59    1.66
   4  -2   1   68.41    1.68
  -4  -2  -1   67.63    1.69
   4   2   1   68.97    1.73
   4   2   1   69.39    1.68
  -4   2  -1   69.32    1.69
  -4   2  -1   67.85    1.65
  -4   2  -1   69.94    1.70
  -6  -2  -1   24.76    0.83
  -6  -2  -1   23.79    0.80
  -6  -2  -1   23.96    0.84
   6  -2   1   24.14    0.76
  -6   2  -1   25.57    0.81
   6   2   1   24.56    0.79
  -6   2  -1   24.09    0.80
  -6   2  -1   25.07    0.75
   6   2   1   24.33    0.82
  -8  -2  -1    8.79    0.52
  -8  -2  -1    8.87    0.47
   8  -2   1    8.06    0.41
   8   2   1    7.66    0.48
  -8   2  -1    8.30    0.42
   8   2   1    7.76    0.45
  -8   2  -1    8.46    0.49
  -8   2  -1    7.29    0.45
  -8   2  -1    8.35    0.50
 -10  -2  -1   39.19    1.19
 -10  -2  -1   39.33    1.25
  10  -2   1   37.85    1.14
 -10   2  -1   39.33    1.20
 -10   2  -1   39.41    1.12
  10   2   1   38.65    1.20
 -10   2  -1   39.26    1.21
 -10   2  -1   38.38    1.20
 -12  -2  -1   -0.23    0.27
  12  -2   1    0.00    0.21
 -12  -2  -1    0.29    0.27
  12   2   1    0.40    0.24
 -12   2  -1   -0.29    0.25
 -12   2  -1   -0.13    0.25
  14  -2   1   18.61    0.80
 -14  -2  -1   17.07    0.81
 -14  -2  -1   18.29    0.90
  14   2   1   17.06    0.82
 -14   2  -1   18.60    0.85
 -14   2  -1   18.56    0.86
  16  -2   1    1.69    0.36
 -16  -2  -1    2.79    0.49
 -16   2  -1    1.40    0.40
  16   2   1    2.03    0.39
 -16   2  -1    2.30    0.42
 -18  -2  -1    3.68    0.58
  18  -2   1    4.90    0.53
 -18   2  -1    4.23    0.56
  18   2   1    3.69    0.50
 -20  -2  -1    2.16    0.55
  20  -2   1    3.62    0.50
  20   2   1    3.49    0.53
 -20   2  -1    3.10    0.56
 -21  -3   1    5.25    0.66
  21   3  -1    5.41    0.62
 -21   3   1    5.32    0.59
 -19  -3   1    1.59    0.44
  19  -3  -1    1.49    0.34
 -19   3   1    0.85    0.37
  19   3  -1    1.79    0.40
  17  -3  -1   13.81    0.65
 -17  -3   1   11.97    0.82
  17   3  -1   13.36    0.73
 -17   3   1   12.95    0.71
  15  -3  -1    5.62    0.45
 -15  -3   1    5.04    0.55
 -15   3   1    4.81    0.48
  15   3  -1    5.84    0.53
 -15   3   1    5.87    0.49
  13  -3  -1    4.33    0.36
 -13  -3   1    3.69    0.46
 -13   3   1    3.94    0.40
  13   3  -1    3.95    0.42
 -13   3   1    4.33    0.41
  11  -3  -1   10.73    0.46
 -11  -3   1   11.01    0.61
 -11  -3   1    9.78    0.42
 -11   3   1   10.45    0.51
 -11   3   1   10.10    0.51
  11   3  -1   11.23    0.54
   9  -3  -1    5.96    0.33
  -9  -3   1    5.62    0.46
  -9  -3   1    5.97    0.31
  -9   3   1    6.00    0.38
   9   3  -1    6.48    0.41
  -9   3   1    6.62    0.40
   7  -3  -1   23.74    0.68
  -7  -3   1   25.14    0.86
  -7   3   1   25.70    0.76
  -7   3   1   24.92    0.73
   7   3  -1   24.47    0.79
  -5  -3   1   36.83    1.02
   5  -3  -1   36.88    0.88
   5   3  -1   36.46    0.99
  -5   3   1   37.11    0.90
  -5   3   1   36.79    0.95
  -3  -3   1  350.24    7.73
   3  -3  -1  350.24    7.48
  -3   3   1  330.61    7.65
  -3   3   1  346.92    7.40
   3   3  -1  345.57    7.59
  -1  -3   1    6.40    0.29
   1  -3  -1    6.56    0.27
   1  -3  -1    6.50    0.24
  -1   3   1    6.39    0.23
   1   3  -1    6.33    0.29
   1   3  -1    6.38    0.29
  -1   3   1    6.59    0.27
  -1   3   1    6.40    0.26
  -1  -3  -1   91.85    2.14
   1  -3   1   91.82    2.12
  -1  -3  -1   89.24    2.11
  -1   3  -1   89.37    2.09
   1   3   1   89.25    2.09
   1   3   1   94.29    2.15
   1   3   1   92.39    2.15
  -1   3  -1   92.95    2.15
  -3  -3  -1   27.21    0.76
   3  -3   1   26.71    0.71
   3  -3   1   25.23    0.72
  -3  -3  -1   25.92    0.77
   3   3   1   26.04    0.77
  -3   3  -1   25.40    0.73
   3   3   1   25.55    0.73
  -3   3  -1   26.65    0.70
  -3   3  -1   25.94    0.72
  -5  -3  -1   38.62    1.08
   5  -3   1   37.28    1.01
  -5  -3  -1   39.65    1.11
  -5  -3  -1   37.61    1.10
   5   3   1   36.87    1.05
  -5   3  -1   39.07    1.00
  -5   3  -1   38.74    1.03
   5   3   1   37.18    1.09
  -5   3  -1   39.12    1.06
  -5   3  -1   37.49    1.04
  -7  -3  -1    3.09    0.36
   7  -3   1    2.27    0.26
  -7  -3  -1    2.24    0.32
  -7  -3  -1    2.02    0.31
  -7   3  -1    2.32    0.26
  -7   3  -1    2.58    0.31
   7   3   1    1.97    0.29
  -7   3  -1    2.39    0.29
  -7   3  -1    2.94    0.34
   7   3   1    2.52    0.33
   9  -3   1    0.97    0.21
  -9  -3  -1    1.39    0.30
  -9  -3  -1    0.77    0.26
  -9  -3  -1    0.84    0.25
  -9   3  -1    0.98    0.24
   9   3   1    0.52    0.23
   9   3   1    0.84    0.22
  -9   3  -1    0.94    0.21
  -9   3  -1    1.70    0.27
  -9   3  -1    0.91    0.27
  11  -3   1   20.79    0.75
 -11  -3  -1   19.30    0.85
 -11   3  -1   18.23    0.78
 -11   3  -1   20.66    0.82
  11   3   1   19.40    0.80
  13  -3   1    4.67    0.43
 -13  -3  -1    4.92    0.47
 -13  -3  -1    4.58    0.52
 -13   3  -1    4.23    0.48
 -13   3  -1    5.11    0.49
  13   3   1    4.45    0.48
 -15  -3  -1    7.06    0.66
  15  -3   1    7.23    0.53
  15   3   1    7.15    0.57
 -15   3  -1    6.81    0.60
 -15   3  -1    7.50    0.64
 -17  -3  -1    0.47    0.39
  17  -3   1    0.82    0.29
 -17   3  -1    0.91    0.39
 -17   3  -1    0.77    0.36
  17   3   1    1.53    0.37
 -19  -3  -1    2.17    0.54
  19  -3   1    1.32    0.37
 -19   3  -1    0.60    0.41
  19   3   1    1.53    0.40
 -20  -4   1    2.31    0.53
 -20   4   1    3.08    0.47
  20   4  -1    3.16    0.50
 -18  -4   1    8.25    0.76
  18  -4  -1   10.55    0.60
 -18   4   1    9.77    0.64
  18   4  -1   10.12    0.69
  16  -4  -1    0.28    0.23
 -16  -4   1    0.30    0.35
 -16   4   1   -0.09    0.27
  16   4  -1    0.30    0.28
 -16   4   1    0.27    0.27
  14  -4  -1   16.02    0.64
 -14  -4   1   16.02    0.85
  14   4  -1   16.20    0.76
 -14   4   1   15.48    0.73
 -14   4   1   15.39    0.69
  12  -4  -1   52.51    1.39
 -12  -4   1   52.30    1.63
 -12   4   1   53.32    1.48
  12   4  -1   52.99    1.55
 -12   4   1   53.21    1.46
 -10  -4   1    5.11    0.47
  10  -4  -1    5.83    0.32
 -10  -4   1    5.53    0.29
 -10   4   1    5.81    0.35
 -10   4   1    5.43    0.40
  10   4  -1    5.73    0.41
   8  -4  -1   85.98    1.98
  -8  -4   1   85.65    2.23
  -8   4   1   86.65    2.07
   8   4  -1   84.33    2.14
  -8   4   1   84.65    2.04
  -6  -4   1   25.84    0.84
   6  -4  -1   24.21    0.62
   6   4  -1   24.98    0.79
  -6   4   1   25.07    0.75
  -6   4   1   24.83    0.65
  -4  -4   1   54.90    1.43
   4  -4  -1   55.41    1.24
  -4   4   1   54.75    1.26
  -4   4   1   56.11    1.34
   4   4  -1   55.37    1.39
   2  -4  -1   64.68    1.46
  -2  -4   1   64.64    1.58
  -2   4   1   63.47    1.50
  -2   4   1   66.02    1.49
   2   4  -1   65.00    1.56
  -2   4   1   63.88    1.49
  -2   4   1   63.66    1.44
   0  -4  -1   49.37    1.22
   0  -4   1   50.12    1.23
   0  -4  -1   50.32    1.21
   0   4  -1   47.79    1.21
   0   4  -1   51.34    1.18
   0   4  -1   50.81    1.23
   0   4   1   51.38    1.19
   0   4   1   49.07    1.23
   2  -4   1  139.26    3.27
  -2  -4  -1  147.49    3.28
  -2  -4  -1  146.08    3.33
  -2   4  -1  143.13    3.20
  -2   4  -1  143.76    3.22
   2   4   1  143.05    3.34
   2   4   1  145.23    3.26
  -2   4  -1  144.79    3.30
  -2   4  -1  139.87    3.28
  -4  -4  -1   44.71    1.18
  -4  -4  -1   42.93    1.19
   4  -4   1   43.48    1.11
  -4   4  -1   43.71    1.12
   4   4   1   42.63    1.15
  -4   4  -1   43.51    1.15
  -4   4  -1   43.29    1.08
  -4   4  -1   42.81    1.13
   4   4   1   43.62    1.19
  -6  -4  -1   96.25    2.45
  -6  -4  -1   98.66    2.39
   6  -4   1   94.42    2.29
  -6   4  -1   99.39    2.28
  -6   4  -1   95.52    2.35
   6   4   1   98.74    2.44
   6   4   1   97.67    2.38
  -6   4  -1   96.22    2.34
  -6   4  -1   96.55    2.35
  -8  -4  -1   22.13    0.84
  -8  -4  -1   21.44    0.84
   8  -4   1   20.56    0.69
  -8  -4  -1   21.13    0.78
  -8   4  -1   22.82    0.81
  -8   4  -1   24.14    0.77
  -8   4  -1   21.53    0.68
  -8   4  -1   21.61    0.75
   8   4   1   20.10    0.81
   8   4   1   19.77    0.76
 -10  -4  -1   11.38    0.61
  10  -4   1   10.40    0.50
 -10  -4  -1   11.00    0.58
 -10   4  -1   11.40    0.61
  10   4   1   10.71    0.57
 -10   4  -1   12.49    0.58
 -10   4  -1   10.98    0.57
 -10   4  -1   10.77    0.47
  12  -4   1    2.63    0.32
 -12  -4  -1    2.21    0.42
 -12   4  -1    3.17    0.43
  12   4   1    2.40    0.38
 -12   4  -1    2.86    0.38
 -14  -4  -1    8.25    0.65
  14  -4   1    6.77    0.52
 -14  -4  -1    7.64    0.57
 -14   4  -1    6.96    0.57
 -14   4  -1    7.16    0.62
  14   4   1    6.86    0.60
 -16  -4  -1    2.09    0.47
  16  -4   1    1.71    0.34
  16   4   1    2.10    0.42
 -16   4  -1    2.30    0.43
 -16   4  -1    1.61    0.40
 -18  -4  -1   -0.31    0.36
  18  -4   1   -0.12    0.26
 -18   4  -1    0.40    0.37
  18   4   1   -0.06    0.29
 -20  -4  -1    9.94    0.91
  20  -4   1   11.38    0.73
  20   4   1   11.32    0.81
 -20   4  -1   10.46    0.80
 -21  -5   1    7.28    0.78
 -21   5   1    8.41    0.62
  21   5  -1    8.58    0.77
 -19  -5   1    4.01    0.61
  19   5  -1    3.09    0.48
 -19   5   1    3.02    0.43
 -17  -5   1    7.16    0.72
  17  -5  -1    7.95    0.51
 -17   5   1    6.23    0.51
  17   5  -1    7.03    0.63
  15  -5  -1    8.08    0.46
 -15  -5   1    6.71    0.65
 -15   5   1    7.19    0.57
  15   5  -1    6.66    0.58
 -15   5   1    6.51    0.47
 -13  -5   1   25.07    1.08
  13  -5  -1   27.43    0.86
  13   5  -1   27.31    1.02
 -13   5   1   28.30    0.99
 -13   5   1   28.25    0.91
 -11  -5   1   10.73    0.66
  11  -5  -1   11.90    0.45
 -11   5   1   10.75    0.48
 -11   5   1   11.49    0.57
  11   5  -1   11.15    0.59
  -9  -5   1   20.64    0.55
  -9  -5   1   19.77    0.81
   9  -5  -1   21.38    0.60
   9   5  -1   20.05    0.76
   9   5  -1   20.77    0.80
  -9   5   1   20.44    0.73
  -9   5   1   20.16    0.63
  -7  -5   1    2.45    0.36
   7  -5  -1    2.35    0.19
   7  -5  -1    2.12    0.16
   7   5  -1    2.27    0.29
  -7   5   1    2.70    0.30
  -7   5   1    2.43    0.20
  -5  -5   1    4.96    0.36
  -5   5   1    4.49    0.32
   5   5  -1    4.77    0.34
   3  -5  -1   38.61    0.89
   3  -5  -1   38.67    0.89
  -3  -5   1   37.19    1.06
  -3   5   1   38.77    0.91
   3   5  -1   39.56    1.05
  -3   5   1   40.77    0.92
  -3   5   1   40.19    1.00
   1  -5  -1   15.98    0.46
   1  -5  -1   15.06    0.46
  -1  -5   1   15.74    0.53
  -1   5   1   15.57    0.44
   1   5  -1   15.31    0.51
  -1   5   1   15.29    0.48
  -1   5   1   14.66    0.47
   1   5  -1   15.93    0.52
  -1   5   1   16.53    0.47
   1   5  -1   15.88    0.45
   1  -5   1   81.55    1.90
  -1  -5  -1   78.32    1.89
  -1  -5  -1   80.81    1.93
   1   5   1   80.25    1.88
   1   5   1   81.40    1.94
  -1   5  -1   79.29    1.85
   1   5   1   82.48    1.95
  -1   5  -1   78.63    1.87
  -3  -5  -1   86.46    2.13
  -3  -5  -1   88.69    2.17
   3  -5   1   87.29    2.07
  -3   5  -1   91.16    2.10
   3   5   1   87.91    2.11
  -3   5  -1   89.82    2.12
  -3   5  -1   88.26    2.09
   3   5   1   88.82    2.18
  -3   5  -1   88.83    2.04
   5  -5   1   37.58    1.03
  -5  -5  -1   38.13    1.14
  -5  -5  -1   39.61    1.13
  -5   5  -1   38.67    1.00
  -5   5  -1   39.11    1.12
   5   5   1   39.51    1.10
  -5   5  -1   39.37    1.05
  -5   5  -1   36.76    1.05
   5   5   1   39.07    1.15
  -7  -5  -1   27.61    0.93
   7  -5   1   28.74    0.82
  -7  -5  -1   26.75    0.95
  -7   5  -1   26.27    0.84
   7   5   1   27.13    0.95
   7   5   1   26.47    0.89
  -7   5  -1   27.65    0.91
  -7   5  -1   28.53    0.87
  -7   5  -1   27.13    0.79
  -9  -5  -1    4.15    0.40
   9  -5   1    4.07    0.31
  -9  -5  -1    3.91    0.42
  -9   5  -1    3.82    0.34
  -9   5  -1    3.78    0.39
  -9   5  -1    3.73    0.34
  -9   5  -1    3.36    0.28
   9   5   1    3.63    0.39
   9   5   1    3.89    0.38
 -11  -5  -1   35.98    1.27
  11  -5   1   36.77    1.08
 -11   5  -1   36.42    1.21
 -11   5  -1   34.79    1.14
  11   5   1   36.54    1.22
 -11   5  -1   36.91    1.16
  13  -5   1    7.27    0.47
 -13  -5  -1    6.93    0.54
 -13  -5  -1    5.95    0.60
  13   5   1    5.01    0.52
 -13   5  -1    6.74    0.60
 -13   5  -1    6.47    0.52
  15  -5   1    3.24    0.40
 -15  -5  -1    2.72    0.51
 -15   5  -1    2.66    0.43
  15   5   1    2.69    0.44
 -15   5  -1    3.74    0.52
 -17  -5  -1    0.83    0.42
  17  -5   1    0.47    0.26
 -17   5  -1    0.97    0.39
  17   5   1    0.54    0.32
 -17   5  -1    0.26    0.35
  19  -5   1    1.03    0.34
 -19  -5  -1    1.97    0.54
  19   5   1    0.80    0.36
 -19   5  -1    0.82    0.40
 -20  -6   1    1.80    0.53
  20   6  -1    1.97    0.46
 -20   6   1    0.87    0.35
 -18  -6   1    3.66    0.60
  18   6  -1    3.97    0.52
 -18   6   1    4.06    0.45
  16  -6  -1    2.12    0.30
 -16  -6   1    2.83    0.49
 -16   6   1    3.03    0.37
  16   6  -1    2.48    0.43
 -16   6   1    2.23    0.39
 -14  -6   1   10.48    0.74
  14  -6  -1   11.29    0.50
  14   6  -1   10.54    0.65
 -14   6   1   10.43    0.66
 -14   6   1   10.76    0.54
 -12  -6   1    8.65    0.66
  12  -6  -1    9.29    0.42
 -12   6   1    9.62    0.45
  12   6  -1    8.37    0.57
 -12   6   1   10.20    0.60
 -10  -6   1    1.48    0.33
 -10  -6   1    1.41    0.15
  10  -6  -1    1.38    0.17
 -10   6   1    1.12    0.19
 -10   6   1    1.49    0.28
  10   6  -1    1.48    0.28
   8  -6  -1    2.70    0.20
   8  -6  -1    3.10    0.20
  -8  -6   1    2.87    0.38
  -8   6   1    3.54    0.33
  -8   6   1    3.00    0.24
   8   6  -1    2.40    0.32
  -6  -6   1   32.02    1.07
  -6   6   1   32.71    0.97
   6   6  -1   33.86    1.01
  -4  -6   1   15.02    0.57
   4   6  -1   14.48    0.53
  -4   6   1   14.66    0.51
  -2  -6   1   47.16    1.25
   2  -6  -1   47.67    1.11
  -2   6   1   46.62    1.14
  -2   6   1   48.77    1.13
  -2   6   1   46.62    1.09
  -2   6   1   46.64    1.17
   2   6  -1   46.57    1.22
   0  -6  -1   98.19    2.31
   0  -6  -1   97.16    2.28
   0  -6   1   98.82    2.33
   0   6  -1   99.97    2.24
   0   6   1  100.22    2.34
   0   6   1  100.99    2.27
   0   6  -1   96.58    2.30
  -2  -6  -1  106.24    2.52
  -2  -6  -1  108.67    2.57
  -2   6  -1  107.78    2.51
  -2   6  -1  105.56    2.46
   2   6   1  107.66    2.59
   2   6   1  110.10    2.51
  -2   6  -1  105.19    2.45
  -4  -6  -1   42.15    1.19
  -4  -6  -1   43.54    1.22
   4  -6   1   41.82    1.11
  -4   6  -1   42.85    1.07
  -4   6  -1   43.52    1.12
   4   6   1   43.27    1.18
  -4   6  -1   42.34    1.13
   4   6   1   43.30    1.24
  -4   6  -1   43.12    1.16
  -6  -6  -1   10.32    0.53
  -6  -6  -1    8.72    0.58
   6  -6   1    9.71    0.45
  -6   6  -1    9.72    0.47
   6   6   1    8.53    0.52
  -6   6  -1    9.59    0.41
  -6   6  -1   10.32    0.54
   6   6   1   10.11    0.55
  -6   6  -1   10.10    0.47
   8  -6   1   37.74    1.04
  -8  -6  -1   37.71    1.16
  -8  -6  -1   37.07    1.21
  -8   6  -1   38.77    1.08
  -8   6  -1   36.84    0.99
  -8   6  -1   37.88    1.09
   8   6   1   36.03    1.16
   8   6   1   36.69    1.19
  -8   6  -1   37.28    1.16
  10  -6   1   16.01    0.60
 -10  -6  -1   15.57    0.78
 -10   6  -1   16.39    0.76
 -10   6  -1   15.72    0.66
  10   6   1   16.54    0.72
 -10   6  -1   15.01    0.64
  12  -6   1    4.62    0.39
 -12  -6  -1    4.53    0.54
 -12   6  -1    4.34    0.43
  12   6   1    4.63    0.48
 -12   6  -1    4.49    0.50
  14  -6   1   19.14    0.75
 -14  -6  -1   18.51    0.95
 -14   6  -1   17.19    0.82
 -14   6  -1   18.01    0.90
  14   6   1   17.65    0.87
 -16  -6  -1    3.52    0.58
  16  -6   1    3.61    0.42
 -16   6  -1    4.76    0.56
 -16   6  -1    3.97    0.48
  16   6   1    4.19    0.53
 -18  -6  -1    5.62    0.71
  18  -6   1    7.27    0.58
 -18   6  -1    6.69    0.64
 -18   6  -1    7.02    0.69
  18   6   1    5.47    0.62
 -20  -6  -1    7.91    0.84
 -20   6  -1    7.44    0.71
  20   6   1    6.49    0.72
 -21  -7   1   -0.05    0.46
 -21   7   1    0.02    0.31
  21   7  -1    0.48    0.36
 -19  -7   1    1.60    0.50
  19   7  -1    0.99    0.39
 -19   7   1    0.84    0.33
 -17  -7   1   -0.47    0.35
 -17   7   1    0.07    0.30
  17   7  -1    0.20    0.28
 -17   7   1   -0.12    0.24
  15  -7  -1   13.42    0.56
 -15  -7   1   13.35    0.85
  15   7  -1   13.20    0.75
 -15   7   1   14.04    0.76
 -15   7   1   13.01    0.60
  13  -7  -1   25.56    0.79
 -13  -7   1   25.27    1.10
  13   7  -1   26.42    1.03
 -13   7   1   26.50    0.98
 -13   7   1   26.50    0.83
  11  -7  -1   26.47    0.74
 -11  -7   1   25.73    1.06
  11   7  -1   26.12    0.96
 -11   7   1   26.52    0.76
 -11   7   1   26.62    0.93
   9  -7  -1    4.42    0.23
  -9  -7   1    4.68    0.46
   9  -7  -1    4.97    0.23
  -9   7   1    4.63    0.39
   9   7  -1    5.30    0.43
   9   7  -1    4.12    0.40
  -9   7   1    4.73    0.25
  -7  -7   1   17.64    0.76
   7   7  -1   16.49    0.70
  -7   7   1   19.05    0.68
  -5  -7   1   24.15    0.85
   5   7  -1   24.88    0.80
  -5   7   1   23.31    0.78
   3  -7  -1   23.42    0.59
  -3  -7   1   23.17    0.77
  -3   7   1   24.09    0.61
  -3   7   1   23.38    0.70
  -3   7   1   23.15    0.61
   3   7  -1   23.64    0.74
   1  -7  -1   37.65    0.98
  -1  -7   1   40.69    1.07
  -1   7   1   38.32    1.00
  -1   7   1   39.95    0.97
   1   7  -1   39.05    1.06
   1   7  -1   37.14    1.04
   1   7  -1   39.46    0.96
  -1   7   1   40.15    1.01
  -1   7   1   38.29    1.01
   1  -7   1   92.21    2.24
  -1  -7  -1   94.27    2.27
  -1  -7  -1   96.48    2.24
   1   7   1   94.75    2.22
   1   7   1   92.80    2.29
  -1   7  -1   95.53    2.24
  -1   7  -1   95.33    2.18
   1   7   1   96.38    2.29
  -1   7  -1   93.19    2.21
  -3  -7  -1  121.29    2.90
  -3  -7  -1  117.57    2.84
   3   7   1  119.51    2.83
  -3   7  -1  120.17    2.80
  -3   7  -1  118.09    2.73
  -3   7  -1  118.49    2.78
   3   7   1  125.68    2.93
   5  -7   1   10.68    0.46
  -5  -7  -1   10.85    0.57
  -5  -7  -1    9.72    0.55
  -5   7  -1   10.07    0.55
   5   7   1   11.35    0.55
   5   7   1   10.08    0.57
  -5   7  -1   10.78    0.40
  -5   7  -1    9.45    0.50
  -5   7  -1   10.26    0.46
  -7  -7  -1    4.62    0.45
  -7  -7  -1    5.39    0.45
   7  -7   1    4.81    0.33
   7   7   1    5.39    0.46
  -7   7  -1    4.23    0.28
  -7   7  -1    4.23    0.39
   7   7   1    4.52    0.40
  -7   7  -1    4.53    0.34
  -7   7  -1    4.88    0.35
  -9  -7  -1   48.39    1.53
   9  -7   1   48.78    1.30
  -9   7  -1   49.22    1.46
   9   7   1   48.20    1.46
  -9   7  -1   50.55    1.36
   9   7   1   48.49    1.50
  -9   7  -1   49.11    1.36
  11  -7   1   82.85    2.04
 -11  -7  -1   74.60    2.27
 -11   7  -1   79.52    2.12
 -11   7  -1   83.46    2.12
 -11   7  -1   81.28    2.19
  11   7   1   82.99    2.24
 -13  -7  -1    2.26    0.45
  13  -7   1    2.34    0.31
  13   7   1    2.19    0.38
 -13   7  -1    2.28    0.38
 -13   7  -1    1.73    0.42
  15  -7   1   -0.10    0.21
 -15  -7  -1    0.26    0.36
  15   7   1    0.37    0.30
 -15   7  -1    0.11    0.31
 -15   7  -1   -0.11    0.30
 -17  -7  -1   14.23    0.94
  17  -7   1   13.88    0.70
  17   7   1   13.81    0.83
 -17   7  -1   13.91    0.79
 -17   7  -1   13.91    0.83
 -19  -7  -1    2.28    0.58
 -19   7  -1    2.88    0.48
  19   7   1    2.23    0.48
 -20  -8   1    6.01    0.78
 -20   8   1    7.23    0.54
  20   8  -1    6.95    0.72
 -18  -8   1    2.03    0.54
 -18   8   1    2.80    0.37
 -18   8   1    2.81    0.46
  18   8  -1    3.15    0.49
 -16  -8   1    1.68    0.49
 -16   8   1    0.66    0.34
 -16   8   1    1.64    0.30
  16   8  -1    0.99    0.37
  14  -8  -1   15.84    0.57
 -14  -8   1   17.19    0.93
 -14   8   1   15.20    0.78
  14   8  -1   15.14    0.81
 -14   8   1   16.01    0.61
  12  -8  -1   24.61    0.71
 -12  -8   1   23.69    1.03
 -12   8   1   24.59    0.94
  12   8  -1   24.05    0.96
 -12   8   1   24.07    0.73
  10  -8  -1   22.77    0.61
 -10  -8   1   22.32    0.94
 -10   8   1   23.38    0.86
 -10   8   1   23.32    0.64
  10   8  -1   23.36    0.90
  -8  -8   1    1.16    0.30
  -8   8   1    1.58    0.29
   8   8  -1    1.88    0.30
  -6  -8   1   96.68    2.46
   6   8  -1   95.91    2.37
  -6   8   1   90.45    2.28
   4  -8  -1   35.79    0.82
   4  -8  -1   34.08    0.81
  -4  -8   1   34.58    1.07
   4   8  -1   33.67    1.03
  -4   8   1   34.70    0.99
  -4   8   1   35.14    0.84
   2  -8  -1    2.89    0.21
  -2  -8   1    3.03    0.29
  -2   8   1    2.84    0.24
  -2   8   1    2.65    0.22
  -2   8   1    3.04    0.24
  -2   8   1    2.72    0.18
   2   8  -1    2.91    0.23
   2   8  -1    3.09    0.27
   0  -8  -1   21.34    0.63
   0  -8   1   19.24    0.64
   0  -8  -1   20.66    0.64
   0   8  -1   20.65    0.62
   0   8   1   21.14    0.66
   0   8   1   20.71    0.64
   0   8   1   20.69    0.62
   0   8   1   20.13    0.66
   0   8  -1   21.07    0.66
  -2  -8  -1   18.52    0.66
  -2  -8  -1   18.05    0.63
  -2   8  -1   17.42    0.56
   2   8   1   18.11    0.65
  -2   8  -1   17.88    0.61
   2   8   1   17.71    0.61
   2   8   1   18.38    0.68
  -2   8  -1   18.38    0.58
  -4  -8  -1  140.45    3.27
  -4  -8  -1  134.30    3.34
  -4   8  -1  132.85    3.10
   4   8   1  138.75    3.36
  -4   8  -1  136.57    3.20
  -4   8  -1  139.87    3.20
   4   8   1  138.16    3.26
   6  -8   1    0.63    0.18
  -6  -8  -1    0.76    0.27
  -6  -8  -1    0.31    0.24
  -6   8  -1    0.44    0.19
   6   8   1    0.52    0.22
  -6   8  -1    0.45    0.21
  -6   8  -1    0.57    0.27
  -6   8  -1    0.65    0.15
   6   8   1    0.79    0.28
   8  -8   1    2.85    0.26
  -8  -8  -1    2.95    0.36
  -8  -8  -1    2.50    0.39
  -8   8  -1    2.78    0.28
  -8   8  -1    3.01    0.37
  -8   8  -1    3.33    0.31
   8   8   1    2.73    0.35
  -8   8  -1    2.89    0.22
   8   8   1    2.68    0.38
 -10  -8  -1    1.48    0.37
  10  -8   1    1.44    0.23
 -10   8  -1    1.66    0.28
 -10   8  -1    1.86    0.37
 -10   8  -1    1.67    0.28
  10   8   1    1.95    0.34
  12  -8   1    4.80    0.39
 -12  -8  -1    3.76    0.53
 -12   8  -1    5.87    0.58
 -12   8  -1    4.29    0.42
  12   8   1    6.00    0.56
  14  -8   1    1.68    0.29
 -14  -8  -1    1.53    0.46
 -14   8  -1    1.99    0.42
 -14   8  -1    1.72    0.35
  14   8   1    1.63    0.39
  16  -8   1    3.57    0.40
 -16  -8  -1    2.64    0.55
  16   8   1    1.98    0.44
 -16   8  -1    2.89    0.49
 -16   8  -1    3.22    0.45
 -18  -8  -1    4.21    0.66
 -18   8  -1    3.49    0.49
 -18   8  -1    3.98    0.56
  18   8   1    3.77    0.57
 -20  -8  -1    2.44    0.62
  20   8   1    2.63    0.51
 -21  -9   1    1.01    0.49
  21   9  -1    1.34    0.46
 -21   9   1    1.02    0.34
 -19  -9   1    2.49    0.59
  19   9  -1    2.82    0.51
 -19   9   1    3.44    0.40
 -17  -9   1   14.75    0.98
 -17   9   1   17.94    0.85
 -17   9   1   15.60    0.66
  17   9  -1   15.69    0.89
 -15  -9   1    9.97    0.79
 -15   9   1   11.03    0.70
  15   9  -1   12.20    0.74
 -15   9   1   10.37    0.50
  13  -9  -1    3.96    0.29
 -13  -9   1    5.36    0.58
 -13   9   1    4.55    0.48
 -13   9   1    4.04    0.32
  13   9  -1    4.50    0.50
  11  -9  -1   39.79    0.99
 -11  -9   1   40.28    1.43
 -11   9   1   40.62    1.03
 -11   9   1   39.69    1.27
  11   9  -1   40.77    1.33
  -9  -9   1   25.83    1.01
  -9   9   1   23.14    0.87
   9   9  -1   23.57    0.91
  -7  -9   1    0.60    0.27
  -7   9   1   -0.14    0.19
   7   9  -1    0.19    0.23
  -5  -9   1   18.24    0.76
  -5   9   1   16.38    0.66
   5   9  -1   17.78    0.72
   3  -9  -1   18.49    0.53
  -3  -9   1   18.76    0.71
   3   9  -1   18.96    0.68
  -3   9   1   19.08    0.56
   3   9  -1   18.23    0.53
  -3   9   1   17.04    0.64
  -1  -9   1    3.69    0.31
   1  -9  -1    3.79    0.27
   1   9  -1    4.22    0.31
  -1   9   1    3.44    0.29
  -1   9   1    3.94    0.26
   1   9  -1    3.95    0.30
   1   9  -1    3.99    0.31
  -1   9   1    4.19    0.31
  -1   9   1    3.84    0.30
  -1  -9  -1    7.50    0.42
  -1  -9  -1    7.90    0.41
   1   9   1    7.71    0.39
  -1   9  -1    7.87    0.42
  -1   9  -1    8.39    0.40
   1   9   1    7.66    0.44
  -1   9  -1    8.57    0.39
  -3  -9  -1   74.23    1.89
  -3  -9  -1   72.60    1.92
  -3   9  -1   73.17    1.80
   3   9   1   73.65    1.86
   3   9   1   74.20    1.94
  -3   9  -1   72.98    1.85
  -3   9  -1   72.07    1.75
  -5  -9  -1    8.77    0.55
  -5  -9  -1    9.54    0.52
  -5   9  -1    8.67    0.58
  -5   9  -1   10.01    0.45
   5   9   1    8.86    0.49
   5   9   1    7.97    0.54
  -5   9  -1    9.13    0.36
  -7  -9  -1   22.06    0.88
   7  -9   1   21.02    0.70
  -7  -9  -1   22.76    0.86
   7   9   1   22.12    0.90
  -7   9  -1   21.95    0.83
  -7   9  -1   22.14    0.74
  -7   9  -1   23.20    0.72
  -7   9  -1   22.34    0.63
   7   9   1   21.37    0.83
  -9  -9  -1   17.22    0.84
   9  -9   1   19.68    0.67
  -9   9  -1   20.85    0.71
  -9   9  -1   20.24    0.83
   9   9   1   20.99    0.89
   9   9   1   19.69    0.83
  -9   9  -1   17.82    0.71
  11  -9   1   11.79    0.51
 -11  -9  -1   11.76    0.77
 -11   9  -1   10.48    0.71
  11   9   1   10.64    0.65
 -11   9  -1   11.78    0.58
 -11   9  -1   10.71    0.57
 -13  -9  -1    2.26    0.49
  13  -9   1    1.90    0.29
 -13   9  -1    2.24    0.35
  13   9   1    1.85    0.41
 -13   9  -1    2.47    0.44
  15  -9   1   22.05    0.83
 -15  -9  -1   19.12    1.07
 -15   9  -1   23.27    1.04
  15   9   1   21.85    1.03
 -15   9  -1   22.30    0.91
 -17  -9  -1    7.00    0.78
 -17   9  -1    7.20    0.58
  17   9   1    6.91    0.69
 -17   9  -1    6.22    0.67
 -19  -9  -1    4.96    0.74
  19   9   1    4.77    0.63
 -19   9  -1    6.25    0.69
 -19   9  -1    5.12    0.54
 -20 -10   1    0.71    0.50
 -20  10   1    1.10    0.27
  20  10  -1    0.88    0.39
 -18 -10   1    3.20    0.61
  18  10  -1    2.43    0.47
 -18  10   1    3.48    0.50
 -18  10   1    2.47    0.34
 -16 -10   1    1.57    0.50
 -16  10   1    1.35    0.26
  16  10  -1    1.22    0.38
 -16  10   1    1.94    0.40
 -14 -10   1    7.11    0.71
 -14  10   1    6.58    0.37
 -14  10   1    6.58    0.59
  14  10  -1    7.87    0.62
 -12 -10   1   10.59    0.77
  12 -10  -1   10.14    0.37
 -12  10   1   10.85    0.66
 -12  10   1   10.53    0.40
  12  10  -1   10.67    0.67
 -10 -10   1   -0.34    0.30
  10  10  -1    0.06    0.24
 -10  10   1    0.18    0.25
  -8 -10   1   30.64    1.12
   8  10  -1   28.89    1.02
  -8  10   1   31.21    1.01
  -6 -10   1    8.66    0.57
   6  10  -1    9.24    0.55
  -6  10   1    9.21    0.50
  -4 -10   1   43.94    1.33
  -4  10   1   43.06    1.22
   4  10  -1   43.54    1.26
   4  10  -1   42.84    1.05
  -4  10   1   43.23    1.08
   2 -10  -1   19.05    0.59
  -2 -10   1   18.29    0.73
  -2  10   1   18.62    0.55
  -2  10   1   18.41    0.61
  -2  10   1   17.19    0.65
   2  10  -1   18.82    0.58
   2  10  -1   17.62    0.69
   0 -10   1   32.26    0.97
   0 -10  -1   32.53    0.94
   0 -10  -1   33.82    0.95
   0  10  -1   32.26    0.96
   0  10   1   31.91    0.98
   0  10   1   32.83    0.92
   0  10   1   33.14    0.98
   0  10   1   33.94    0.94
   0  10  -1   32.90    0.93
  -2 -10  -1   28.69    0.92
  -2 -10  -1   30.57    0.94
  -2  10  -1   28.25    0.84
  -2  10  -1   28.80    0.90
   2  10   1   29.15    0.97
  -2  10  -1   29.31    0.88
   2  10   1   28.78    0.90
   2  10   1   28.76    0.95
  -4 -10  -1   33.35    1.07
  -4 -10  -1   32.15    1.03
  -4  10  -1   31.64    0.86
  -4  10  -1   32.70    0.93
   4  10   1   32.10    1.09
   4  10   1   32.44    1.01
  -4  10  -1   30.39    1.02
  -6 -10  -1   23.49    0.91
  -6 -10  -1   23.92    0.87
   6 -10   1   23.54    0.74
  -6  10  -1   22.76    0.65
   6  10   1   23.56    0.91
   6  10   1   23.40    0.85
  -6  10  -1   23.29    0.89
  -6  10  -1   24.29    0.74
   8 -10   1   26.66    0.81
  -8 -10  -1   26.43    1.04
  -8  10  -1   25.50    0.85
   8  10   1   26.12    0.96
  -8  10  -1   26.72    0.82
   8  10   1   27.04    1.02
  -8  10  -1   25.25    0.95
 -10 -10  -1    4.82    0.55
  10 -10   1    5.56    0.37
  10  10   1    5.66    0.53
 -10  10  -1    5.37    0.51
 -10  10  -1    4.60    0.38
 -10  10  -1    4.65    0.39
  12 -10   1   11.83    0.53
 -12 -10  -1   10.94    0.75
 -12  10  -1   10.82    0.59
 -12  10  -1   11.13    0.74
  12  10   1   11.63    0.72
 -14 -10  -1   14.16    0.91
  14 -10   1   14.55    0.62
 -14  10  -1   13.55    0.68
 -14  10  -1   12.92    0.81
  14  10   1   15.42    0.84
 -16 -10  -1    0.95    0.47
  16  10   1    0.74    0.37
 -16  10  -1    0.68    0.34
 -16  10  -1    1.39    0.43
 -18 -10  -1    2.19    0.58
 -18  10  -1    1.04    0.38
 -18  10  -1    1.53    0.45
  18  10   1    1.66    0.44
 -19 -11   1    3.30    0.65
 -19  11   1    3.35    0.35
  19  11  -1    2.73    0.53
 -19  11   1    4.10    0.56
 -17 -11   1    1.12    0.49
 -17  11   1    1.05    0.37
 -17  11   1    0.56    0.23
  17  11  -1    1.01    0.38
 -15 -11   1    3.82    0.56
  15  11  -1    3.41    0.51
 -15  11   1    3.03    0.28
 -15  11   1    3.88    0.50
 -13 -11   1   10.29    0.80
 -13  11   1    9.70    0.66
  13  11  -1   10.72    0.70
 -13  11   1   10.18    0.40
 -11 -11   1    8.63    0.71
 -11  11   1    7.86    0.59
  11  11  -1    8.11    0.57
  -9 -11   1   11.34    0.73
   9  11  -1   12.21    0.64
  -9  11   1   12.25    0.64
  -7 -11   1    5.77    0.51
  -7  11   1    5.28    0.43
   7  11  -1    4.50    0.43
   5 -11  -1   18.60    0.51
  -5 -11   1   16.76    0.78
  -5  11   1   19.80    0.55
  -5  11   1   18.85    0.75
   5  11  -1   19.89    0.77
  -3 -11   1   39.55    1.22
  -3  11   1   38.88    1.12
   3  11  -1   38.75    1.00
  -3  11   1   37.62    0.97
  -3  11   1   39.43    1.05
   3  11  -1   39.21    1.18
   1 -11  -1    2.38    0.27
  -1 -11   1    2.65    0.32
   1  11  -1    2.99    0.33
  -1  11   1    2.88    0.26
  -1  11   1    2.75    0.30
  -1  11   1    2.50    0.29
   1  11  -1    3.04    0.33
   1  11  -1    2.64    0.27
  -1 -11  -1   73.02    1.90
  -1 -11  -1   76.07    1.93
   1  11   1   75.61    1.88
  -1  11  -1   75.93    1.91
   1  11   1   76.95    1.98
   1  11   1   75.85    1.85
  -1  11  -1   73.52    1.86
  -1  11  -1   75.08    1.87
  -3 -11  -1   24.25    0.86
  -3 -11  -1   24.85    0.90
  -3  11  -1   24.44    0.73
  -3  11  -1   24.18    0.84
  -3  11  -1   24.91    0.79
   3  11   1   24.16    0.84
   3  11   1   25.21    0.91
  -5 -11  -1    2.27    0.32
  -5 -11  -1    2.24    0.36
   5  11   1    1.92    0.30
   5  11   1    2.07    0.34
  -5  11  -1    2.50    0.21
  -5  11  -1    2.33    0.32
  -5  11  -1    1.79    0.24
   7 -11   1    1.55    0.22
  -7 -11  -1    1.76    0.35
   7  11   1    1.98    0.33
   7  11   1    1.04    0.29
  -7  11  -1    1.41    0.32
  -7  11  -1    1.92    0.24
   9 -11   1   43.84    1.18
  -9 -11  -1   44.34    1.49
  -9  11  -1   42.00    1.39
   9  11   1   44.19    1.42
  -9  11  -1   42.85    1.25
  -9  11  -1   43.63    1.22
 -11 -11  -1   24.64    1.11
  11 -11   1   25.78    0.84
 -11  11  -1   28.59    0.90
  11  11   1   26.41    1.08
 -11  11  -1   25.86    0.91
 -11  11  -1   25.90    1.08
  13 -11   1    0.26    0.20
 -13 -11  -1    0.14    0.35
  13  11   1   -0.10    0.26
 -13  11  -1   -0.19    0.26
 -13  11  -1    0.17    0.32
 -15 -11  -1    1.74    0.50
 -15  11  -1    1.07    0.35
 -15  11  -1    0.78    0.38
  15  11   1    0.97    0.37
 -17 -11  -1    4.94    0.72
  17  11   1    5.54    0.65
 -17  11  -1    5.69    0.65
 -17  11  -1    5.82    0.54
 -19 -11  -1    1.25    0.57
 -19  11  -1    1.72    0.40
 -19  11  -1    1.84    0.49
  19  11   1    1.97    0.49
 -20 -12   1    0.83    0.55
 -20  12   1    1.74    0.29
  20  12  -1    1.32    0.48
 -18 -12   1    1.37    0.53
 -18  12   1    1.38    0.41
  18  12  -1    0.94    0.40
 -18  12   1    0.71    0.24
 -16 -12   1    2.79    0.60
 -16  12   1    2.90    0.27
 -16  12   1    3.33    0.49
  16  12  -1    3.56    0.52
 -14 -12   1    6.60    0.71
 -14  12   1    6.41    0.33
 -14  12   1    6.63    0.61
  14  12  -1    7.21    0.66
 -12 -12   1    9.55    0.78
 -12  12   1    8.50    0.63
  12  12  -1    8.65    0.65
 -10 -12   1   16.08    0.85
  10  12  -1   15.52    0.79
 -10  12   1   15.36    0.77
  -8 -12   1    4.05    0.49
   8  12  -1    4.11    0.42
  -8  12   1    4.04    0.43
  -6 -12   1   13.29    0.68
   6 -12  -1   12.27    0.36
   6  12  -1   13.33    0.65
  -6  12   1   12.10    0.39
  -6  12   1   12.26    0.62
  -4 -12   1   45.91    1.41
  -4  12   1   46.89    1.33
  -4  12   1   46.86    1.19
   4  12  -1   44.93    1.14
   4  12  -1   45.75    1.36
  -2 -12   1    6.72    0.51
  -2  12   1    5.30    0.33
  -2  12   1    6.82    0.42
   2  12  -1    6.23    0.46
  -2  12   1    5.99    0.43
   2  12  -1    5.86    0.36
   2  12  -1    6.93    0.47
   0 -12   1   35.09    1.08
   0 -12  -1   37.07    1.05
   0  12   1   35.97    1.10
   0  12   1   36.44    1.10
   0  12   1   35.63    1.06
   0  12  -1   36.24    1.04
   0  12   1   34.98    1.02
   0  12  -1   35.39    1.09
   0  12  -1   37.61    1.08
  -2 -12  -1   28.13    0.97
  -2 -12  -1   27.13    0.94
   2  12   1   29.44    0.98
   2  12   1   30.42    0.93
   2  12   1   29.48    1.01
  -2  12  -1   31.32    0.92
  -2  12  -1   28.68    0.87
  -2  12  -1   28.84    0.92
  -4 -12  -1    6.33    0.47
  -4  12  -1    5.98    0.46
   4  12   1    6.73    0.52
   4  12   1    6.00    0.45
  -4  12  -1    6.60    0.40
  -4  12  -1    5.75    0.33
  -6 -12  -1    5.76    0.51
  -6  12  -1    5.50    0.36
   6  12   1    5.74    0.51
  -6  12  -1    6.11    0.49
   6  12   1    6.15    0.47
   8 -12   1    9.73    0.48
  -8 -12  -1   10.69    0.71
   8  12   1   12.04    0.69
   8  12   1   12.03    0.66
  -8  12  -1   12.22    0.51
  -8  12  -1    9.81    0.61
 -10 -12  -1    1.30    0.41
  10 -12   1    2.16    0.26
 -10  12  -1    2.11    0.30
 -10  12  -1    2.39    0.32
 -10  12  -1    2.29    0.43
  10  12   1    2.75    0.43
  12 -12   1    0.02    0.17
 -12 -12  -1    0.15    0.37
  12  12   1    0.03    0.29
 -12  12  -1    0.10    0.26
 -12  12  -1    0.00    0.30
 -14 -12  -1    6.72    0.71
 -14  12  -1    7.89    0.53
 -14  12  -1    7.16    0.69
  14  12   1    7.69    0.62
 -16 -12  -1    2.23    0.55
 -16  12  -1    3.23    0.41
 -16  12  -1    3.10    0.53
  16  12   1    2.20    0.49
  18  12   1    2.08    0.48
 -18  12  -1    1.31    0.45
 -18  12  -1    1.55    0.36
 -19 -13   1    2.27    0.60
 -19  13   1    2.62    0.28
 -19  13   1    2.96    0.53
  19  13  -1    2.76    0.53
 -17 -13   1    3.71    0.66
  17  13  -1    3.52    0.56
 -17  13   1    4.12    0.56
 -15 -13   1    1.95    0.52
  15  13  -1   -0.14    0.31
 -15  13   1    0.22    0.31
 -13 -13   1    2.88    0.55
 -13  13   1    2.35    0.43
  13  13  -1    1.36    0.39
 -11 -13   1   42.89    1.57
 -11  13   1   43.86    1.44
  11  13  -1   46.52    1.51
  -9 -13   1   16.23    0.85
  -9  13   1   17.16    0.79
   9  13  -1   15.87    0.80
  -7 -13   1   10.50    0.64
   7  13  -1   11.42    0.61
  -7  13   1   10.28    0.60
  -7  13   1   11.33    0.35
  -5 -13   1    5.13    0.48
   5  13  -1    5.03    0.45
  -5  13   1    5.02    0.29
   5  13  -1    4.66    0.29
  -5  13   1    5.49    0.43
  -3 -13   1   25.11    0.93
   3  13  -1   24.12    0.88
  -3  13   1   22.35    0.67
  -3  13   1   23.64    0.76
  -3  13   1   23.52    0.84
   3  13  -1   24.71    0.72
  -1 -13   1    3.76    0.37
   1  13  -1    3.63    0.36
  -1  13   1    3.78    0.36
   1  13  -1    3.82    0.32
  -1  13   1    3.59    0.35
  -1  13   1    3.99    0.31
  -1 -13  -1   15.24    0.64
  -1  13  -1   14.77    0.61
   1  13   1   15.59    0.62
  -1  13  -1   14.99    0.61
  -1  13  -1   15.79    0.65
   1  13   1   15.15    0.60
   1  13   1   14.56    0.67
  -3 -13  -1   28.25    0.98
   3  13   1   29.25    1.03
  -3  13  -1   29.15    0.85
   3  13   1   28.60    0.96
  -3  13  -1   30.89    0.91
  -3  13  -1   27.83    0.96
  -5 -13  -1   12.13    0.65
  -5  13  -1   12.49    0.52
   5  13   1   11.98    0.64
   5  13   1   12.07    0.59
  -5  13  -1   12.41    0.61
  -5  13  -1   11.06    0.42
   7 -13   1    7.56    0.43
  -7 -13  -1    9.64    0.62
   7  13   1    8.80    0.57
  -7  13  -1    7.47    0.54
   7  13   1    7.79    0.61
  -7  13  -1    9.06    0.44
   9 -13   1   41.03    1.17
  -9 -13  -1   42.03    1.48
  -9  13  -1   44.40    1.20
   9  13   1   40.46    1.40
  -9  13  -1   42.11    1.39
  11 -13   1    3.33    0.31
 -11 -13  -1    3.57    0.53
 -11  13  -1    3.44    0.36
  11  13   1    3.00    0.46
 -11  13  -1    2.30    0.33
 -11  13  -1    3.13    0.50
 -13 -13  -1    4.49    0.60
  13  13   1    3.65    0.51
 -13  13  -1    3.08    0.37
 -13  13  -1    2.66    0.50
 -15  13  -1    0.82    0.30
  15  13   1    0.64    0.36
 -15  13  -1    1.25    0.43
 -17  13  -1   12.74    0.68
  17  13   1   12.04    0.85
 -17  13  -1   11.68    0.83
 -19  13  -1    0.39    0.33
 -19  13  -1    0.14    0.39
  19  13   1    0.51    0.38
  18  14  -1    4.56    0.65
 -18  14   1    4.69    0.62
 -16 -14   1   -0.10    0.42
 -16  14   1    0.21    0.32
  16  14  -1    0.42    0.34
 -14 -14   1    3.84    0.60
  14  14  -1    5.17    0.60
 -14  14   1    4.52    0.55
 -12 -14   1   11.04    0.78
 -12  14   1    8.42    0.66
  12  14  -1    8.61    0.69
 -10 -14   1   25.10    1.16
  10  14  -1   26.56    1.07
 -10  14   1   26.32    1.04
  -8 -14   1    1.92    0.42
  -8  14   1    1.93    0.35
   8  14  -1    2.55    0.39
  -6 -14   1   60.85    1.84
   6  14  -1   61.05    1.77
  -6  14   1   61.66    1.73
  -6  14   1   62.94    1.51
  -4 -14   1   16.62    0.77
   4  14  -1   18.86    0.76
   4  14  -1   18.13    0.60
  -4  14   1   17.78    0.75
  -4  14   1   18.66    0.62
  -2 -14   1    7.62    0.53
   2  14  -1    7.64    0.49
  -2  14   1    7.66    0.38
  -2  14   1    7.86    0.45
  -2  14   1    7.89    0.50
   2  14  -1    6.91    0.40
   2  14  -1    7.94    0.53
   0  14  -1   16.28    0.64
   0  14  -1   14.77    0.62
   0  14   1   15.13    0.63
   0  14   1   16.42    0.61
   0  14   1   15.89    0.67
   0  14  -1   16.26    0.68
   0  14   1   15.84    0.70
  -2 -14  -1    1.06    0.26
  -2  14  -1    1.05    0.26
   2  14   1    1.18    0.29
   2  14   1    0.76    0.22
  -2  14  -1    0.85    0.22
  -2  14  -1    1.06    0.22
   2  14   1    0.65    0.26
  -4 -14  -1    3.00    0.37
  -4  14  -1    3.00    0.25
  -4  14  -1    2.63    0.29
   4  14   1    2.48    0.35
   4  14   1    3.17    0.37
  -4  14  -1    2.82    0.35
  -6 -14  -1    4.00    0.46
   6  14   1    4.38    0.43
   6  14   1    5.14    0.52
  -6  14  -1    4.44    0.36
  -6  14  -1    4.27    0.45
   8 -14   1    3.04    0.31
  -8 -14  -1    3.45    0.50
   8  14   1    2.77    0.44
  -8  14  -1    3.34    0.31
  -8  14  -1    2.69    0.42
   8  14   1    4.11    0.46
 -10 -14  -1    5.68    0.62
  10 -14   1    6.31    0.41
 -10  14  -1    6.96    0.61
  10  14   1    5.68    0.56
 -10  14  -1    6.98    0.44
  12 -14   1    5.73    0.39
  12  14   1    6.12    0.62
 -12  14  -1    5.11    0.57
  14  14   1    5.38    0.63
 -14  14  -1    5.03    0.45
 -14  14  -1    5.12    0.61
  16  14   1    2.08    0.49
 -16  14  -1    2.26    0.49
 -16  14  -1    0.98    0.32
  18  14   1    0.45    0.37
 -18  14  -1    0.21    0.28
 -18  14  -1    0.53    0.42
 -19  15   1   -0.29    0.38
  19  15  -1    0.51    0.41
 -17  15   1    1.53    0.44
  17  15  -1    2.06    0.47
 -15  15   1    1.06    0.38
  15  15  -1    0.98    0.40
 -13 -15   1    3.97    0.63
 -13  15   1    4.27    0.52
  13  15  -1    4.46    0.58
 -11 -15   1   21.72    1.11
 -11  15   1   22.34    0.98
  11  15  -1   20.73    0.98
  -9 -15   1    0.25    0.34
  -9  15   1    0.72    0.31
   9  15  -1    1.16    0.36
  -7 -15   1    8.91    0.64
  -7  15   1    9.01    0.35
  -7  15   1    8.46    0.61
   7  15  -1    9.23    0.61
  -5 -15   1   10.77    0.64
   5  15  -1   11.68    0.64
  -5  15   1   11.30    0.63
  -5  15   1   11.85    0.48
   5  15  -1   12.59    0.46
  -3 -15   1   25.84    0.95
  -3  15   1   25.67    0.90
  -3  15   1   25.21    0.74
   3  15  -1   26.38    0.94
   3  15  -1   24.54    0.78
  -3  15   1   25.38    0.83
  -1 -15   1   49.11    1.40
  -1  15   1   47.58    1.35
  -1  15   1   47.44    1.36
   1  15  -1   46.59    1.27
  -1  15   1   45.89    1.27
   1  15  -1   44.12    1.35
  -1 -15  -1   32.94    1.06
  -1  15  -1   31.40    1.01
  -1  15  -1   34.16    1.05
   1  15   1   34.18    1.12
   1  15   1   34.13    1.04
  -1  15  -1   34.66    1.06
   1  15   1   33.56    1.02
  -3 -15  -1   14.26    0.69
  -3  15  -1   14.09    0.55
  -3  15  -1   14.67    0.61
   3  15   1   13.80    0.71
  -3  15  -1   14.51    0.68
   3  15   1   15.21    0.63
  -5 -15  -1    2.59    0.40
   5  15   1    2.72    0.39
  -5  15  -1    2.37    0.28
   5  15   1    2.50    0.36
  -5  15  -1    2.46    0.36
  -7 -15  -1    6.32    0.58
   7  15   1    5.66    0.57
   7  15   1    6.29    0.51
  -7  15  -1    6.87    0.41
  -7  15  -1    6.28    0.56
   9 -15   1   20.64    0.73
  -9  15  -1   21.55    0.94
  -9  15  -1   20.60    0.74
   9  15   1   20.54    0.96
  11 -15   1    5.35    0.38
 -11  15  -1    5.69    0.59
  11  15   1    5.16    0.59
  13  15   1    1.89    0.43
 -13  15  -1    1.94    0.48
 -15  15  -1    2.07    0.48
  15  15   1    1.04    0.42
  17  15   1    1.81    0.48
 -17  15  -1    1.96    0.51
 -18  16   1    0.42    0.39
  18  16  -1    0.13    0.33
 -16  16   1    0.92    0.41
  16  16  -1    1.25    0.45
  14  16  -1    2.89    0.52
 -14  16   1    2.72    0.49
  12  16  -1    9.80    0.74
 -12  16   1   11.67    0.76
 -10  16   1    3.31    0.49
  10  16  -1    3.08    0.48
  -8 -16   1    5.19    0.58
   8  16  -1    5.15    0.53
  -8  16   1    5.80    0.29
  -8  16   1    5.66    0.54
  -6 -16   1    0.22    0.31
   6  16  -1    0.55    0.29
  -6  16   1    0.73    0.18
  -6  16   1    0.77    0.30
  -4 -16   1    0.74    0.29
   4  16  -1    0.03    0.21
  -4  16   1    0.45    0.23
   4  16  -1    0.27    0.17
  -4  16   1    0.55    0.20
  -2 -16   1   11.24    0.62
   2  16  -1    9.92    0.51
  -2  16   1   10.50    0.47
   2  16  -1   11.66    0.60
  -2  16   1   11.31    0.55
  -2  16   1   10.21    0.57
   0  16  -1    9.24    0.54
   0  16   1    8.41    0.53
   0  16  -1    8.99    0.51
   0  16   1    8.24    0.45
   0  16   1    9.82    0.54
   0  16  -1    9.16    0.49
   0  16   1    8.61    0.53
   2  16   1    6.71    0.50
  -2  16  -1    7.33    0.47
  -2  16  -1    6.64    0.49
   2  16   1    6.90    0.45
  -2  16  -1    7.03    0.42
  -4  16  -1    4.97    0.46
   4  16   1    3.76    0.46
  -4  16  -1    3.68    0.34
   4  16   1    3.64    0.38
   6  16   1    0.59    0.29
   6  16   1    0.73    0.32
  -6  16  -1    0.94    0.30
  -6  16  -1    0.67    0.23
   8 -16   1   18.83    0.70
  -8  16  -1   16.72    0.88
   8  16   1   19.05    0.95
   8  16   1   19.49    0.88
  -8  16  -1   18.01    0.69
  10 -16   1    4.32    0.36
 -10  16  -1    3.82    0.53
  10  16   1    4.52    0.54
 -10  16  -1    4.01    0.37
 -12  16  -1   -0.09    0.31
  12  16   1    0.65    0.35
 -14  16  -1    3.13    0.53
  14  16   1    3.45    0.54
 -16  16  -1    2.92    0.53
  16  16   1    3.93    0.61
 -18  16  -1    0.38    0.41
  18  16   1    0.14    0.39
  17  17  -1    5.76    0.72
 -17  17   1    4.12    0.59
  15  17  -1    1.35    0.44
 -15  17   1    1.14    0.40
 -13  17   1    1.89    0.43
  13  17  -1    1.54    0.46
 -11  17   1    0.91    0.39
  11  17  -1    1.01    0.39
  -9  17   1   16.43    0.83
   9  17  -1   17.27    0.87
  -7  17   1    0.20    0.17
  -7  17   1   -0.07    0.28
   7  17  -1    0.51    0.29
   5  17  -1    8.67    0.44
   5  17  -1    9.08    0.61
  -5  17   1    9.02    0.58
  -5  17   1    8.88    0.46
   3  17  -1   42.77    1.21
  -3  17   1   45.54    1.28
  -3  17   1   43.94    1.34
   3  17  -1   42.88    1.37
  -1  17   1    1.58    0.25
  -1  17   1    1.74    0.29
  -1  17   1    1.50    0.28
   1  17  -1    1.51    0.29
   1  17  -1    1.50    0.27
  -1  17  -1    8.05    0.52
   1  17   1    9.15    0.57
  -1  17  -1    9.53    0.52
   1  17   1    8.44    0.52
  -1  17  -1    9.19    0.55
   1  17   1    9.32    0.52
   3  17   1    6.62    0.58
  -3  17  -1    8.09    0.50
  -3  17  -1    8.83    0.57
   3  17   1    8.61    0.53
  -5  17  -1   10.22    0.53
   5  17   1   10.81    0.63
  -5  17  -1   10.43    0.67
   5  17   1   10.00    0.66
   7  17   1    1.90    0.42
  -7  17  -1    1.94    0.41
  -7  17  -1    1.57    0.27
   7  17   1    1.66    0.38
   9 -17   1    4.11    0.36
  -9  17  -1    3.36    0.34
  -9  17  -1    2.94    0.49
   9  17   1    3.19    0.50
 -11  17  -1    7.94    0.69
  11  17   1    5.95    0.63
 -13  17  -1    1.57    0.45
  13  17   1    1.26    0.41
 -15  17  -1    5.86    0.69
  15  17   1    3.68    0.60
 -17  17  -1    3.63    0.60
  17  17   1    4.05    0.65
  18  18  -1    0.24    0.41
 -18  18   1    0.10    0.39
 -16  18   1    0.92    0.43
  16  18  -1    1.18    0.44
 -14  18   1   -0.35    0.31
  14  18  -1   -0.09    0.34
  12  18  -1   15.74    0.92
 -12  18   1   13.94    0.87
 -10  18   1    1.93    0.43
  10  18  -1    1.98    0.43
  -8  18   1   13.13    0.47
  -8  18   1   12.75    0.73
   8  18  -1   11.61    0.76
  -6  18   1    3.48    0.46
   6  18  -1    4.07    0.50
  -6  18   1    2.43    0.28
   4  18  -1   66.60    1.93
  -4  18   1   66.97    1.90
   4  18  -1   65.76    1.71
  -4  18   1   69.73    1.79
   2  18  -1    6.87    0.45
  -2  18   1    6.93    0.54
  -2  18   1    6.30    0.49
   2  18  -1    6.72    0.52
   0  18   1    4.46    0.39
   0  18   1    4.25    0.44
   0  18   1    3.92    0.41
   0  18  -1    4.70    0.43
   0  18  -1    4.10    0.41
   2  18   1   22.87    0.86
  -2  18  -1   22.77    0.81
  -2  18  -1   21.73    0.84
   2  18   1   20.65    0.92
   4  18   1    1.83    0.35
  -4  18  -1    2.05    0.38
   4  18   1    1.69    0.40
   6  18   1    0.40    0.33
   6  18   1    0.47    0.27
  -6  18  -1    0.69    0.33
   8  18   1    0.55    0.36
  -8  18  -1    0.15    0.30
   8  18   1    0.24    0.30
  10  18   1    6.87    0.66
 -10  18  -1    6.00    0.65
 -12  18  -1    4.69    0.62
  12  18   1    4.40    0.60
  14  18   1    1.81    0.48
 -14  18  -1    2.06    0.50
 -16  18  -1    0.01    0.34
  16  18   1    0.11    0.36
 -17  19   1    1.27    0.45
  17  19  -1    1.77    0.53
  15  19  -1    2.85    0.54
 -15  19   1    2.76    0.54
 -13  19   1    1.29    0.40
  13  19  -1    2.10    0.48
 -11  19   1    9.11    0.69
  11  19  -1    9.21    0.80
  -9  19   1    6.16    0.31
  -9  19   1    5.66    0.59
   9  19  -1    5.91    0.63
  -9  19   1    5.68    0.30
   7  19  -1    7.10    0.65
  -7  19   1    5.55    0.39
  -7  19   1    6.09    0.59
  -5  19   1   19.26    0.72
   5  19  -1   19.95    0.70
   5  19  -1   18.55    0.87
  -5  19   1   18.08    0.85
   3  19  -1   19.43    0.74
   3  19  -1   19.83    0.88
  -3  19   1   19.12    0.83
   1  19  -1    3.60    0.39
  -1  19   1    3.21    0.40
   1  19  -1    3.66    0.43
   1  19   1    5.04    0.45
  -1  19  -1    5.97    0.46
  -1  19  -1    6.20    0.50
   1  19   1    5.92    0.55
   1  19   1    5.27    0.46
  -3  19  -1    7.40    0.59
   3  19   1    7.23    0.54
   3  19   1    7.71    0.62
  -5  19  -1    6.79    0.60
   5  19   1    6.13    0.56
   5  19   1    6.50    0.63
  -7  19  -1    2.85    0.46
   7  19   1    2.83    0.51
   7  19   1    3.77    0.48
   9 -19   1    9.12    0.50
  -9  19  -1    8.06    0.72
   9  19   1    8.36    0.67
  11  19   1    6.36    0.69
 -11  19  -1    4.93    0.62
 -13  19  -1    1.09    0.43
  13  19   1    1.10    0.39
 -15  19  -1    0.49    0.41
  15  19   1    0.53    0.41
 -17  19  -1    6.25    0.75
  17  19   1    6.19    0.78
  16  20  -1    3.18    0.60
 -16  20   1    2.63    0.55
 -14  20   1    5.95    0.67
  14  20  -1    5.70    0.72
 -12  20   1    3.75    0.55
  12  20  -1    3.46    0.55
 -10  20   1    5.22    0.58
  10  20  -1    5.62    0.63
  -8  20   1    4.81    0.55
   8  20  -1    6.59    0.63
  -8  20   1    5.68    0.36
   6  20  -1   26.69    1.11
  -6  20   1   24.39    1.07
  -4  20   1   32.45    1.17
   4  20  -1   31.49    1.20
   4  20  -1   32.53    1.02
   2  20  -1   31.61    1.04
   2  20  -1   30.68    1.12
  -2  20   1   28.96    1.11
   0  20   1   12.76    0.70
   0  20   1   12.42    0.62
   0  20  -1   14.22    0.69
   0  20  -1   13.16    0.67
   0  20   1   12.86    0.71
   2  20   1   35.85    1.33
   2  20   1   38.46    1.26
  -2  20  -1   37.44    1.25
   4  20   1    1.19    0.38
  -4  20  -1    0.65    0.32
   4  20   1    1.18    0.34
  -6  20  -1    0.52    0.32
   6  20   1    0.10    0.33
   6  20   1    0.30    0.32
  -8  20  -1    3.48    0.52
   8  20   1    3.47    0.51
  10  20   1    7.47    0.72
 -10  20  -1    7.11    0.71
  12  20   1    7.07    0.71
 -12  20  -1    9.53    0.73
  14  20   1   -0.12    0.36
 -14  20  -1    1.13    0.45
  16  20   1    7.40    0.84
 -16  20  -1    8.04    0.85
  17  21  -1    0.84    0.50
 -17  21   1    1.36    0.50
  15  21  -1    1.94    0.54
 -15  21   1    0.80    0.44
  13  21  -1    4.87    0.67
 -13  21   1    4.79    0.61
 -11  21   1   15.17    0.88
  11  21  -1   15.32    0.92
  -9  21   1    8.42    0.75
  -9  21   1    8.47    0.39
  -9  21   1    9.55    0.41
   9  21  -1    8.53    0.69
  -7  21   1    1.38    0.40
   7  21  -1    1.56    0.40
  -7  21   1    1.17    0.25
   5  21  -1    4.16    0.54
  -5  21   1    3.56    0.50
   3  21  -1   14.34    0.79
   3  21  -1   13.65    0.67
  -3  21   1   13.32    0.78
  -1  21   1    3.46    0.45
   1  21  -1    3.41    0.41
  -1  21   1    3.21    0.43
   1  21  -1    3.55    0.44
   1  21   1   21.59    0.89
   1  21   1   21.23    0.97
  -1  21  -1   22.24    0.92
   1  21   1   21.46    0.88
  -3  21  -1    3.19    0.45
   3  21   1    3.57    0.44
   3  21   1    3.47    0.50
   5  21   1   10.33    0.76
  -5  21  -1    9.53    0.70
   5  21   1    9.94    0.67
  -7  21  -1    2.53    0.47
   7  21   1    1.73    0.48
   7  21   1    2.52    0.45
   9  21   1    0.46    0.35
  -9  21  -1    0.52    0.39
  11  21   1   -0.46    0.31
 -11  21  -1    0.01    0.37
 -13  21  -1    9.02    0.84
  13  21   1    7.38    0.79
 -15  21  -1    7.04    0.78
  15  21   1    4.97    0.70
 -16  22   1    1.39    0.49
  16  22  -1    0.97    0.45
  14  22  -1    2.10    0.53
 -14  22   1    1.98    0.46
  12  22  -1    8.02    0.81
 -12  22   1    7.41    0.75
 -10  22   1    2.50    0.22
 -10  22   1    2.56    0.47
  10  22  -1    1.86    0.49
  -8  22   1   13.49    0.85
  -8  22   1   12.53    0.54
   8  22  -1   13.18    0.85
   6  22  -1    9.91    0.74
  -6  22   1    9.39    0.75
  -4  22   1   27.45    1.13
   4  22  -1   29.06    1.17
   4  22  -1   28.55    0.98
   2  22  -1   23.30    0.92
  -2  22   1   25.11    1.03
   2  22  -1   24.91    1.01
  -2  22   1   22.91    0.96
   0  22   1    7.87    0.62
   0  22   1    7.98    0.67
   0  22  -1    8.41    0.60
   2  22   1   21.67    0.93
   2  22   1   23.38    1.04
  -2  22  -1   22.33    0.97
   4  22   1    7.91    0.65
  -4  22  -1    6.98    0.61
   4  22   1    7.60    0.69
  -6  22  -1   12.16    0.78
   6  22   1   10.70    0.71
   6  22   1   10.74    0.81
   8  22   1    1.98    0.45
  -8  22  -1    2.25    0.46
 -10  22  -1    3.16    0.54
  10  22   1    3.45    0.57
  12  22   1   10.54    0.91
 -12  22  -1   10.54    0.90
  14  22   1    5.97    0.75
 -14  22  -1    6.92    0.75
  15  23  -1    3.38    0.66
 -15  23   1    3.18    0.59
  13  23  -1    7.14    0.78
 -13  23   1    6.20    0.70
 -11  23   1   -0.32    0.27
  11  23  -1    0.01    0.36
   9  23  -1    5.05    0.64
  -9  23   1    7.19    0.71
  -9  23   1    6.06    0.36
  -7  23   1    1.76    0.45
  -7  23   1    2.09    0.32
   7  23  -1    2.52    0.51
  -5  23   1    6.77    0.49
   5  23  -1    6.32    0.65
  -5  23   1    7.21    0.67
   3  23  -1   22.53    1.01
  -3  23   1   22.43    1.03
   3  23  -1   22.65    0.90
  -3  23   1   23.94    0.95
  -1  23   1    8.48    0.66
   1  23  -1    7.77    0.61
  -1  23   1    8.47    0.64
   1  23   1   24.56    1.02
   1  23   1   23.52    1.06
  -1  23  -1   24.53    1.01
  -3  23  -1   12.18    0.79
   3  23   1   14.65    0.79
   3  23   1   14.02    0.85
   5  23   1    6.69    0.71
  -5  23  -1    9.01    0.72
   5  23   1    7.43    0.67
   7  23   1    4.67    0.58
   7  23   1    3.68    0.58
  -7  23  -1    4.42    0.56
   9  23   1    3.72    0.55
  -9  23  -1    3.65    0.55
  11  23   1    2.00    0.49
 -11  23  -1    1.35    0.42
 -13  23  -1    2.17    0.53
  13  23   1    1.54    0.51
  15  23   1    4.29    0.69
 -15  23  -1    6.55    0.78
 -14  24   1    2.74    0.56
  14  24  -1    2.57    0.61
  12  24  -1    4.70    0.69
 -12  24   1    5.50    0.70
 -10  24   1    1.38    0.22
  10  24  -1    1.39    0.44
 -10  24   1    0.59    0.38
  -8  24   1    7.40    0.74
   8  24  -1    6.32    0.72
  -8  24   1    6.88    0.44
  -6  24   1   12.78    0.85
  -6  24   1   11.74    0.62
   6  24  -1   12.92    0.84
  -4  24   1    4.54    0.48
   4  24  -1    4.77    0.56
  -4  24   1    3.87    0.54
  -2  24   1    0.15    0.31
   2  24  -1    0.22    0.29
  -2  24   1    0.44    0.34
   0  24   1   12.69    0.79
   0  24   1   12.99    0.75
   0  24  -1   11.92    0.72
  -2  24  -1    5.92    0.58
   2  24   1    5.57    0.61
  -4  24  -1   -0.15    0.32
   4  24   1    0.67    0.39
   6  24   1    3.92    0.61
  -6  24  -1    3.85    0.56
   6  24   1    4.65    0.58
   8  24   1   21.46    1.09
  -8  24  -1   22.54    1.11
 -10  24  -1    9.11    0.81
  10  24   1   10.53    0.90
  12  24   1    3.50    0.59
 -12  24  -1    3.28    0.57
 -14  24  -1    1.24    0.44
  14  24   1    0.76    0.45
 -13  25   1    4.33    0.64
  13  25  -1    4.14    0.71
  11  25  -1    0.19    0.39
 -11  25   1   -0.23    0.36
  -9  25   1    9.80    0.48
   9  25  -1   11.12    0.86
  -9  25   1   11.45    0.85
  -7  25   1    3.97    0.41
  -7  25   1    4.64    0.61
   7  25  -1    5.07    0.65
  -5  25   1   13.39    0.85
   5  25  -1   13.10    0.85
  -5  25   1   13.86    0.70
  -3  25   1    2.25    0.45
  -3  25   1    1.72    0.41
   3  25  -1    2.22    0.38
  -1  25   1    4.95    0.55
  -1  25   1    4.52    0.55
   1  25  -1    4.39    0.49
   1  25   1    6.56    0.66
  -1  25  -1    7.37    0.66
   1  25   1    8.60    0.65
  -3  25  -1    4.40    0.54
   3  25   1    4.79    0.60
  -5  25  -1    7.45    0.71
   5  25   1    6.69    0.70
  -7  25  -1    1.77    0.47
   7  25   1    0.73    0.40
   7  25   1    0.81    0.46
  -9  25  -1    4.87    0.66
   9  25   1    4.02    0.60
 -11  25  -1    4.16    0.62
  11  25   1    3.80    0.61
  13  25   1    1.82    0.55
 -13  25  -1    1.96    0.51
  14  26  -1    2.83    0.62
 -14  26   1    2.07    0.54
 -12  26   1    0.04    0.40
  12  26  -1    0.63    0.48
 -10  26   1    8.78    0.84
  10  26  -1    8.56    0.87
 -10  26   1    7.21    0.40
  -8  26   1    0.55    0.25
   8  26  -1    0.39    0.39
  -8  26   1    0.55    0.39
  -6  26   1    3.46    0.42
  -6  26   1    3.67    0.57
   6  26  -1    3.28    0.54
  -4  26   1    0.24    0.30
  -4  26   1    0.26    0.33
  -2  26   1   10.48    0.71
   2  26  -1   11.28    0.72
  -2  26   1   10.13    0.72
   0  26  -1    2.07    0.41
   0  26   1    1.84    0.46
   0  26   1    1.23    0.36
  -2  26  -1    2.85    0.46
   2  26   1    2.72    0.50
  -4  26  -1   12.85    0.83
   4  26   1   11.28    0.84
   6  26   1    3.90    0.63
  -6  26  -1    3.36    0.56
   8  26   1    3.10    0.56
  -8  26  -1    2.63    0.53
 -10  26  -1    0.52    0.42
  10  26   1    0.69    0.42
 -12  26  -1    3.68    0.63
  12  26   1    3.58    0.65
  13  27  -1    0.46    0.50
 -13  27   1    1.12    0.50
  11  27  -1    1.07    0.50
 -11  27   1    0.45    0.42
   9  27  -1    6.47    0.74
  -9  27   1    6.70    0.44
  -9  27   1    7.57    0.78
  -7  27   1    3.44    0.54
  -7  27   1    3.12    0.39
   7  27  -1    3.60    0.60
  -5  27   1    0.30    0.38
  -5  27   1    0.93    0.33
  -3  27   1    4.27    0.56
  -3  27   1    5.43    0.58
   1  27  -1    8.83    0.70
  -1  27   1    8.40    0.72
  -1  27   1    8.27    0.65
   1  27   1    2.73    0.52
  -1  27  -1    2.97    0.47
   3  27   1    2.61    0.53
  -3  27  -1    2.74    0.49
  -5  27  -1    6.57    0.69
   5  27   1    5.89    0.73
  -7  27  -1    0.24    0.40
  -9  27  -1    0.14    0.37
   9  27   1   -0.35    0.36
  11  27   1    1.61    0.53
 -11  27  -1    1.60    0.51
 -12  28   1    0.37    0.47
  12  28  -1    1.02    0.51
 -10  28   1    2.39    0.56
  10  28  -1    2.53    0.58
 -10  28   1    1.29    0.25
  -8  28   1    4.92    0.45
  -8  28   1    4.80    0.64
  -6  28   1    2.25    0.39
  -6  28   1    2.23    0.50
  -4  28   1    0.94    0.35
  -4  28   1    1.37    0.43
  -2  28   1    3.00    0.52
  -2  28   1    2.80    0.48
   2  28  -1    2.53    0.44
   0  28  -1    2.33    0.44
   0  28   1    1.91    0.46
   0  28   1    2.90    0.49
  -2  28  -1    0.38    0.35
   2  28   1    0.73    0.40
   4  28   1    0.19    0.40
  -4  28  -1    0.62    0.38
  -6  28  -1    3.80    0.59
   6  28   1    4.64    0.69
  -8  28  -1    0.57    0.41
  10  28   1    2.04    0.55
 -10  28  -1    2.38    0.56
 -11  29   1    1.96    0.55
  11  29  -1    2.36    0.61
  -9  29   1    7.29    0.47
  -9  29   1    8.07    0.83
  -7  29   1    2.90    0.41
  -7  29   1    1.12    0.47
  -5  29   1    3.46    0.59
  -5  29   1    4.46    0.51
  -3  29   1    4.84    0.62
  -3  29   1    5.58    0.59
  -1  29   1    1.61    0.45
  -1  29   1    2.44    0.47
   1  29  -1    1.92    0.44
  -1  29  -1    3.98    0.54
   1  29   1    4.20    0.60
   3  29   1    3.42    0.60
  -3  29  -1    4.00    0.56
   5  29   1    7.20    0.81
  -5  29  -1    8.17    0.78
  -7  29  -1    8.36    0.83
  -9  29  -1    2.38    0.56
 -10  30   1    0.34    0.41
 -10  30   1    0.16    0.21
  -8  30   1    0.89    0.44
  -8  30   1    0.99    0.30
  -6  30   1    5.66    0.55
  -6  30   1    4.50    0.64
  -4  30   1    3.09    0.50
  -4  30   1    3.50    0.57
  -2  30   1    4.95    0.60
  -2  30   1    4.35    0.59
   0  30   1    0.60    0.43
   0  30  -1    0.83    0.40
  -2  30  -1    1.24    0.42
   2  30   1    1.82    0.50
   4  30   1    1.37    0.51
  -4  30  -1    2.30    0.52
   6  30   1    5.11    0.76
  -6  30  -1    5.97    0.73
  -8  30  -1    1.34    0.50
  -9  31   1    0.77    0.28
  -9  31   1    0.98    0.49
  -7  31   1    4.39    0.48
  -7  31   1    4.49    0.68
  -5  31   1    0.38    0.33
  -5  31   1    0.01    0.34
  -3  31   1    0.80    0.41
  -3  31   1    0.49    0.37
  -1  31   1   11.55    0.83
  -1  31   1   11.58    0.89
  -1  31  -1    8.72    0.79
   1  31   1    8.25    0.81
   3  31   1    2.02    0.54
  -3  31  -1    2.07    0.51
  -5  31  -1    5.37    0.70
   5  31   1    3.89    0.68
  -7  31  -1    3.95    0.64
  -6  32   1    5.17    0.70
  -6  32   1    4.65    0.53
  -4  32   1   -0.14    0.36
  -4  32   1    0.62    0.42
  -2  32   1    1.70    0.47
  -2  32   1    1.28    0.44
   0  32  -1    5.71    0.66
   0  32   1    7.00    0.75
  -2  32  -1    3.63    0.60
   2  32   1    3.34    0.61
  -4  32  -1    3.41    0.60
   4  32   1    3.46    0.66
  -6  32  -1    4.50    0.69
   5  33  -1    6.53    0.85
  -5  33   1    5.03    0.71
  -3  33   1    1.74    0.51
  -3  33   1    2.83    0.52
  -1  33   1    1.23    0.47
   1  33   1    1.65    0.50
  -1  33  -1    0.66    0.41
   3  33   1    4.79    0.71
  -3  33  -1    5.52    0.70
   0  34   1    1.13    0.47
 -20   0   2    4.98    0.61
  20   0  -2    4.85    0.55
 -18   0   2    1.99    0.45
  18   0  -2    1.04    0.31
  16   0  -2    7.28    0.55
 -16   0   2    6.65    0.60
  14   0  -2   26.69    0.95
 -14   0   2   26.02    1.02
 -12   0   2   16.06    0.74
  12   0  -2   18.30    0.71
 -12   0   2   17.81    0.62
  10   0  -2   20.78    0.74
 -10   0   2   21.66    0.66
 -10   0   2   22.06    0.79
   8   0  -2   60.46    1.55
  -8   0   2   59.01    1.44
  -8   0   2   61.45    1.60
  -6   0   2    3.33    0.22
   6   0  -2    3.08    0.28
  -6   0   2    3.12    0.28
  -4   0   2  115.09    2.73
   4   0  -2  117.79    2.70
   2   0  -2  969.26   21.57
  -2   0   2  970.95   22.13
  -2   0   2  991.44   21.73
  -2   0   2 1000.00   22.04
   0   0   2   99.57    2.70
   0   0  -2  104.87    2.49
   0   0   2  105.70    2.45
   0   0   2  107.45    2.47
   0   0  -2  102.42    2.42
   2   0   2   39.45    1.06
   2   0   2   39.09    1.10
   2   0   2   36.97    1.06
  -2   0  -2   38.64    1.07
  -2   0  -2   37.91    1.04
   4   0   2   20.99    0.71
  -4   0  -2   22.44    0.77
   4   0   2   21.25    0.73
  -4   0  -2   21.31    0.77
  -4   0  -2   21.98    0.75
   6   0   2  111.85    2.76
  -6   0  -2  114.84    2.72
  -6   0  -2  109.35    2.78
   6   0   2  110.83    2.71
  -6   0  -2  111.13    2.80
  -8   0  -2   11.21    0.61
   8   0   2   12.14    0.57
   8   0   2   11.69    0.58
  -8   0  -2   11.91    0.57
 -10   0  -2    5.29    0.45
  10   0   2    3.82    0.39
 -10   0  -2    3.88    0.45
  12   0   2   10.13    0.60
 -12   0  -2   10.96    0.69
 -12   0  -2   10.50    0.72
 -14   0  -2    1.12    0.41
  14   0   2    1.62    0.35
 -14   0  -2    1.25    0.41
 -16   0  -2    4.72    0.62
 -16   0  -2    5.68    0.62
  16   0   2    5.44    0.57
  18   0   2    5.17    0.57
 -18   0  -2    4.19    0.64
 -21  -1   2    4.24    0.58
 -21   1   2    2.86    0.52
  21   1  -2    3.47    0.50
 -19  -1   2    1.88    0.46
  19  -1  -2    1.85    0.38
  19   1  -2    1.48    0.37
 -19   1   2    1.75    0.43
 -17  -1   2    1.66    0.43
  17  -1  -2    1.83    0.35
 -17   1   2    1.16    0.38
  17   1  -2    2.20    0.39
  15  -1  -2    7.79    0.53
 -15  -1   2    7.52    0.63
 -15   1   2    8.20    0.60
  15   1  -2    7.39    0.54
  13  -1  -2    0.44    0.23
 -13  -1   2    0.84    0.31
 -13   1   2    0.15    0.27
 -13   1   2    0.11    0.21
  13   1  -2    0.46    0.24
 -11  -1   2   15.59    0.71
 -11  -1   2   15.17    0.53
  11  -1  -2   15.37    0.61
 -11   1   2   16.01    0.58
  11   1  -2   16.17    0.65
 -11   1   2   14.99    0.65
  -9  -1   2    3.58    0.36
  -9  -1   2    4.02    0.28
   9  -1  -2    3.60    0.31
  -9   1   2    3.71    0.28
  -9   1   2    3.61    0.33
   9   1  -2    4.01    0.33
  -7  -1   2   19.20    0.70
   7  -1  -2   19.70    0.65
  -7  -1   2   19.46    0.56
   7   1  -2   19.02    0.70
  -7   1   2   19.80    0.67
  -7   1   2   20.31    0.61
   5  -1  -2   15.82    0.53
  -5  -1   2   15.76    0.56
  -5   1   2   15.80    0.48
  -5   1   2   15.45    0.52
   5   1  -2   16.50    0.56
  -3  -1   2  111.39    2.58
   3  -1  -2  106.46    2.52
   3   1  -2  110.51    2.55
  -3   1   2  110.23    2.52
  -3   1   2  107.93    2.56
  -1  -1   2   58.57    1.47
   1  -1  -2   59.32    1.50
  -1  -1   2   59.13    1.48
   1  -1  -2   59.80    1.45
  -1   1   2   55.94    1.58
   1   1  -2   60.73    1.46
  -1   1   2   59.58    1.48
  -1   1   2   59.83    1.47
  -1   1   2   60.68    1.50
  -1  -1  -2   22.66    0.70
  -1  -1  -2   24.45    0.74
   1  -1   2   23.19    0.71
   1  -1   2   24.71    0.73
   1   1   2   23.45    0.72
   1   1   2   22.56    0.72
  -1   1  -2   24.56    0.77
   1   1   2   24.51    0.73
  -1   1  -2   24.19    0.71
  -3  -1  -2   94.71    2.28
  -3  -1  -2   90.65    2.22
   3  -1   2   90.81    2.25
   3  -1   2   90.60    2.22
   3  -1   2   88.16    2.43
   3   1   2   91.92    2.26
   3   1   2   93.25    2.23
  -3   1  -2   89.77    2.20
  -3   1  -2   93.88    2.26
  -3   1  -2   94.31    2.27
   5  -1   2   55.88    1.59
   5  -1   2   57.74    1.52
  -5  -1  -2   58.41    1.57
  -5  -1  -2   56.23    1.52
   5  -1   2   54.99    1.49
  -5  -1  -2   56.38    1.55
   5   1   2   54.72    1.50
  -5   1  -2   55.16    1.53
  -5   1  -2   56.59    1.50
  -5   1  -2   54.90    1.54
   5   1   2   55.81    1.54
   7  -1   2    1.44    0.25
  -7  -1  -2    1.56    0.28
  -7  -1  -2    1.16    0.29
   7  -1   2    1.51    0.27
  -7  -1  -2    1.55    0.31
  -7   1  -2    1.38    0.29
   7   1   2    1.43    0.28
   7   1   2    1.56    0.27
  -7   1  -2    1.27    0.26
  -9  -1  -2    6.34    0.52
  -9  -1  -2    7.46    0.49
   9  -1   2    7.59    0.46
   9   1   2    7.17    0.47
  -9   1  -2    7.10    0.47
  -9   1  -2    7.67    0.53
 -11  -1  -2    4.77    0.47
  11  -1   2    4.02    0.42
 -11  -1  -2    3.88    0.48
  11   1   2    4.43    0.45
 -11   1  -2    4.15    0.47
 -11   1  -2    4.67    0.44
 -11   1  -2    3.67    0.46
  13  -1   2    1.94    0.36
 -13  -1  -2    1.74    0.41
 -13  -1  -2    1.68    0.42
 -13   1  -2    1.86    0.44
  13   1   2    2.17    0.38
 -13   1  -2    2.45    0.44
 -15  -1  -2    2.29    0.44
  15  -1   2    2.08    0.38
 -15  -1  -2    1.57    0.45
  15   1   2    1.41    0.36
 -15   1  -2    1.27    0.39
 -15   1  -2    0.88    0.39
 -17  -1  -2    2.33    0.55
  17  -1   2    2.09    0.43
 -17   1  -2    1.75    0.47
 -17   1  -2    2.94    0.52
  17   1   2    2.89    0.45
  19  -1   2    3.64    0.53
 -19  -1  -2    2.79    0.60
  19   1   2    3.24    0.51
 -19   1  -2    2.75    0.57
  22   2  -2    0.63    0.38
 -20  -2   2    0.34    0.41
  20   2  -2    0.22    0.30
 -20   2   2    0.06    0.34
 -18  -2   2    4.19    0.56
  18  -2  -2    4.54    0.48
 -18   2   2    3.70    0.48
  18   2  -2    3.92    0.49
  16  -2  -2    7.48    0.52
 -16  -2   2    7.50    0.62
 -16   2   2    6.85    0.55
  16   2  -2    7.64    0.58
  14  -2  -2   12.60    0.60
 -14  -2   2   10.35    0.68
 -14   2   2   11.83    0.64
  14   2  -2   11.81    0.63
 -14   2   2   11.27    0.60
  12  -2  -2   11.43    0.53
 -12  -2   2   12.52    0.68
  12   2  -2   12.13    0.60
 -12   2   2   12.72    0.57
 -12   2   2   12.41    0.59
 -10  -2   2   17.76    0.77
 -10  -2   2   18.71    0.56
  10  -2  -2   19.90    0.66
  10   2  -2   19.95    0.73
 -10   2   2   18.18    0.65
 -10   2   2   19.40    0.70
  -8  -2   2   62.44    1.65
   8  -2  -2   60.02    1.53
  -8  -2   2   59.80    1.41
   8   2  -2   60.57    1.61
  -8   2   2   63.02    1.56
  -8   2   2   60.29    1.50
   6  -2  -2   13.60    0.49
  -6  -2   2   13.03    0.57
  -6   2   2   14.23    0.50
  -6   2   2   13.25    0.49
   6   2  -2   12.59    0.54
   4  -2  -2   15.78    0.50
  -4  -2   2   15.31    0.55
  -4   2   2   15.80    0.50
  -4   2   2   15.37    0.49
  -4   2   2   16.47    0.49
   4   2  -2   15.53    0.55
  -2  -2   2  419.15    9.26
   2  -2  -2  415.41    9.24
   2  -2  -2  408.33    9.06
  -2   2   2  418.95    9.23
  -2   2   2  404.76   10.62
   2   2  -2  411.61    9.10
  -2   2   2  413.89    9.07
   0  -2  -2   97.99    2.33
   0  -2  -2  103.43    2.40
   0  -2   2   95.95    2.36
   0  -2   2  102.50    2.38
   0   2  -2  101.28    2.35
   0   2   2   97.39    2.38
   0   2   2   98.53    2.61
   0   2  -2  102.10    2.41
   0   2   2   98.63    2.38
   0   2   2  100.22    2.34
   2  -2   2    5.31    0.34
  -2  -2  -2    5.50    0.38
  -2  -2  -2    5.89    0.35
   2  -2   2    5.42    0.35
   2   2   2    6.55    0.33
  -2   2  -2    5.49    0.33
  -2   2  -2    5.96    0.36
  -2   2  -2    6.73    0.37
   2   2   2    5.19    0.33
   4  -2   2    3.67    0.33
  -4  -2  -2    2.90    0.32
  -4  -2  -2    2.17    0.30
   4  -2   2    3.10    0.30
   4   2   2    3.45    0.35
  -4   2  -2    1.75    0.27
  -4   2  -2    3.08    0.33
  -4   2  -2    2.98    0.30
   4   2   2    2.96    0.29
   6  -2   2    9.11    0.50
  -6  -2  -2    9.10    0.54
  -6  -2  -2   10.56    0.56
   6  -2   2    9.79    0.48
   6  -2   2    9.54    0.50
   6   2   2   10.49    0.54
  -6   2  -2    9.41    0.50
   6   2   2   10.25    0.52
  -6   2  -2   11.13    0.57
  -8  -2  -2   13.19    0.60
  -8  -2  -2   11.19    0.62
   8  -2   2   11.41    0.56
  -8  -2  -2   11.88    0.63
   8   2   2   11.28    0.55
  -8   2  -2   11.12    0.55
  -8   2  -2   11.02    0.59
  -8   2  -2   11.59    0.59
   8   2   2   11.28    0.60
  10  -2   2    0.76    0.24
 -10  -2  -2    1.09    0.32
 -10  -2  -2    0.76    0.28
 -10   2  -2    0.05    0.27
 -10   2  -2    0.71    0.24
 -10   2  -2    0.49    0.29
  10   2   2    0.61    0.25
  12  -2   2    3.55    0.42
 -12  -2  -2    3.36    0.43
 -12  -2  -2    3.35    0.48
  12   2   2    2.77    0.41
 -12   2  -2    3.21    0.46
 -12   2  -2    3.43    0.48
 -14  -2  -2   11.22    0.72
 -14  -2  -2   11.59    0.77
  14  -2   2   10.67    0.67
  14   2   2   10.75    0.68
 -14   2  -2   10.39    0.72
 -14   2  -2   11.87    0.76
  16  -2   2    4.81    0.53
 -16  -2  -2    5.19    0.63
 -16   2  -2    5.73    0.61
 -16   2  -2    5.21    0.61
  16   2   2    4.66    0.54
  18  -2   2    5.54    0.59
 -18  -2  -2    5.77    0.71
  18   2   2    4.88    0.60
 -18   2  -2    5.83    0.69
 -21  -3   2    2.08    0.53
  21   3  -2    2.68    0.47
 -21   3   2    2.21    0.45
  19  -3  -2    4.34    0.47
 -19  -3   2    4.84    0.62
 -19   3   2    4.29    0.50
  19   3  -2    4.12    0.52
  17  -3  -2    7.64    0.53
 -17  -3   2    7.22    0.68
 -17   3   2    7.97    0.59
  17   3  -2    7.37    0.59
  15  -3  -2    9.05    0.52
 -15  -3   2    9.43    0.68
  15   3  -2    8.86    0.62
 -15   3   2    8.87    0.58
 -13  -3   2    8.20    0.60
  13  -3  -2    6.85    0.45
  13   3  -2    7.75    0.55
 -13   3   2    6.76    0.49
 -13   3   2    7.63    0.51
  11  -3  -2    8.93    0.44
 -11  -3   2    9.37    0.58
 -11  -3   2    9.28    0.35
  11   3  -2    8.65    0.51
 -11   3   2    9.36    0.48
 -11   3   2    8.91    0.47
  -9  -3   2   43.92    1.29
  -9  -3   2   41.19    1.00
   9  -3  -2   43.38    1.13
   9   3  -2   39.66    1.22
  -9   3   2   42.42    1.14
  -9   3   2   42.75    1.15
  -7  -3   2   17.76    0.73
   7  -3  -2   18.72    0.60
   7   3  -2   18.35    0.70
  -7   3   2   18.28    0.61
  -7   3   2   18.05    0.64
  -5  -3   2   12.99    0.55
   5  -3  -2   13.77    0.46
   5   3  -2   12.58    0.54
  -5   3   2   14.17    0.49
  -5   3   2   14.39    0.42
  -5   3   2   14.24    0.45
  -5   3   2   12.96    0.44
   3  -3  -2  346.29    7.43
  -3  -3   2  336.95    7.62
  -3   3   2  342.82    7.43
   3   3  -2  335.32    7.51
  -3   3   2  336.49    7.58
  -3   3   2  343.98    7.56
  -3   3   2  323.34    8.62
   1  -3  -2  200.76    4.56
   1  -3  -2  207.07    4.66
  -1  -3   2  205.87    4.67
  -1   3   2  205.63    4.65
   1   3  -2  202.41    4.59
  -1   3   2  200.87    4.56
   1  -3   2    2.66    0.23
  -1  -3  -2    1.99    0.23
  -1  -3  -2    2.63    0.25
   1  -3   2    2.50    0.24
  -1   3  -2    2.07    0.24
  -1   3  -2    2.44    0.23
   1   3   2    2.54    0.23
   1   3   2    2.48    0.25
  -1   3  -2    2.64    0.24
  -3  -3  -2   34.05    0.98
   3  -3   2   32.04    0.95
  -3  -3  -2   32.09    0.97
   3  -3   2   33.13    0.94
   3   3   2   33.65    0.95
   3   3   2   32.51    0.98
  -3   3  -2   27.08    0.91
  -3   3  -2   33.39    0.98
  -3   3  -2   33.16    0.93
  -5  -3  -2   73.28    1.90
  -5  -3  -2   73.24    1.94
   5  -3   2   73.12    1.85
   5  -3   2   71.86    1.86
   5   3   2   70.35    1.85
   5   3   2   70.71    1.91
  -5   3  -2   74.29    1.90
  -5   3  -2   74.14    1.84
   7  -3   2   27.63    0.91
  -7  -3  -2   30.84    1.03
  -7  -3  -2   29.03    0.98
  -7   3  -2   27.52    0.90
  -7   3  -2   29.23    0.96
  -7   3  -2   28.38    0.97
   7   3   2   30.32    0.95
   7   3   2   27.54    0.98
   9  -3   2   27.47    0.94
  -9  -3  -2   26.87    1.06
  -9  -3  -2   29.30    1.02
  -9   3  -2   29.72    1.05
   9   3   2   30.83    1.03
  -9   3  -2   30.20    1.03
  -9   3  -2   29.78    0.96
  11  -3   2    7.54    0.52
 -11  -3  -2    7.38    0.63
 -11  -3  -2    7.93    0.55
 -11   3  -2    7.05    0.57
  11   3   2    8.63    0.58
 -11   3  -2    8.41    0.62
 -13  -3  -2    7.72    0.68
  13  -3   2    7.23    0.54
 -13   3  -2    6.73    0.61
  13   3   2    7.67    0.58
 -13   3  -2    7.92    0.66
 -15  -3  -2    2.03    0.43
 -15  -3  -2    2.50    0.50
  15  -3   2    2.74    0.40
  15   3   2    2.26    0.42
 -15   3  -2    1.99    0.45
 -15   3  -2    2.98    0.50
  17  -3   2   16.65    0.85
 -17  -3  -2   16.57    1.01
  17   3   2   17.97    0.92
 -17   3  -2   17.02    0.97
 -17   3  -2   15.88    0.93
 -19  -3  -2    1.00    0.51
  19  -3   2    1.43    0.38
  19   3   2    0.55    0.38
 -19   3  -2    0.89    0.49
 -20  -4   2    2.75    0.58
 -20   4   2    1.33    0.38
  20   4  -2    1.18    0.41
 -18  -4   2   -0.05    0.37
  18  -4  -2    0.20    0.25
 -18   4   2   -0.12    0.26
  18   4  -2    0.21    0.29
 -16  -4   2    0.22    0.34
  16  -4  -2    0.01    0.22
  16   4  -2    0.34    0.30
 -16   4   2    0.18    0.29
  14  -4  -2    2.81    0.33
 -14  -4   2    2.70    0.46
  14   4  -2    3.36    0.44
 -14   4   2    3.03    0.38
 -14   4   2    3.20    0.38
 -12  -4   2    4.02    0.47
  12  -4  -2    5.15    0.37
  12   4  -2    4.69    0.45
 -12   4   2    4.79    0.41
 -12   4   2    4.62    0.38
  10  -4  -2    8.87    0.40
 -10  -4   2    8.61    0.55
 -10   4   2    7.90    0.46
  10   4  -2    8.35    0.50
 -10   4   2    8.48    0.42
   8  -4  -2    0.57    0.16
  -8  -4   2    0.42    0.26
   8   4  -2    0.55    0.23
  -8   4   2    0.00    0.18
  -8   4   2    0.35    0.18
  -6  -4   2   22.00    0.81
   6  -4  -2   21.62    0.64
  -6   4   2   21.90    0.71
   6   4  -2   23.51    0.79
  -6   4   2   22.92    0.65
  -4  -4   2   69.38    1.79
   4  -4  -2   70.68    1.65
  -4   4   2   70.76    1.68
  -4   4   2   72.67    1.70
  -4   4   2   70.08    1.68
   4   4  -2   69.59    1.77
  -4   4   2   70.23    1.63
  -2  -4   2   49.94    1.27
   2  -4  -2   45.56    1.18
   2  -4  -2   48.03    1.22
   2   4  -2   45.67    1.25
  -2   4   2   48.10    1.18
  -2   4   2   48.12    1.21
  -2   4   2   50.37    1.23
   0  -4  -2   16.16    0.54
   0  -4   2   16.40    0.55
   0  -4  -2   15.76    0.56
   0   4   2   16.33    0.53
   0   4   2   15.85    0.56
   0   4  -2   15.18    0.55
   0   4   2   15.81    0.54
   2  -4   2    6.33    0.37
  -2  -4  -2    5.76    0.40
  -2  -4  -2    6.10    0.38
   2  -4   2    6.05    0.38
  -2   4  -2    6.34    0.35
  -2   4  -2    5.82    0.38
   2   4   2    6.33    0.34
   2   4   2    6.07    0.37
  -2   4  -2    6.33    0.38
   4  -4   2    3.26    0.33
  -4  -4  -2    4.17    0.39
   4  -4   2    3.37    0.32
  -4  -4  -2    3.02    0.34
   4   4   2    3.28    0.35
  -4   4  -2    3.59    0.32
  -4   4  -2    2.85    0.33
   4   4   2    3.66    0.33
  -6  -4  -2    5.89    0.47
   6  -4   2    4.95    0.39
  -6  -4  -2    5.66    0.42
   6   4   2    5.80    0.46
  -6   4  -2    5.36    0.43
   6   4   2    6.45    0.41
  -6   4  -2    5.24    0.42
  -6   4  -2    5.89    0.40
   8  -4   2    4.06    0.36
  -8  -4  -2    3.98    0.41
  -8  -4  -2    3.93    0.43
   8   4   2    4.63    0.44
  -8   4  -2    4.27    0.36
  -8   4  -2    4.30    0.39
   8   4   2    4.58    0.41
  -8   4  -2    4.28    0.44
  -8   4  -2    3.79    0.39
 -10  -4  -2    8.85    0.58
  10  -4   2    8.34    0.52
 -10  -4  -2    7.80    0.61
 -10   4  -2    9.02    0.59
 -10   4  -2    8.65    0.50
 -10   4  -2    9.44    0.61
  10   4   2    8.58    0.57
 -12  -4  -2    7.04    0.60
  12  -4   2    5.66    0.46
 -12  -4  -2    6.65    0.62
  12   4   2    6.87    0.60
 -12   4  -2    6.30    0.57
 -12   4  -2    5.95    0.58
 -14  -4  -2    0.93    0.40
 -14  -4  -2    0.36    0.34
  14  -4   2    0.21    0.25
  14   4   2    0.65    0.31
 -14   4  -2    0.40    0.34
 -14   4  -2    0.40    0.35
 -16  -4  -2    0.60    0.42
  16  -4   2    1.12    0.33
 -16   4  -2    0.94    0.40
  16   4   2    0.91    0.34
 -16   4  -2    0.09    0.34
  18  -4   2    0.86    0.34
 -18  -4  -2    0.85    0.49
  18   4   2    0.64    0.37
 -18   4  -2    0.51    0.41
 -18   4  -2    1.35    0.47
 -21  -5   2    3.50    0.60
 -21   5   2    4.39    0.49
  21   5  -2    5.01    0.60
 -19  -5   2   -0.12    0.38
 -19   5   2    0.12    0.29
  19   5  -2    0.31    0.31
  17  -5  -2    2.51    0.35
 -17  -5   2    2.77    0.52
 -17   5   2    2.73    0.36
  17   5  -2    2.83    0.45
 -15  -5   2    5.25    0.61
  15  -5  -2    6.08    0.43
 -15   5   2    5.49    0.49
  15   5  -2    6.82    0.55
 -15   5   2    5.61    0.46
  13  -5  -2    2.42    0.27
 -13  -5   2    1.96    0.43
 -13   5   2    2.00    0.30
  13   5  -2    1.91    0.36
 -13   5   2    1.92    0.33
  11  -5  -2   54.11    1.39
 -11  -5   2   53.93    1.66
  11   5  -2   54.77    1.59
 -11   5   2   55.80    1.44
 -11   5   2   54.42    1.48
   9  -5  -2    9.65    0.38
  -9  -5   2    8.48    0.57
  -9   5   2    9.18    0.39
  -9   5   2   10.22    0.52
   9   5  -2   10.11    0.54
   7  -5  -2   27.90    0.75
  -7  -5   2   27.73    0.96
  -7   5   2   27.88    0.76
   7   5  -2   26.87    0.92
  -7   5   2   28.62    0.87
   5  -5  -2   10.31    0.38
  -5  -5   2   10.96    0.55
  -5   5   2   10.47    0.38
  -5   5   2   10.66    0.42
   5   5  -2    9.43    0.48
  -5   5   2   10.44    0.48
   3  -5  -2  120.86    2.68
  -3  -5   2  116.84    2.83
  -3   5   2  113.45    2.66
  -3   5   2  121.56    2.75
   3   5  -2  118.43    2.80
  -3   5   2  117.16    2.73
   1  -5  -2   31.33    0.88
  -1  -5   2   31.02    0.90
   1  -5  -2   31.58    0.86
  -1   5   2   32.36    0.88
  -1   5   2   31.67    0.84
   1   5  -2   30.67    0.90
  -1  -5  -2   37.78    1.08
   1  -5   2   38.42    1.06
  -1  -5  -2   39.19    1.06
   1   5   2   38.26    1.04
  -1   5  -2   39.35    1.07
  -1   5  -2   38.68    1.04
   1   5   2   37.20    1.08
  -3  -5  -2   17.59    0.69
  -3  -5  -2   18.99    0.71
   3  -5   2   17.71    0.68
   3  -5   2   18.94    0.66
  -3   5  -2   19.82    0.73
   3   5   2   18.93    0.68
  -3   5  -2   18.73    0.64
   3   5   2   18.90    0.71
  -5  -5  -2    9.42    0.58
  -5  -5  -2   10.66    0.58
   5  -5   2    9.41    0.51
  -5   5  -2    9.72    0.55
   5   5   2   10.04    0.59
  -5   5  -2   10.41    0.53
   5   5   2   10.04    0.51
  -5   5  -2   10.09    0.49
  -7  -5  -2    5.33    0.46
   7  -5   2    5.34    0.38
  -7  -5  -2    5.25    0.47
  -7   5  -2    5.01    0.41
   7   5   2    5.57    0.44
  -7   5  -2    4.59    0.40
  -7   5  -2    5.23    0.45
   7   5   2    5.84    0.47
  -7   5  -2    5.49    0.39
  -9  -5  -2    0.82    0.32
   9  -5   2    1.30    0.27
  -9  -5  -2    1.56    0.33
  -9   5  -2    0.80    0.32
   9   5   2    1.63    0.31
  -9   5  -2    1.59    0.33
  -9   5  -2    1.37    0.26
  -9   5  -2    1.34    0.28
 -11  -5  -2   34.52    1.23
 -11  -5  -2   36.28    1.31
  11  -5   2   34.51    1.13
 -11   5  -2   33.50    1.21
  11   5   2   35.56    1.23
 -11   5  -2   36.39    1.27
 -13  -5  -2    2.34    0.42
  13  -5   2    2.51    0.36
 -13  -5  -2    2.90    0.50
  13   5   2    2.53    0.41
 -13   5  -2    2.48    0.46
 -13   5  -2    1.91    0.41
 -15  -5  -2    6.03    0.67
  15  -5   2    6.01    0.54
  15   5   2    5.92    0.61
 -15   5  -2    6.83    0.64
 -15   5  -2    6.52    0.66
  17  -5   2    8.61    0.62
 -17  -5  -2    7.75    0.80
 -17   5  -2    9.87    0.81
  17   5   2    8.78    0.70
 -17   5  -2    8.26    0.73
 -19  -5  -2    4.14    0.70
  19  -5   2    4.62    0.54
 -19   5  -2    3.38    0.57
  19   5   2    3.23    0.54
 -20  -6   2    0.47    0.47
  20   6  -2    1.64    0.44
 -20   6   2    0.89    0.34
 -18  -6   2    2.59    0.54
 -18   6   2    2.30    0.36
  18   6  -2    2.27    0.44
 -16  -6   2    5.00    0.61
  16  -6  -2    5.76    0.41
 -16   6   2    5.34    0.44
 -16   6   2    5.53    0.51
  16   6  -2    5.27    0.56
 -14  -6   2   14.59    0.88
  14  -6  -2   14.63    0.60
 -14   6   2   15.55    0.64
 -14   6   2   15.49    0.72
  14   6  -2   14.45    0.76
 -12  -6   2   30.79    1.16
  12  -6  -2   29.85    0.87
  12   6  -2   30.90    1.09
 -12   6   2   28.75    1.01
 -12   6   2   29.74    0.90
  10  -6  -2   34.73    0.91
 -10  -6   2   34.14    1.17
  10   6  -2   33.12    1.13
 -10   6   2   33.52    0.94
 -10   6   2   36.34    1.06
  -8  -6   2   44.00    1.36
   8  -6  -2   43.38    1.08
  -8   6   2   44.66    1.11
   8   6  -2   43.89    1.32
  -8   6   2   45.62    1.24
   6  -6  -2   17.30    0.52
  -6  -6   2   19.17    0.77
   6   6  -2   16.73    0.72
  -6   6   2   18.29    0.53
  -6   6   2   18.30    0.68
   4  -6  -2   37.04    0.95
  -4  -6   2   39.22    1.13
  -4   6   2   38.66    0.98
  -4   6   2   37.81    0.92
   4   6  -2   39.20    1.13
  -4   6   2   39.42    1.00
  -4   6   2   37.22    1.05
   2  -6  -2   23.00    0.67
  -2  -6   2   22.61    0.75
  -2   6   2   22.48    0.64
   2   6  -2   23.53    0.76
  -2   6   2   23.38    0.69
  -2   6   2   23.16    0.69
   0  -6   2   28.21    0.86
   0  -6  -2   28.50    0.83
   0  -6  -2   27.36    0.84
   0   6  -2   28.94    0.85
   0   6   2   29.65    0.81
   0   6  -2   27.53    0.85
   0   6   2   29.66    0.85
  -2  -6  -2    1.72    0.26
   2  -6   2    2.09    0.26
  -2  -6  -2    2.17    0.29
   2   6   2    2.08    0.26
  -2   6  -2    2.26    0.26
   2   6   2    2.31    0.30
  -4  -6  -2   37.89    1.18
  -4  -6  -2   39.89    1.20
   4  -6   2   39.00    1.14
  -4   6  -2   39.96    1.20
  -4   6  -2   38.53    1.09
  -4   6  -2   40.06    1.15
   4   6   2   37.42    1.21
   4   6   2   40.66    1.17
  -6  -6  -2   26.26    0.95
  -6  -6  -2   26.29    0.92
   6  -6   2   24.60    0.84
  -6   6  -2   24.44    0.92
  -6   6  -2   24.67    0.80
  -6   6  -2   24.21    0.87
   6   6   2   25.57    0.89
   6   6   2   25.29    0.92
  -6   6  -2   25.70    0.85
   8  -6   2    3.38    0.34
  -8  -6  -2    3.42    0.40
  -8  -6  -2    3.00    0.41
   8   6   2    2.84    0.37
   8   6   2    3.09    0.40
  -8   6  -2    3.21    0.31
  -8   6  -2    3.30    0.35
  -8   6  -2    3.06    0.36
  -8   6  -2    3.11    0.38
 -10  -6  -2   26.26    1.08
  10  -6   2   26.86    0.92
 -10  -6  -2   28.05    1.05
 -10   6  -2   26.28    0.98
  10   6   2   25.15    0.99
 -10   6  -2   25.56    1.04
  12  -6   2    7.75    0.51
 -12  -6  -2    6.98    0.67
 -12  -6  -2    8.74    0.62
 -12   6  -2    7.19    0.63
  12   6   2    7.17    0.58
 -12   6  -2    6.15    0.57
 -14  -6  -2   15.29    0.91
  14  -6   2   14.05    0.71
 -14   6  -2   13.59    0.83
  14   6   2   13.17    0.77
 -14   6  -2   12.45    0.77
  16  -6   2    3.58    0.45
 -16  -6  -2    3.99    0.61
 -16   6  -2    3.90    0.56
  16   6   2    3.86    0.54
 -16   6  -2    3.39    0.50
  18  -6   2    0.71    0.33
 -18  -6  -2    0.15    0.43
 -18   6  -2    0.66    0.39
 -18   6  -2    0.40    0.40
  18   6   2    0.56    0.38
 -21  -7   2    2.95    0.62
 -21   7   2    2.74    0.40
  21   7  -2    2.91    0.53
 -19  -7   2    0.99    0.47
 -19   7   2    1.41    0.33
  19   7  -2    1.93    0.44
 -17  -7   2    3.08    0.56
 -17   7   2    2.94    0.36
  17   7  -2    3.64    0.51
 -15  -7   2   20.66    1.03
  15   7  -2   18.76    0.91
 -15   7   2   19.29    0.73
 -15   7   2   20.19    0.88
  13  -7  -2   12.81    0.51
 -13  -7   2   13.63    0.82
 -13   7   2   12.48    0.54
  13   7  -2   13.13    0.72
 -13   7   2   13.79    0.71
  11  -7  -2    1.84    0.21
 -11  -7   2    1.76    0.39
  11   7  -2    1.86    0.32
 -11   7   2    2.11    0.33
 -11   7   2    1.89    0.22
   9  -7  -2   36.45    0.92
  -9  -7   2   36.47    1.24
  -9   7   2   36.85    1.11
  -9   7   2   37.83    0.94
   9   7  -2   35.99    1.17
   7  -7  -2    0.97    0.14
  -7  -7   2    0.62    0.29
  -7   7   2    1.22    0.26
  -7   7   2    0.88    0.14
   7   7  -2    0.51    0.25
   5  -7  -2   35.08    0.87
  -5  -7   2   33.44    1.11
  -5   7   2   34.97    1.01
  -5   7   2   35.02    0.91
   5   7  -2   34.91    1.09
  -5   7   2   33.49    0.89
   3  -7  -2   59.73    1.44
  -3  -7   2   60.70    1.60
   3   7  -2   58.77    1.39
  -3   7   2   57.76    1.50
   3   7  -2   58.61    1.58
  -3   7   2   61.54    1.48
  -3   7   2   60.05    1.41
  -3   7   2   58.88    1.47
   1  -7  -2    5.22    0.33
  -1  -7   2    5.15    0.38
   1  -7  -2    4.78    0.32
   1   7  -2    4.56    0.37
  -1   7   2    5.56    0.34
  -1   7   2    5.65    0.34
  -1   7   2    4.99    0.30
   1   7  -2    5.02    0.32
  -1  -7  -2    1.47    0.23
   1  -7   2    1.65    0.24
  -1  -7  -2    1.69    0.24
  -1   7  -2    1.23    0.21
   1   7   2    1.59    0.23
  -1   7  -2    1.47    0.23
   1   7   2    1.53    0.26
   1   7   2    1.95    0.27
  -1   7  -2    1.49    0.23
  -3  -7  -2   24.65    0.85
  -3  -7  -2   22.27    0.83
   3   7   2   25.31    0.81
  -3   7  -2   24.22    0.87
  -3   7  -2   23.55    0.80
   3   7   2   24.51    0.89
  -3   7  -2   24.14    0.83
  -3   7  -2   22.89    0.76
   5  -7   2   13.59    0.61
  -5  -7  -2   13.44    0.65
  -5  -7  -2   14.11    0.66
  -5   7  -2   13.87    0.54
   5   7   2   14.47    0.67
  -5   7  -2   13.26    0.65
  -5   7  -2   15.06    0.61
   5   7   2   14.36    0.61
  -5   7  -2   14.13    0.64
  -7  -7  -2    6.32    0.50
   7  -7   2    6.96    0.41
  -7  -7  -2    7.06    0.51
  -7   7  -2    6.41    0.49
   7   7   2    6.46    0.45
  -7   7  -2    6.97    0.50
  -7   7  -2    5.70    0.38
  -7   7  -2    6.87    0.46
   7   7   2    6.64    0.52
   9  -7   2   15.38    0.66
  -9  -7  -2   15.71    0.82
  -9  -7  -2   16.22    0.75
  -9   7  -2   16.26    0.77
  -9   7  -2   16.62    0.74
   9   7   2   16.90    0.77
  11  -7   2    6.93    0.50
 -11  -7  -2    6.67    0.65
 -11  -7  -2    7.29    0.62
 -11   7  -2    6.91    0.62
  11   7   2    7.34    0.62
 -11   7  -2    7.25    0.57
  13  -7   2    2.43    0.36
 -13  -7  -2    3.52    0.55
 -13   7  -2    2.78    0.44
 -13   7  -2    3.01    0.48
  13   7   2    2.99    0.46
  15  -7   2    3.57    0.42
 -15  -7  -2    2.81    0.54
 -15   7  -2    2.90    0.50
  15   7   2    3.48    0.50
 -15   7  -2    1.97    0.44
 -17  -7  -2    7.39    0.80
  17  -7   2    7.51    0.58
 -17   7  -2    7.54    0.70
  17   7   2    8.16    0.75
 -17   7  -2    8.76    0.79
 -19  -7  -2    2.27    0.60
 -19   7  -2    3.66    0.61
 -19   7  -2    3.06    0.56
  19   7   2    3.11    0.57
 -20  -8   2    2.70    0.60
 -20   8   2    3.71    0.41
  20   8  -2    3.44    0.55
 -18  -8   2    1.49    0.51
 -18   8   2    1.57    0.30
  18   8  -2    1.87    0.44
 -16  -8   2    6.71    0.71
 -16   8   2    6.41    0.42
  16   8  -2    6.99    0.65
 -16   8   2    6.86    0.58
 -14  -8   2   12.73    0.83
 -14   8   2   11.98    0.51
  14   8  -2   11.13    0.71
 -14   8   2   12.22    0.69
  12  -8  -2   13.87    0.47
 -12  -8   2   12.88    0.79
 -12   8   2   12.00    0.65
 -12   8   2   13.16    0.49
  12   8  -2   13.48    0.73
 -10  -8   2   20.30    0.93
  10  -8  -2   21.70    0.59
 -10   8   2   22.26    0.82
  10   8  -2   21.89    0.89
 -10   8   2   21.23    0.62
  -8  -8   2   31.58    1.10
   8  -8  -2   30.35    0.74
  -8   8   2   29.63    0.97
   8   8  -2   28.97    1.04
  -8   8   2   30.74    0.76
   6  -8  -2   17.48    0.48
   6  -8  -2   17.44    0.49
  -6  -8   2   16.34    0.73
  -6   8   2   17.36    0.51
  -6   8   2   16.56    0.65
  -6   8   2   16.59    0.50
   6   8  -2   17.17    0.71
  -4  -8   2   21.89    0.84
   4  -8  -2   23.50    0.66
   4   8  -2   24.06    0.64
  -4   8   2   23.70    0.69
   4   8  -2   24.73    0.85
  -4   8   2   24.49    0.69
  -4   8   2   23.27    0.79
  -2  -8   2   83.80    2.13
   2  -8  -2   82.03    2.00
   2   8  -2   83.46    2.11
  -2   8   2   81.73    2.03
   2   8  -2   84.54    1.95
  -2   8   2   86.25    2.04
  -2   8   2   84.52    1.97
   0  -8  -2    7.33    0.41
   0  -8   2    6.38    0.40
   0  -8  -2    7.26    0.42
   0   8  -2    7.41    0.43
   0   8  -2    6.95    0.44
   0   8  -2    6.38    0.44
   0   8   2    6.71    0.37
   0   8   2    7.21    0.45
  -2  -8  -2   15.15    0.65
   2  -8   2   13.85    0.58
  -2  -8  -2   14.21    0.60
   2   8   2   13.60    0.66
  -2   8  -2   15.48    0.66
   2   8   2   15.10    0.58
  -2   8  -2   14.49    0.58
  -2   8  -2   12.09    0.56
  -4  -8  -2   22.22    0.86
   4  -8   2   22.13    0.77
  -4  -8  -2   23.12    0.83
  -4   8  -2   22.02    0.82
   4   8   2   22.80    0.87
  -4   8  -2   21.63    0.81
   4   8   2   21.60    0.79
  -4   8  -2   21.43    0.72
  -4   8  -2   23.22    0.77
  -6  -8  -2   34.63    1.15
   6  -8   2   35.97    1.09
  -6  -8  -2   35.66    1.19
  -6   8  -2   35.20    1.12
   6   8   2   35.65    1.14
   6   8   2   33.98    1.19
  -6   8  -2   35.20    1.02
  -6   8  -2   39.31    1.10
  -6   8  -2   34.73    1.14
   8  -8   2   42.44    1.24
  -8  -8  -2   41.73    1.35
  -8  -8  -2   45.73    1.42
  -8   8  -2   41.69    1.31
  -8   8  -2   41.37    1.18
  -8   8  -2   42.07    1.34
   8   8   2   44.05    1.35
  -8   8  -2   42.92    1.27
   8   8   2   40.70    1.39
 -10  -8  -2   28.16    1.10
 -10  -8  -2   26.28    1.14
  10  -8   2   27.93    0.96
 -10   8  -2   29.05    1.09
 -10   8  -2   30.15    1.05
  10   8   2   28.38    1.09
  12  -8   2   16.72    0.73
 -12  -8  -2   19.29    0.91
 -12  -8  -2   17.28    0.93
 -12   8  -2   16.69    0.82
 -12   8  -2   17.62    0.92
  12   8   2   16.97    0.86
 -14  -8  -2    6.65    0.72
  14  -8   2    8.10    0.54
 -14   8  -2    6.60    0.67
  14   8   2    7.03    0.66
 -14   8  -2    7.80    0.63
  16  -8   2    5.50    0.51
 -16  -8  -2    5.35    0.70
 -16   8  -2    5.30    0.59
  16   8   2    4.53    0.58
 -16   8  -2    3.91    0.58
 -18  -8  -2    5.62    0.76
 -18   8  -2    4.69    0.65
 -18   8  -2    5.13    0.61
  18   8   2    5.76    0.67
 -21  -9   2   -0.20    0.45
 -21   9   2   -0.11    0.24
  21   9  -2    0.37    0.36
 -19  -9   2    0.62    0.47
 -19   9   2    0.52    0.26
  19   9  -2    0.36    0.37
 -17  -9   2    0.82    0.46
 -17   9   2    0.44    0.31
 -17   9   2    0.99    0.24
  17   9  -2    0.82    0.38
 -15  -9   2    9.43    0.82
  15   9  -2   10.16    0.70
 -15   9   2   10.97    0.66
 -15   9   2    9.69    0.44
 -13  -9   2    3.35    0.54
 -13   9   2    3.41    0.28
  13   9  -2    3.38    0.47
 -13   9   2    4.25    0.46
  11  -9  -2   15.98    0.46
 -11  -9   2   15.02    0.81
 -11   9   2   15.69    0.73
 -11   9   2   15.75    0.49
  11   9  -2   17.19    0.81
  -9  -9   2    7.23    0.58
  -9   9   2    7.00    0.49
   9   9  -2    6.83    0.51
  -7  -9   2   12.68    0.68
   7  -9  -2   12.13    0.35
  -7   9   2   12.82    0.61
  -7   9   2   12.33    0.37
   7   9  -2   12.75    0.64
  -7   9   2   12.02    0.38
   5  -9  -2   21.40    0.60
  -5  -9   2   20.78    0.85
  -5   9   2   21.54    0.77
  -5   9   2   22.26    0.62
   5   9  -2   21.61    0.82
  -5   9   2   20.36    0.62
  -3  -9   2   22.62    0.83
   3  -9  -2   21.90    0.67
  -3   9   2   20.01    0.77
  -3   9   2   20.34    0.67
   3   9  -2   21.91    0.82
  -3   9   2   21.20    0.61
  -3   9   2   21.81    0.67
   3   9  -2   21.02    0.64
  -1  -9   2    1.50    0.27
   1  -9  -2    1.55    0.26
  -1   9   2    1.71    0.23
   1   9  -2    1.57    0.25
  -1   9   2    1.92    0.26
   1   9  -2    1.07    0.27
  -1   9   2    1.31    0.27
   1  -9   2    5.96    0.42
  -1  -9  -2    4.36    0.38
  -1  -9  -2    5.21    0.39
   1   9   2    5.26    0.41
   1   9   2    4.46    0.36
  -1   9  -2    4.64    0.38
  -1   9  -2    4.22    0.36
   1   9   2    5.31    0.43
  -3  -9  -2   29.62    0.99
  -3  -9  -2   30.79    0.99
  -3   9  -2   29.93    0.91
   3   9   2   31.08    1.03
  -3   9  -2   30.40    0.97
   3   9   2   28.85    0.96
  -3   9  -2   30.21    0.95
  -5  -9  -2    6.18    0.51
   5  -9   2    6.37    0.44
  -5  -9  -2    7.24    0.51
  -5   9  -2    5.69    0.41
  -5   9  -2    6.76    0.51
   5   9   2    6.84    0.45
   5   9   2    6.58    0.52
  -5   9  -2    6.66    0.50
  -5   9  -2    6.21    0.38
   7  -9   2   10.03    0.53
  -7  -9  -2   10.18    0.62
  -7  -9  -2   10.64    0.63
  -7   9  -2   10.32    0.52
   7   9   2   10.57    0.62
  -7   9  -2   10.97    0.48
  -7   9  -2   10.61    0.59
   7   9   2   10.52    0.57
  -7   9  -2   11.75    0.64
   9  -9   2   11.33    0.57
  -9  -9  -2   11.17    0.69
  -9  -9  -2   11.66    0.69
  -9   9  -2   11.30    0.71
  -9   9  -2   11.45    0.64
   9   9   2   10.02    0.61
  11  -9   2    2.09    0.32
 -11  -9  -2    2.79    0.48
 -11  -9  -2    2.79    0.44
  11   9   2    3.05    0.45
 -11   9  -2    3.31    0.49
 -11   9  -2    2.64    0.40
  13  -9   2    0.82    0.27
 -13  -9  -2    0.53    0.41
  13   9   2    0.07    0.31
 -13   9  -2    0.52    0.39
 -13   9  -2    0.65    0.33
 -15  -9  -2    3.12    0.58
  15  -9   2    2.85    0.40
  15   9   2    3.65    0.51
 -15   9  -2    2.94    0.53
 -15   9  -2    2.53    0.45
 -17  -9  -2    0.52    0.48
  17  -9   2    1.05    0.32
  17   9   2    0.10    0.32
 -17   9  -2    0.48    0.36
 -17   9  -2    0.67    0.41
 -19  -9  -2    2.16    0.62
 -19   9  -2    1.61    0.51
  19   9   2    1.84    0.49
 -20 -10   2    2.21    0.61
  20  10  -2    3.37    0.58
 -20  10   2    2.71    0.33
 -18 -10   2    5.42    0.74
 -18  10   2    6.81    0.63
 -18  10   2    5.72    0.39
  18  10  -2    6.21    0.68
 -16 -10   2    4.77    0.63
 -16  10   2    5.24    0.56
 -16  10   2    4.37    0.32
  16  10  -2    4.86    0.58
 -14 -10   2   21.94    1.12
 -14  10   2   22.04    0.67
  14  10  -2   26.06    1.09
 -14  10   2   24.32    1.00
 -12 -10   2   25.65    1.13
 -12  10   2   25.20    0.98
  12  10  -2   25.00    1.05
 -10 -10   2   27.48    1.13
 -10  10   2   27.30    0.99
  10  10  -2   27.18    1.05
  -8 -10   2   25.20    1.01
  -8  10   2   25.48    0.91
   8  10  -2   25.29    0.95
  -6 -10   2   11.36    0.63
   6 -10  -2   11.64    0.38
   6 -10  -2   12.29    0.38
  -6  10   2   12.61    0.39
  -6  10   2   12.40    0.61
  -6  10   2   11.74    0.39
   6  10  -2   11.87    0.64
  -4 -10   2   12.42    0.63
   4 -10  -2   12.02    0.45
   4  10  -2   12.10    0.42
  -4  10   2   12.23    0.46
  -4  10   2   13.42    0.63
   4  10  -2   11.85    0.61
  -4  10   2   11.45    0.47
  -2 -10   2   53.74    1.53
   2 -10  -2   55.20    1.43
  -2  10   2   55.32    1.47
  -2  10   2   56.68    1.48
   2  10  -2   56.75    1.40
  -2  10   2   54.72    1.39
  -2  10   2   56.04    1.46
   2  10  -2   57.34    1.56
   0 -10  -2   93.13    2.33
   0 -10  -2   91.32    2.30
   0 -10   2   95.20    2.36
   0  10  -2   95.18    2.34
   0  10  -2   92.73    2.25
   0  10  -2   93.19    2.35
   0  10   2   94.82    2.37
   0  10   2   96.41    2.28
  -2 -10  -2    3.95    0.39
  -2 -10  -2    4.39    0.40
  -2  10  -2    4.03    0.34
   2  10   2    4.33    0.37
  -2  10  -2    4.47    0.36
  -2  10  -2    4.15    0.39
   2  10   2    4.46    0.42
  -4 -10  -2    5.95    0.45
  -4 -10  -2    4.94    0.45
   4  10   2    5.71    0.45
   4  10   2    6.98    0.52
  -4  10  -2    5.59    0.43
  -4  10  -2    6.87    0.51
  -4  10  -2    5.21    0.36
  -6 -10  -2   36.66    1.21
  -6 -10  -2   35.53    1.19
   6 -10   2   35.19    1.09
   6  10   2   34.68    1.22
  -6  10  -2   36.04    1.17
   6  10   2   34.29    1.14
  -6  10  -2   37.11    1.09
  -6  10  -2   36.25    1.14
  -6  10  -2   34.95    1.01
  -8 -10  -2   36.45    1.28
  -8 -10  -2   36.05    1.23
   8 -10   2   35.13    1.10
  -8  10  -2   35.70    1.16
  -8  10  -2   35.34    1.22
   8  10   2   34.20    1.25
  -8  10  -2   34.27    1.11
   8  10   2   35.80    1.23
 -10 -10  -2    5.99    0.64
  10 -10   2    6.68    0.48
 -10 -10  -2    7.07    0.62
 -10  10  -2    5.51    0.56
  10  10   2    6.73    0.60
 -10  10  -2    6.93    0.57
 -12 -10  -2    7.76    0.73
  12 -10   2    7.98    0.51
  12  10   2    6.83    0.64
 -12  10  -2    7.26    0.60
 -12  10  -2    7.31    0.66
 -14 -10  -2    2.46    0.54
  14 -10   2    2.95    0.37
 -14  10  -2    3.85    0.55
 -14  10  -2    2.37    0.45
  14  10   2    2.94    0.48
 -16 -10  -2    0.40    0.44
  16 -10   2    0.46    0.28
 -16  10  -2    0.17    0.39
 -16  10  -2   -0.19    0.35
  16  10   2    0.23    0.34
  18  10   2    4.97    0.66
 -18  10  -2    3.96    0.58
 -18  10  -2    3.67    0.62
 -19 -11   2    2.66    0.62
  19  11  -2    1.62    0.44
 -19  11   2    2.36    0.28
 -17 -11   2    6.25    0.75
 -17  11   2    5.26    0.58
  17  11  -2    6.59    0.68
 -17  11   2    6.45    0.35
 -15 -11   2    5.87    0.70
 -15  11   2    5.87    0.57
  15  11  -2    6.74    0.66
 -13 -11   2    5.23    0.63
 -13  11   2    5.61    0.53
  13  11  -2    5.52    0.58
 -11 -11   2    3.41    0.51
 -11  11   2    2.31    0.37
  11  11  -2    2.95    0.43
  -9 -11   2   21.65    0.95
  -9  11   2   21.21    0.86
   9  11  -2   20.64    0.91
   7 -11  -2    5.81    0.23
   7 -11  -2    5.92    0.24
  -7 -11   2    6.31    0.54
   7  11  -2    6.96    0.49
  -7  11   2    5.68    0.25
  -7  11   2    6.75    0.25
  -7  11   2    5.73    0.44
   5 -11  -2   25.00    0.70
  -5 -11   2   25.17    0.95
   5  11  -2   24.31    0.66
  -5  11   2   25.77    0.90
   5  11  -2   24.07    0.93
  -5  11   2   26.54    0.72
  -5  11   2   25.04    0.71
  -3 -11   2    8.53    0.56
   3 -11  -2    8.34    0.40
   3  11  -2    7.64    0.40
  -3  11   2    7.99    0.43
  -3  11   2    8.51    0.36
   3  11  -2    8.23    0.51
  -3  11   2    8.83    0.50
  -3  11   2    7.98    0.42
   1 -11  -2    9.92    0.51
  -1 -11   2   10.00    0.55
   1  11  -2    9.23    0.52
   1  11  -2    9.67    0.56
  -1  11   2    9.69    0.51
  -1  11   2   10.61    0.51
   1  11  -2   10.23    0.50
  -1  11   2   10.56    0.46
  -1 -11  -2   37.79    1.12
   1 -11   2   36.27    1.11
  -1 -11  -2   36.95    1.13
   1  11   2   37.62    1.09
  -1  11  -2   36.15    1.10
   1  11   2   38.91    1.16
   1  11   2   37.10    1.17
  -1  11  -2   37.38    1.10
  -3 -11  -2   31.23    1.03
  -3 -11  -2   31.42    1.03
  -3  11  -2   31.24    1.01
  -3  11  -2   31.46    0.93
   3  11   2   29.95    1.00
  -3  11  -2   31.18    0.99
   3  11   2   31.65    1.07
  -5 -11  -2   48.29    1.45
  -5 -11  -2   42.48    1.42
   5 -11   2   48.14    1.35
  -5  11  -2   48.96    1.34
   5  11   2   46.89    1.48
  -5  11  -2   45.37    1.40
   5  11   2   48.64    1.41
  -5  11  -2   48.19    1.27
  -7 -11  -2   16.80    0.84
  -7 -11  -2   18.39    0.81
   7 -11   2   17.01    0.70
  -7  11  -2   16.91    0.74
  -7  11  -2   17.10    0.79
   7  11   2   18.79    0.81
  -7  11  -2   18.22    0.71
   7  11   2   18.11    0.85
  -9 -11  -2   16.76    0.90
   9 -11   2   15.40    0.67
  -9 -11  -2   15.75    0.84
  -9  11  -2   18.40    0.79
   9  11   2   17.06    0.81
  -9  11  -2   16.21    0.82
 -11 -11  -2    5.01    0.61
  11 -11   2    5.22    0.43
 -11  11  -2    3.99    0.48
 -11  11  -2    4.78    0.57
  11  11   2    5.38    0.57
 -13 -11  -2    9.98    0.79
  13 -11   2   10.42    0.58
 -13  11  -2    9.54    0.72
 -13  11  -2   10.56    0.68
  13  11   2   10.43    0.74
  15 -11   2    3.75    0.41
 -15 -11  -2    3.75    0.65
 -15  11  -2    3.35    0.49
 -15  11  -2    4.22    0.60
  15  11   2    3.97    0.56
  17  11   2    1.54    0.45
 -17  11  -2    2.69    0.55
 -17  11  -2    2.36    0.48
 -20 -12   2   -0.07    0.46
  20  12  -2    0.33    0.38
 -18 -12   2    0.57    0.51
  18  12  -2    0.42    0.37
 -18  12   2    0.85    0.39
 -16 -12   2    1.86    0.53
 -16  12   2    1.94    0.42
  16  12  -2    1.08    0.40
 -14 -12   2    5.17    0.64
 -14  12   2    5.02    0.54
  14  12  -2    4.04    0.55
 -12 -12   2    2.18    0.47
 -12  12   2    2.27    0.41
  12  12  -2    3.34    0.46
 -10 -12   2    2.17    0.43
 -10  12   2    2.42    0.39
  10  12  -2    2.09    0.38
  -8 -12   2    9.45    0.66
  -8  12   2    9.52    0.57
   8  12  -2    9.29    0.58
  -6 -12   2    6.46    0.52
   6 -12  -2    6.21    0.27
   6 -12  -2    6.33    0.28
   6  12  -2    6.14    0.48
  -6  12   2    6.47    0.30
   6  12  -2    6.43    0.26
  -6  12   2    6.16    0.30
  -6  12   2    5.76    0.47
  -4 -12   2   53.44    1.56
   4 -12  -2   53.34    1.33
  -4  12   2   54.44    1.37
  -4  12   2   52.47    1.47
  -4  12   2   51.59    1.36
   4  12  -2   51.92    1.29
   4  12  -2   52.78    1.55
  -2 -12   2   20.09    0.80
   2 -12  -2   20.52    0.69
  -2  12   2   18.61    0.70
  -2  12   2   20.77    0.72
  -2  12   2   19.44    0.75
  -2  12   2   19.19    0.63
   2  12  -2   19.85    0.79
   2  12  -2   20.45    0.66
   0 -12   2    2.95    0.33
   0 -12  -2    3.76    0.36
   0  12  -2    2.76    0.33
   0  12   2    3.19    0.31
   0  12   2    3.44    0.36
   0  12   2    3.26    0.34
   0  12  -2    2.98    0.32
  -2 -12  -2    8.02    0.50
  -2 -12  -2    8.12    0.50
  -2  12  -2    7.88    0.52
  -2  12  -2    8.84    0.48
   2  12   2    8.20    0.51
   2  12   2    9.27    0.50
  -2  12  -2    7.60    0.48
   2  12   2    8.80    0.55
  -4 -12  -2   15.12    0.70
  -4 -12  -2   15.15    0.72
   4  12   2   14.55    0.65
  -4  12  -2   16.67    0.63
  -4  12  -2   14.48    0.67
   4  12   2   14.58    0.71
  -4  12  -2   14.89    0.58
  -6 -12  -2    1.52    0.32
  -6 -12  -2    1.83    0.36
   6 -12   2    1.27    0.26
   6  12   2    1.59    0.35
  -6  12  -2    1.49    0.22
  -6  12  -2    1.79    0.28
   6  12   2    1.39    0.29
  -6  12  -2    1.54    0.32
   8 -12   2    7.30    0.50
  -8 -12  -2    8.18    0.62
  -8 -12  -2    8.17    0.66
   8  12   2    7.62    0.58
  -8  12  -2    7.94    0.64
   8  12   2    6.73    0.62
  10 -12   2   19.78    0.75
 -10 -12  -2   17.80    0.97
 -10 -12  -2   17.59    0.88
 -10  12  -2   16.85    0.79
 -10  12  -2   18.76    0.95
  10  12   2   18.09    0.90
  12 -12   2    2.57    0.34
 -12 -12  -2    3.34    0.55
 -12  12  -2    2.26    0.41
  12  12   2    2.33    0.44
 -12  12  -2    3.09    0.52
  14 -12   2    5.38    0.46
  14  12   2    5.20    0.62
 -14  12  -2    5.50    0.56
 -14  12  -2    7.16    0.72
 -16  12  -2    0.33    0.38
  16  12   2    0.80    0.38
 -16  12  -2    0.31    0.40
 -18  12  -2    1.85    0.42
  18  12   2    1.94    0.48
 -18  12  -2    1.59    0.51
 -19 -13   2    1.57    0.58
  19  13  -2    2.26    0.51
 -19  13   2    1.21    0.42
 -17 -13   2    4.74    0.71
  17  13  -2    5.53    0.67
 -17  13   2    5.09    0.60
 -15 -13   2    7.29    0.79
  15  13  -2    5.73    0.63
 -15  13   2    9.90    0.69
 -13 -13   2    1.29    0.49
  13  13  -2    1.66    0.42
 -13  13   2    2.44    0.43
 -11 -13   2   55.27    1.86
  11  13  -2   55.93    1.79
 -11  13   2   56.39    1.70
  -9 -13   2    7.95    0.65
   9  13  -2    9.80    0.63
  -9  13   2    8.41    0.57
   7 -13  -2   17.55    0.50
  -7 -13   2   19.40    0.86
  -7  13   2   18.04    0.52
  -7  13   2   18.40    0.53
   7  13  -2   17.81    0.81
  -7  13   2   17.58    0.78
   5 -13  -2    3.38    0.26
  -5 -13   2    3.61    0.41
  -5  13   2    3.55    0.29
   5  13  -2    3.58    0.41
   5  13  -2    3.31    0.23
  -5  13   2    3.22    0.36
  -5  13   2    3.38    0.27
  -3 -13   2   56.22    1.63
   3 -13  -2   56.84    1.45
  -3  13   2   56.35    1.40
  -3  13   2   57.75    1.57
   3  13  -2   56.17    1.42
  -3  13   2   58.57    1.50
   3  13  -2   55.64    1.62
  -3  13   2   55.29    1.49
   1 -13  -2    0.43    0.22
  -1 -13   2    0.30    0.23
  -1  13   2    0.72    0.19
  -1  13   2    0.78    0.23
   1  13  -2    0.88    0.22
   1  13  -2    0.46    0.24
   1  13  -2    0.65    0.23
  -1  13   2    0.46    0.21
  -1  13   2    0.60    0.23
  -1 -13  -2    0.30    0.20
  -1 -13  -2    0.01    0.21
   1  13   2   -0.08    0.08
   1  13   2   -0.09    0.17
  -1  13  -2    0.32    0.21
  -1  13  -2    0.34    0.22
   1  13   2   -0.08    0.23
  -1  13  -2    0.46    0.21
  -3 -13  -2   24.21    0.89
  -3 -13  -2   24.12    0.90
  -3  13  -2   21.63    0.87
  -3  13  -2   24.45    0.85
  -3  13  -2   23.52    0.80
   3  13   2   24.17    0.87
   3  13   2   26.37    0.95
  -5 -13  -2    0.58    0.28
  -5 -13  -2    0.84    0.28
  -5  13  -2    1.14    0.26
   5  13   2    1.65    0.30
   5  13   2    0.98    0.33
  -5  13  -2    1.38    0.22
  -5  13  -2    1.23    0.31
  -7 -13  -2   24.69    1.01
   7 -13   2   23.81    0.87
  -7 -13  -2   21.82    1.01
  -7  13  -2   24.68    0.87
  -7  13  -2   24.65    0.98
   7  13   2   23.24    0.96
   7  13   2   24.76    1.06
  -9 -13  -2    0.81    0.39
  -9 -13  -2    0.63    0.33
   9 -13   2    0.60    0.25
  -9  13  -2    0.27    0.33
   9  13   2    1.66    0.39
  11 -13   2   37.98    1.13
  11  13   2   32.44    1.31
 -11  13  -2   32.34    1.18
 -11  13  -2   35.94    1.36
  13 -13   2    4.52    0.42
 -13  13  -2    4.11    0.48
  13  13   2    4.34    0.59
 -13  13  -2    3.66    0.57
  15  13   2    8.75    0.81
 -15  13  -2    8.99    0.68
 -15  13  -2    9.10    0.81
  17  13   2    4.42    0.61
 -17  13  -2    5.60    0.55
 -17  13  -2    4.87    0.67
  20  14  -2    0.46    0.40
 -18 -14   2    2.44    0.62
 -18  14   2    2.18    0.49
  18  14  -2    1.16    0.41
 -16 -14   2   12.15    0.90
 -16  14   2   11.79    0.79
  16  14  -2   11.71    0.83
 -14 -14   2    3.08    0.56
  14  14  -2    3.00    0.52
 -14  14   2    2.74    0.47
 -12 -14   2    4.82    0.62
 -12  14   2    3.64    0.50
  12  14  -2    4.47    0.57
 -10 -14   2   19.65    1.01
 -10  14   2   19.27    0.87
  10  14  -2   19.66    0.93
  -8 -14   2    0.77    0.36
   8  14  -2    0.81    0.32
  -8  14   2    1.49    0.33
   6 -14  -2   35.18    0.91
  -6 -14   2   32.11    1.21
   6  14  -2   36.89    1.22
  -6  14   2   33.03    1.15
   6  14  -2   33.97    0.88
  -6  14   2   35.60    0.94
  -6  14   2   35.97    0.95
  -4 -14   2    7.11    0.52
   4 -14  -2    6.93    0.37
  -4  14   2    7.80    0.31
   4  14  -2    7.82    0.54
  -4  14   2    7.54    0.50
  -4  14   2    8.11    0.42
   4  14  -2    7.93    0.38
  -4  14   2    7.59    0.41
  -2 -14   2   11.25    0.62
   2 -14  -2   11.28    0.51
   2  14  -2   11.95    0.50
  -2  14   2   10.19    0.46
  -2  14   2   11.23    0.55
  -2  14   2   11.29    0.55
   2  14  -2   12.34    0.61
   0 -14  -2    1.81    0.28
   0 -14   2    1.88    0.30
   0  14  -2    1.63    0.29
   0  14   2    1.75    0.30
   0  14   2    2.25    0.27
   0  14   2    2.30    0.32
   0  14  -2    1.49    0.27
  -2 -14  -2   15.24    0.67
  -2 -14  -2   14.75    0.68
   2  14   2   14.16    0.71
  -2  14  -2   16.19    0.69
  -2  14  -2   15.31    0.67
   2  14   2   14.69    0.64
   2  14   2   14.28    0.71
  -2  14  -2   14.71    0.62
  -4 -14  -2    2.98    0.39
  -4 -14  -2    2.26    0.37
  -4  14  -2    2.63    0.37
   4  14   2    3.11    0.41
  -4  14  -2    3.00    0.33
   4  14   2    3.52    0.40
  -4  14  -2    3.32    0.30
  -6 -14  -2    3.80    0.45
   6  14   2    3.84    0.50
  -6  14  -2    2.68    0.41
   6  14   2    3.96    0.44
  -6  14  -2    4.58    0.40
   8 -14   2    0.92    0.28
  -8 -14  -2    0.84    0.36
  -8  14  -2    0.77    0.33
   8  14   2    1.46    0.37
   8  14   2    0.77    0.38
  10 -14   2    0.30    0.23
 -10  14  -2    0.04    0.30
  10  14   2    0.60    0.32
  12 -14   2    6.33    0.48
 -12  14  -2    7.06    0.70
  12  14   2    5.99    0.64
 -14  14  -2    1.81    0.49
 -14  14  -2    1.35    0.37
  14  14   2    1.38    0.43
 -16  14  -2    9.69    0.87
 -16  14  -2    9.82    0.70
  16  14   2   10.30    0.80
 -18  14  -2    0.51    0.45
  18  14   2    0.20    0.37
 -19  15   2    2.61    0.52
  19  15  -2    2.11    0.53
 -17  15   2   11.94    0.82
  17  15  -2   11.17    0.85
 -15 -15   2    9.92    0.93
  15  15  -2   11.01    0.80
 -15  15   2    9.94    0.73
 -13 -15   2    1.49    0.51
 -13  15   2    0.66    0.37
  13  15  -2    1.62    0.42
 -11 -15   2   23.34    1.12
 -11  15   2   22.27    1.00
  11  15  -2   21.26    1.04
  -9 -15   2   52.81    1.81
   9  15  -2   57.24    1.79
  -9  15   2   54.99    1.69
  -7 -15   2   29.78    1.20
  -7  15   2   31.58    1.13
   7  15  -2   31.14    1.17
  -7  15   2   31.75    0.85
  -7  15   2   29.87    0.83
   5 -15  -2    0.32    0.17
  -5 -15   2    0.81    0.30
  -5  15   2    0.69    0.20
   5  15  -2    0.64    0.28
  -5  15   2    0.91    0.27
  -5  15   2    0.74    0.20
   5  15  -2    0.96    0.18
  -3 -15   2   49.43    1.51
   3 -15  -2   49.04    1.32
  -3  15   2   49.65    1.44
  -3  15   2   46.86    1.36
  -3  15   2   49.34    1.36
  -3  15   2   48.40    1.26
   3  15  -2   48.32    1.28
   3  15  -2   48.02    1.48
  -1 -15   2   58.39    1.71
   1 -15  -2   60.86    1.63
  -1  15   2   62.10    1.67
  -1  15   2   59.88    1.68
   1  15  -2   61.31    1.59
   1  15  -2   60.33    1.71
  -1  15   2   62.90    1.70
  -1  15   2   60.75    1.58
   1  15  -2   59.07    1.70
  -1 -15  -2    5.44    0.44
  -1  15  -2    7.29    0.48
   1  15   2    6.09    0.49
   1  15   2    6.73    0.43
  -1  15  -2    6.16    0.44
  -1  15  -2    6.08    0.46
  -3 -15  -2    4.49    0.46
   3  15   2    3.81    0.41
  -3  15  -2    6.02    0.44
  -3  15  -2    4.87    0.38
   3  15   2    5.22    0.51
  -3  15  -2    5.35    0.47
  -5 -15  -2    9.91    0.64
  -5  15  -2   10.28    0.63
   5  15   2   11.08    0.64
   5  15   2   11.62    0.71
  -7 -15  -2   28.89    1.16
   7 -15   2   30.46    1.03
  -7  15  -2   29.54    1.16
   7  15   2   30.55    1.15
   7  15   2   29.55    1.22
   9 -15   2   19.16    0.77
   9  15   2   19.40    0.92
  -9  15  -2   17.48    0.94
  11 -15   2    5.66    0.45
  11  15   2    5.09    0.59
 -11  15  -2    4.90    0.59
  13  15   2   12.90    0.85
 -13  15  -2   14.71    0.91
  15  15   2    6.71    0.73
 -15  15  -2    7.72    0.80
  17  15   2    4.68    0.67
 -17  15  -2    6.78    0.77
 -18  16   2    0.65    0.41
  18  16  -2    2.00    0.52
 -16  16   2   -0.15    0.33
  16  16  -2   -0.04    0.36
 -14  16   2    1.87    0.44
  14  16  -2    2.23    0.50
  12  16  -2   12.69    0.84
 -12  16   2   13.99    0.82
  10  16  -2    7.65    0.70
 -10  16   2    8.68    0.71
  -8 -16   2   33.02    1.31
   8  16  -2   31.31    1.22
  -8  16   2   32.79    1.20
  -8  16   2   33.10    0.85
  -8  16   2   31.15    0.84
  -6 -16   2   12.63    0.79
  -6  16   2   14.15    0.73
   6  16  -2   14.13    0.77
  -6  16   2   14.20    0.54
  -6  16   2   13.01    0.51
   4 -16  -2   15.10    0.58
  -4  16   2   15.57    0.63
   4  16  -2   15.32    0.58
  -4  16   2   14.41    0.61
  -4  16   2   15.68    0.72
   4  16  -2   16.55    0.78
   2 -16  -2   11.27    0.54
  -2  16   2   11.73    0.50
  -2  16   2   11.39    0.59
  -2  16   2   11.76    0.57
   2  16  -2   11.26    0.52
   2  16  -2   12.34    0.64
  -2  16   2   11.63    0.63
   0 -16  -2   39.92    1.24
   0  16  -2   42.07    1.28
   0  16   2   41.27    1.21
   0  16   2   41.24    1.30
   0  16  -2   40.41    1.23
  -2 -16  -2    2.84    0.38
   2  16   2    2.85    0.42
  -2  16  -2    3.37    0.36
   2  16   2    2.24    0.33
  -2  16  -2    2.08    0.33
  -4 -16  -2    2.92    0.41
   4  16   2    2.18    0.39
   4  16   2    2.87    0.38
  -4  16  -2    3.18    0.42
  -6 -16  -2   14.20    0.79
   6  16   2   14.25    0.75
   6  16   2   14.23    0.83
  -6  16  -2   12.89    0.77
   8 -16   2   15.98    0.70
  -8  16  -2   14.24    0.84
   8  16   2   13.89    0.78
  10 -16   2    0.59    0.26
 -10  16  -2    0.62    0.35
  10  16   2    0.92    0.37
  12 -16   2    1.38    0.30
  12  16   2    0.78    0.37
 -12  16  -2    1.24    0.44
  14  16   2   17.72    1.01
 -14  16  -2   17.31    1.01
  16  16   2   -0.58    0.34
 -16  16  -2    1.26    0.46
 -19  17   2    5.22    0.68
  19  17  -2    5.01    0.71
 -17  17   2    0.43    0.39
  17  17  -2    0.23    0.40
 -15  17   2    0.96    0.42
  15  17  -2    0.51    0.41
 -13  17   2    1.97    0.45
  13  17  -2    1.91    0.49
  11  17  -2    2.31    0.48
 -11  17   2    2.06    0.45
  -9  17   2    0.35    0.30
   9  17  -2    0.08    0.33
  -7  17   2   14.52    0.77
   7  17  -2   11.58    0.75
  -7  17   2   12.37    0.48
  -7  17   2   12.27    0.50
  -5  17   2   29.27    1.10
   5  17  -2   27.99    1.12
  -5  17   2   29.65    0.92
   5  17  -2   29.20    0.86
  -5  17   2   30.46    0.94
  -3  17   2    7.89    0.52
  -3  17   2    9.19    0.60
   3  17  -2    7.92    0.58
  -3  17   2    8.43    0.51
   3  17  -2    8.21    0.46
   1 -17  -2    1.56    0.28
   1  17  -2    1.13    0.26
  -1  17   2    1.36    0.29
  -1  17   2    1.76    0.27
   1  17  -2    1.98    0.33
  -1  17   2    1.27    0.31
  -1 -17  -2    3.60    0.41
  -1  17  -2    2.91    0.36
  -1  17  -2    2.96    0.37
   1  17   2    3.52    0.37
   1  17   2    2.25    0.39
  -3 -17  -2    0.77    0.28
   3  17   2    0.62    0.30
  -3  17  -2    0.43    0.26
   3  17   2    0.31    0.24
   5  17   2    0.89    0.37
  -5  17  -2    1.81    0.39
   5  17   2    1.54    0.35
   7 -17   2    2.72    0.37
   7  17   2    2.72    0.47
   7  17   2    2.58    0.44
  -7  17  -2    2.96    0.47
   9 -17   2   14.97    0.69
   9  17   2   12.24    0.79
  -9  17  -2   14.99    0.84
  11 -17   2    5.72    0.46
 -11  17  -2    6.81    0.70
  11  17   2    5.85    0.64
 -13  17  -2    2.41    0.51
  13  17   2    2.23    0.49
  15  17   2    1.20    0.43
 -15  17  -2    1.80    0.47
  17  17   2   -0.16    0.39
 -17  17  -2    0.49    0.44
 -18  18   2    0.95    0.45
  18  18  -2    0.06    0.39
  16  18  -2    0.43    0.41
 -16  18   2    0.70    0.37
 -14  18   2    9.36    0.80
  14  18  -2    8.91    0.83
 -12  18   2   17.33    0.94
  12  18  -2   17.30    0.99
 -10  18   2    0.37    0.33
  10  18  -2    0.69    0.36
  -8  18   2    1.02    0.19
  -8  18   2    0.71    0.32
   8  18  -2    0.17    0.33
  -8  18   2    0.78    0.18
  -6  18   2   25.04    0.84
  -6  18   2   27.89    0.87
  -6  18   2   26.65    1.07
   6  18  -2   29.04    1.12
   4  18  -2    3.01    0.31
  -4  18   2    3.79    0.37
  -4  18   2    3.19    0.36
  -4  18   2    4.21    0.47
   4  18  -2    2.75    0.42
   2  18  -2   19.08    0.87
  -2  18   2   22.06    0.85
   2  18  -2   21.64    0.79
  -2  18   2   21.26    0.87
   0  18  -2    3.95    0.43
   0  18   2    2.91    0.41
   0  18  -2    3.50    0.40
   0  18   2    4.01    0.38
   2  18   2   18.08    0.78
  -2  18  -2   19.69    0.83
   2  18   2   19.26    0.89
  -2  18  -2   17.28    0.75
   4  18   2    0.29    0.26
   4  18   2    0.74    0.36
  -4  18  -2    0.22    0.27
   6  18   2    4.95    0.60
   6  18   2    5.14    0.54
  -6  18  -2    5.22    0.57
   8 -18   2    1.37    0.31
  -8  18  -2    0.88    0.37
   8  18   2    1.38    0.40
  10 -18   2   -0.13    0.23
  10  18   2   -0.09    0.32
 -10  18  -2    0.44    0.34
 -12  18  -2    7.48    0.73
  12  18   2    9.36    0.83
 -14  18  -2    0.33    0.37
  14  18   2    0.61    0.41
  16  18   2    1.76    0.52
 -16  18  -2    2.18    0.54
 -17  19   2   -0.04    0.39
  17  19  -2    0.18    0.40
 -15  19   2    4.09    0.60
  15  19  -2    3.32    0.60
  13  19  -2    0.68    0.43
 -13  19   2    1.50    0.44
  11  19  -2   15.28    0.93
 -11  19   2   14.73    0.88
   9  19  -2    2.09    0.43
  -9  19   2    1.87    0.43
  -7  19   2    2.42    0.41
  -7  19   2    2.17    0.28
  -7  19   2    1.89    0.26
   7  19  -2    3.25    0.51
   5  19  -2   59.37    1.88
  -5  19   2   59.86    1.66
  -5  19   2   61.02    1.84
  -5  19   2   64.68    1.69
   3  19  -2    3.48    0.37
  -3  19   2    3.31    0.39
  -3  19   2    3.13    0.44
   3  19  -2    2.89    0.42
   1  19  -2   25.61    0.98
  -1  19   2   24.14    0.95
  -1  19   2   22.90    0.93
   1  19  -2   24.64    0.89
   1  19   2   11.77    0.61
  -1  19  -2   12.17    0.67
  -1  19  -2   13.55    0.66
   1  19   2   11.40    0.73
   3  19   2    8.90    0.59
  -3  19  -2    8.42    0.63
   3  19   2    8.68    0.67
  -5  19  -2    4.66    0.55
   5  19   2    4.55    0.52
   5  19   2    4.32    0.58
   7  19   2    7.02    0.65
  -7  19  -2    7.43    0.65
   7  19   2    7.36    0.73
   9 -19   2    2.06    0.33
   9  19   2    1.06    0.39
  -9  19  -2    1.30    0.42
 -11  19  -2    1.04    0.40
  11  19   2    1.51    0.44
 -13  19  -2    0.67    0.41
  13  19   2    0.19    0.34
 -15  19  -2    3.08    0.58
  15  19   2    3.22    0.58
  16  20  -2    2.97    0.60
 -16  20   2    2.71    0.56
  14  20  -2    1.11    0.46
 -14  20   2    1.22    0.45
 -12  20   2    1.02    0.41
  12  20  -2    0.76    0.38
 -10  20   2    4.41    0.59
  10  20  -2    5.09    0.64
  -8  20   2    3.43    0.29
  -8  20   2    3.49    0.50
   8  20  -2    3.10    0.52
  -8  20   2    3.29    0.29
   6  20  -2   19.73    0.99
  -6  20   2   20.09    0.75
  -6  20   2   20.16    0.73
  -6  20   2   19.90    0.93
  -4  20   2    2.04    0.33
   4  20  -2    1.91    0.31
  -4  20   2    1.85    0.39
   4  20  -2    2.84    0.45
  -2  20   2   15.05    0.72
  -2  20   2   14.49    0.75
   2  20  -2   14.63    0.78
   2  20  -2   14.22    0.69
   0  20   2   26.78    1.07
   0  20  -2   28.77    1.05
   0  20  -2   27.70    1.03
  -2  20  -2    0.86    0.33
   2  20   2    1.07    0.31
   2  20   2    1.32    0.37
   4  20   2    2.17    0.39
  -4  20  -2    1.00    0.38
   4  20   2    1.38    0.44
   6  20   2    0.91    0.36
   6  20   2    1.30    0.44
  -6  20  -2    1.24    0.39
   8 -20   2    9.56    0.61
  -8  20  -2    9.86    0.73
   8  20   2    9.52    0.72
 -10  20  -2    2.62    0.54
  10  20   2    4.27    0.56
 -12  20  -2    2.81    0.52
  12  20   2    1.57    0.47
 -14  20  -2    2.24    0.53
  14  20   2    2.40    0.54
  17  21  -2    5.44    0.75
 -17  21   2    4.96    0.69
  15  21  -2    3.39    0.63
 -15  21   2    4.07    0.62
 -13  21   2    1.47    0.46
  13  21  -2    1.19    0.46
  11  21  -2    6.96    0.75
 -11  21   2    6.13    0.68
   9  21  -2   12.00    0.84
  -9  21   2   10.94    0.44
  -9  21   2   11.14    0.43
  -9  21   2   10.57    0.78
  -7  21   2   10.39    0.71
  -7  21   2   11.69    0.55
   7  21  -2   11.24    0.78
  -7  21   2   10.41    0.50
   5  21  -2    0.73    0.35
  -5  21   2    0.66    0.26
  -5  21   2    1.26    0.36
   3  21  -2   18.75    0.76
  -3  21   2   19.23    0.93
   3  21  -2   18.00    0.90
  -3  21   2   17.03    0.79
  -1  21   2    8.88    0.61
  -1  21   2    9.50    0.63
   1  21  -2    9.34    0.62
   1  21  -2    9.56    0.67
   1  21   2    7.09    0.64
  -1  21  -2    8.23    0.61
   3  21   2    2.13    0.45
   3  21   2    2.24    0.38
  -3  21  -2    2.41    0.43
   5  21   2   11.41    0.82
  -5  21  -2   11.60    0.77
   5  21   2   11.27    0.69
  -7  21  -2    0.25    0.34
   7  21   2    0.58    0.35
   7  21   2    1.24    0.44
   9 -21   2    3.01    0.41
   9  21   2    2.87    0.48
  -9  21  -2    3.25    0.55
  11  21   2    5.99    0.68
 -11  21  -2    5.92    0.68
  13  21   2    1.13    0.45
 -13  21  -2    2.00    0.49
 -15  21  -2    1.75    0.53
  15  21   2    1.04    0.45
  16  22  -2    4.51    0.73
 -16  22   2    3.82    0.62
  14  22  -2    2.31    0.56
 -14  22   2    2.37    0.53
  12  22  -2    2.89    0.58
 -12  22   2    3.19    0.56
  10  22  -2    1.72    0.46
 -10  22   2    1.28    0.42
  -8  22   2    0.64    0.22
  -8  22   2    0.81    0.37
   8  22  -2    0.52    0.36
  -6  22   2   22.73    0.85
   6  22  -2   25.89    1.15
  -6  22   2   24.52    1.10
  -4  22   2    3.06    0.39
  -4  22   2    2.51    0.47
   4  22  -2    3.83    0.53
   2  22  -2    0.87    0.29
  -2  22   2    1.26    0.36
  -2  22   2    1.43    0.38
   2  22  -2    0.79    0.34
   0  22   2    2.60    0.46
   0  22  -2    2.80    0.41
   2  22   2   12.34    0.78
  -2  22  -2   12.76    0.75
   4  22   2    2.89    0.46
   4  22   2    3.55    0.55
  -4  22  -2    4.16    0.52
   6  22   2    1.24    0.44
   6  22   2    1.20    0.38
  -6  22  -2    0.84    0.39
   8 -22   2    4.75    0.49
  -8  22  -2    4.56    0.59
   8  22   2    4.43    0.58
 -10  22  -2    4.54    0.62
  10  22   2    3.84    0.60
 -12  22  -2    0.66    0.43
  12  22   2    0.41    0.42
 -14  22  -2    2.34    0.53
  14  22   2    2.36    0.55
 -15  23   2    2.30    0.54
  15  23  -2    2.15    0.59
 -13  23   2    1.71    0.50
  13  23  -2    1.02    0.45
 -11  23   2    2.20    0.49
  11  23  -2    2.77    0.54
  -9  23   2    3.64    0.53
  -9  23   2    3.44    0.29
   9  23  -2    2.63    0.55
  -7  23   2    0.45    0.36
  -7  23   2    0.59    0.26
   7  23  -2    0.34    0.37
  -5  23   2    3.19    0.40
  -5  23   2    2.64    0.49
   5  23  -2    3.50    0.53
   3  23  -2    9.74    0.70
   3  23  -2    8.81    0.59
  -3  23   2    9.42    0.63
  -3  23   2   10.40    0.74
   1  23  -2   10.79    0.65
  -1  23   2   10.38    0.70
   1  23   2    2.38    0.46
  -1  23  -2    3.60    0.47
   3  23   2   11.32    0.79
  -3  23  -2   11.56    0.76
   5  23   2    8.64    0.73
  -5  23  -2    9.20    0.76
   5  23   2    8.82    0.80
   7  23   2    3.99    0.56
  -7  23  -2    3.79    0.57
   9  23   2    5.08    0.64
  -9  23  -2    4.86    0.64
  11  23   2    2.56    0.52
 -11  23  -2    2.04    0.51
 -13  23  -2    1.77    0.54
  13  23   2    2.16    0.54
  14  24  -2    2.27    0.59
 -14  24   2    1.08    0.46
 -12  24   2    4.65    0.64
  12  24  -2    5.02    0.72
 -10  24   2    2.36    0.49
  10  24  -2    2.79    0.57
  -8  24   2    5.46    0.40
  -8  24   2    5.94    0.68
   8  24  -2    6.42    0.72
  -6  24   2    4.91    0.62
   6  24  -2    6.84    0.71
  -6  24   2    6.81    0.47
  -4  24   2    2.69    0.40
   4  24  -2    1.76    0.43
  -4  24   2    2.29    0.45
  -2  24   2    0.48    0.34
   2  24  -2    0.70    0.31
  -2  24   2    0.57    0.35
   0  24   2    1.66    0.44
   0  24  -2    1.30    0.36
   2  24   2    5.68    0.64
  -2  24  -2    5.47    0.58
   4  24   2    4.60    0.63
  -4  24  -2    4.91    0.56
  -6  24  -2    3.65    0.55
   6  24   2    3.88    0.61
   6  24   2    3.96    0.56
   8  24   2    2.14    0.49
  -8  24  -2    2.50    0.52
 -10  24  -2   12.86    0.89
  10  24   2   13.27    0.87
  12  24   2    0.00    0.38
 -12  24  -2    0.04    0.40
  15  25  -2    0.87    0.51
 -15  25   2    2.42    0.58
  13  25  -2   10.40    1.00
 -13  25   2    9.52    0.88
  11  25  -2    0.85    0.48
 -11  25   2    0.90    0.40
  -9  25   2    0.17    0.36
   9  25  -2    0.61    0.39
  -9  25   2    0.50    0.21
  -7  25   2    6.14    0.67
   7  25  -2    5.97    0.70
  -7  25   2    5.40    0.45
  -5  25   2    0.82    0.31
   5  25  -2    0.61    0.38
  -5  25   2    0.96    0.40
  -3  25   2    0.20    0.34
  -3  25   2   -0.43    0.28
  -1  25   2    0.48    0.34
   1  25  -2    0.36    0.30
   1  25   2    8.21    0.73
  -1  25  -2    8.65    0.69
  -3  25  -2    3.04    0.47
   3  25   2    2.53    0.51
   5  25   2    5.34    0.69
  -5  25  -2    5.40    0.63
   7  25   2    0.44    0.36
  -7  25  -2    0.70    0.40
  -9  25  -2    0.66    0.41
   9  25   2    0.69    0.42
 -11  25  -2    1.75    0.51
  11  25   2    0.98    0.46
  14  26  -2    1.34    0.55
 -14  26   2    1.28    0.51
 -12  26   2    1.61    0.50
  12  26  -2    1.04    0.53
  10  26  -2    3.31    0.61
 -10  26   2    3.16    0.55
 -10  26   2    2.72    0.27
  -8  26   2    1.32    0.44
   8  26  -2    1.85    0.51
  -8  26   2    2.17    0.32
   6  26  -2   17.47    1.02
  -6  26   2   19.38    1.04
  -6  26   2   17.05    0.77
  -4  26   2    0.12    0.34
  -4  26   2   -0.19    0.27
  -2  26   2    2.76    0.44
   2  26  -2    2.82    0.44
  -2  26   2    2.62    0.48
   0  26  -2    2.42    0.43
   0  26   2    3.82    0.55
   2  26   2    2.80    0.52
  -2  26  -2    2.24    0.44
  -4  26  -2    0.05    0.33
   4  26   2    1.23    0.47
  -6  26  -2    3.03    0.51
   6  26   2    2.42    0.57
  -8  26  -2    2.50    0.53
   8  26   2    2.00    0.49
 -10  26  -2    0.33    0.39
  10  26   2    0.85    0.45
 -12  26  -2    6.46    0.79
  12  26   2    5.02    0.74
  13  27  -2    0.54    0.49
 -13  27   2    0.81    0.45
 -11  27   2    1.64    0.52
  11  27  -2    2.07    0.56
  -9  27   2    3.14    0.33
  -9  27   2    3.09    0.59
   9  27  -2    2.95    0.58
  -7  27   2    9.09    0.83
  -7  27   2    8.45    0.54
   7  27  -2   10.12    0.90
  -5  27   2    0.89    0.33
  -5  27   2    0.93    0.42
  -3  27   2    1.78    0.40
  -3  27   2    2.09    0.47
  -1  27   2    2.71    0.49
   1  27  -2    2.30    0.44
   1  27   2    0.27    0.38
  -1  27  -2   -0.40    0.30
  -3  27  -2    2.50    0.48
   3  27   2    1.84    0.52
   5  27   2    2.03    0.54
  -5  27  -2    0.20    0.32
  -7  27  -2   12.47    0.90
  -9  27  -2    1.11    0.47
 -11  27  -2    8.03    0.84
  11  27   2    7.20    0.84
 -12  28   2    1.04    0.48
  12  28  -2    1.31    0.55
  10  28  -2    8.92    0.91
 -10  28   2    8.06    0.85
 -10  28   2    8.21    0.42
  -8  28   2    5.59    0.71
  -8  28   2    5.97    0.45
   8  28  -2    5.26    0.73
  -6  28   2    1.87    0.49
  -6  28   2    2.08    0.38
  -4  28   2    0.80    0.34
  -4  28   2    1.38    0.43
  -2  28   2    2.59    0.47
   0  28  -2   13.53    0.85
   0  28   2   14.02    0.87
   2  28   2    5.74    0.69
  -2  28  -2    6.45    0.65
  -4  28  -2    1.40    0.44
   4  28   2    1.92    0.52
  -6  28  -2    1.56    0.47
   6  28   2    1.16    0.52
  -8  28  -2   10.35    0.83
 -10  28  -2    0.51    0.41
  11  29  -2    0.44    0.48
 -11  29   2    1.60    0.51
  -9  29   2    6.88    0.79
  -9  29   2    5.31    0.42
  -7  29   2    2.60    0.39
  -7  29   2    2.93    0.58
  -5  29   2    0.47    0.34
  -5  29   2    0.56    0.39
  -3  29   2    2.18    0.45
  -3  29   2    0.93    0.42
  -1  29   2   -0.28    0.34
  -1  29  -2    7.24    0.70
   1  29   2    8.83    0.82
   3  29   2    1.00    0.47
  -3  29  -2    0.55    0.38
  -5  29  -2   10.76    0.86
   5  29   2   11.67    0.93
  -7  29  -2   -0.04    0.39
  -9  29  -2    6.69    0.78
 -10  30   2    0.32    0.43
 -10  30   2    0.40    0.21
  -8  30   2    3.01    0.37
  -8  30   2    2.97    0.57
  -6  30   2    1.00    0.45
  -6  30   2    0.38    0.33
  -4  30   2    1.58    0.40
  -4  30   2    1.35    0.42
  -2  30   2    0.53    0.40
   0  30   2    0.29    0.37
   0  30  -2    0.29    0.34
   2  30   2    2.24    0.55
  -2  30  -2    2.64    0.52
  -4  30  -2   12.23    0.89
   4  30   2   11.94    0.93
  -6  30  -2    5.04    0.68
  -8  30  -2    1.57    0.51
  -9  31   2    0.78    0.49
  -9  31   2    1.31    0.30
  -7  31   2    1.19    0.50
  -7  31   2    0.67    0.31
  -5  31   2    1.68    0.38
  -5  31   2    2.02    0.51
  -3  31   2    7.14    0.68
  -1  31   2    7.24    0.75
   1  31   2    0.53    0.41
  -1  31  -2    0.30    0.39
   3  31   2    8.87    0.88
  -3  31  -2    8.95    0.83
   5  31   2    9.23    0.92
  -5  31  -2    7.61    0.81
  -6  32   2    2.25    0.56
  -6  32   2    1.93    0.39
  -4  32   2    2.72    0.49
  -4  32   2    2.53    0.54
  -2  32   2    2.07    0.48
   0  32   2   -0.37    0.34
  -2  32  -2    1.39    0.46
   2  32   2    1.65    0.50
   4  32   2    3.69    0.68
  -4  32  -2    3.13    0.58
  -3  33   2    1.84    0.47
  -1  33   2    4.32    0.63
   1  33   2    5.28    0.72
 -20   0   3    0.30    0.39
  20   0  -3    0.17    0.32
  18   0  -3   -0.18    0.25
 -18   0   3    0.08    0.35
  16   0  -3   -0.18    0.25
 -16   0   3    0.14    0.34
  14   0  -3    0.12    0.24
 -14   0   3   -0.16    0.30
 -12   0   3    0.12    0.18
  12   0  -3   -0.09    0.22
 -12   0   3   -0.18    0.26
 -10   0   3   -0.02    0.22
  10   0  -3    0.39    0.20
  -8   0   3   -0.14    0.20
   8   0  -3    0.13    0.20
   6   0  -3   -0.04    0.21
  -6   0   3   -0.25    0.23
   4   0  -3    0.00    0.19
  -4   0   3    0.06    0.22
   2   0  -3    0.26    0.19
  -2   0   3   -0.29    0.18
  -2   0   3    0.27    0.21
  -2   0   3    0.03    0.17
   0   0  -3   -0.47    0.22
   0   0  -3    0.00    0.18
   0   0   3    0.04    0.19
   0   0   3   -0.28    0.21
   0   0   3   -0.11    0.18
  -2   0  -3   -0.23    0.27
   2   0   3   -0.10    0.23
   2   0   3    0.23    0.27
   2   0   3   -0.04    0.21
  -2   0  -3    0.01    0.21
   4   0   3   -0.09    0.20
   4   0   3   -0.17    0.18
   4   0   3    0.19    0.25
  -4   0  -3    0.07    0.21
  -4   0  -3   -0.10    0.23
   6   0   3   -0.20    0.18
  -6   0  -3   -0.01    0.24
  -6   0  -3   -0.06    0.20
   6   0   3    0.05    0.22
  -8   0  -3   -0.11    0.23
   8   0   3    0.21    0.22
  -8   0  -3    0.39    0.29
 -10   0  -3   -0.34    0.31
 -10   0  -3    0.06    0.27
  10   0   3   -0.27    0.22
 -12   0  -3   -0.36    0.32
  12   0   3   -0.04    0.26
  14   0   3   -0.04    0.26
 -14   0  -3    0.40    0.38
 -14   0  -3    0.27    0.38
  16   0   3    0.07    0.28
 -16   0  -3    0.68    0.42
 -16   0  -3    0.29    0.37
 -18   0  -3    0.14    0.43
  18   0   3   -0.46    0.30
 -21  -1   3    2.05    0.50
 -21   1   3    2.75    0.52
  21   1  -3    2.01    0.44
 -19  -1   3    0.42    0.39
  19  -1  -3    0.48    0.29
  19   1  -3   -0.38    0.26
 -19   1   3   -0.33    0.35
  17  -1  -3    5.94    0.54
 -17  -1   3    6.15    0.62
 -17   1   3    5.00    0.56
  17   1  -3    6.36    0.57
  15  -1  -3   13.62    0.68
 -15  -1   3   13.51    0.75
  15   1  -3   13.18    0.71
 -15   1   3   11.92    0.70
  13  -1  -3    0.70    0.27
 -13  -1   3    0.09    0.31
 -13   1   3    0.52    0.30
  13   1  -3    1.15    0.29
  11  -1  -3   13.24    0.60
 -11  -1   3   12.37    0.64
  11   1  -3   11.47    0.59
 -11   1   3   11.63    0.50
 -11   1   3   11.77    0.60
   9  -1  -3    8.08    0.45
  -9  -1   3    7.95    0.51
   9   1  -3    8.14    0.47
  -9   1   3    8.95    0.49
  -7  -1   3    0.88    0.25
   7  -1  -3    0.37    0.20
   7   1  -3    0.57    0.23
  -7   1   3    0.62    0.22
  -5  -1   3   11.95    0.58
   5  -1  -3   12.35    0.53
  -5   1   3   12.88    0.58
   5   1  -3   11.88    0.57
  -3  -1   3   14.89    0.66
   3  -1  -3   14.26    0.58
  -3  -1   3   14.94    0.61
  -3   1   3   16.48    0.55
  -3   1   3   12.77    0.60
  -3   1   3   14.44    0.59
  -3   1   3   14.54    0.57
   3   1  -3   14.89    0.61
   1  -1  -3   28.33    0.94
  -1  -1   3   28.64    0.94
  -1  -1   3   29.70    0.92
   1  -1  -3   29.14    0.89
  -1   1   3   29.56    0.91
   1   1  -3   29.54    0.95
  -1   1   3   30.62    0.92
  -1   1   3   29.92    0.91
   1   1  -3   29.71    0.92
   1  -1   3   73.68    1.93
  -1  -1  -3   76.42    1.98
  -1  -1  -3   75.48    1.90
   1  -1   3   72.74    2.03
   1  -1   3   71.53    1.92
  -1   1  -3   72.17    1.89
   1   1   3   73.24    2.03
   1   1   3   77.05    1.91
   1   1   3   73.50    1.93
  -1   1  -3   75.11    1.98
   3  -1   3    6.59    0.46
   3  -1   3    7.68    0.51
  -3  -1  -3    6.17    0.49
   3  -1   3    6.27    0.47
  -3  -1  -3    5.76    0.47
   3   1   3    6.91    0.48
  -3   1  -3    7.61    0.59
   3   1   3    6.42    0.48
   3   1   3    6.44    0.48
  -3   1  -3    6.65    0.45
  -5  -1  -3   32.82    1.13
   5  -1   3   33.92    1.08
   5  -1   3   34.36    1.10
  -5  -1  -3   34.84    1.10
   5  -1   3   33.65    1.09
   5   1   3   32.19    1.08
  -5   1  -3   35.19    1.16
   5   1   3   34.15    1.11
  -5   1  -3   34.23    1.09
   7  -1   3    4.19    0.40
  -7  -1  -3    4.60    0.43
  -7  -1  -3    4.71    0.47
  -7   1  -3    4.16    0.42
   7   1   3    3.95    0.40
   7   1   3    4.56    0.44
  -7   1  -3    3.85    0.43
   9  -1   3    0.39    0.26
  -9  -1  -3    1.28    0.37
  -9  -1  -3    0.61    0.29
  -9   1  -3    1.04    0.32
   9   1   3    0.98    0.29
  -9   1  -3    0.79    0.34
  11  -1   3    9.82    0.62
 -11  -1  -3    9.73    0.65
 -11  -1  -3    9.73    0.73
 -11   1  -3    8.93    0.61
 -11   1  -3   10.18    0.73
  11   1   3   10.32    0.64
 -13  -1  -3    2.19    0.46
  13  -1   3    1.94    0.38
 -13   1  -3    1.10    0.42
 -13   1  -3    2.18    0.46
  13   1   3    1.59    0.37
 -15  -1  -3   14.31    0.90
 -15  -1  -3   12.39    0.92
  15  -1   3   13.58    0.79
  15   1   3   11.28    0.76
 -15   1  -3   13.54    0.90
 -15   1  -3   14.15    0.87
 -17  -1  -3    3.25    0.61
  17  -1   3    4.29    0.57
  17   1   3    3.24    0.51
 -17   1  -3    3.97    0.63
 -17   1  -3    4.87    0.62
  22   2  -3    0.21    0.36
 -20  -2   3   -0.41    0.38
 -20   2   3    0.69    0.36
  20   2  -3    0.75    0.36
 -18  -2   3    1.95    0.48
  18  -2  -3    1.39    0.36
  18   2  -3    0.84    0.32
 -18   2   3    0.98    0.36
 -16  -2   3    4.57    0.56
  16  -2  -3    3.61    0.42
 -16   2   3    3.03    0.45
  16   2  -3    3.68    0.47
  14  -2  -3    3.31    0.38
 -14  -2   3    2.69    0.46
  14   2  -3    2.82    0.41
 -14   2   3    3.29    0.43
 -12  -2   3   15.40    0.74
  12  -2  -3   14.10    0.65
  12   2  -3   15.85    0.73
 -12   2   3   14.95    0.67
 -12   2   3   15.14    0.60
 -10  -2   3    0.84    0.27
  10  -2  -3    0.91    0.22
  10   2  -3    0.54    0.23
 -10   2   3    0.52    0.22
 -10   2   3    0.84    0.21
   8  -2  -3    1.61    0.26
  -8  -2   3    1.60    0.30
   8   2  -3    1.37    0.27
  -8   2   3    1.49    0.25
  -6  -2   3    5.64    0.46
   6  -2  -3    5.89    0.41
  -6   2   3    6.43    0.41
  -6   2   3    6.48    0.41
   6   2  -3    6.47    0.46
   4  -2  -3   49.39    1.33
  -4  -2   3   51.20    1.39
  -4   2   3   52.81    1.40
  -4   2   3   51.79    1.40
  -4   2   3   51.37    1.36
   4   2  -3   45.82    1.37
  -4   2   3   50.63    1.35
   2  -2  -3    5.86    0.42
  -2  -2   3    6.45    0.45
   2  -2  -3    5.81    0.39
   2   2  -3    6.80    0.43
  -2   2   3    6.95    0.42
  -2   2   3    6.49    0.46
  -2   2   3    6.59    0.42
  -2   2   3    6.38    0.38
   0  -2   3   12.06    0.60
   0  -2  -3   11.74    0.54
   0  -2   3   11.61    0.55
   0  -2  -3   11.70    0.62
   0   2  -3   11.22    0.59
   0   2   3   11.86    0.50
   0   2  -3   11.91    0.55
   0   2   3   11.68    0.56
   0   2   3   12.65    0.58
   2  -2   3    7.37    0.43
   2  -2   3    7.37    0.48
  -2  -2  -3    8.28    0.59
  -2  -2  -3    7.99    0.52
   2  -2   3    7.85    0.49
   2   2   3    8.79    0.49
   2   2   3    8.31    0.56
  -2   2  -3    8.19    0.62
  -2   2  -3    8.62    0.47
  -4  -2  -3   47.72    1.43
  -4  -2  -3   46.40    1.39
   4  -2   3   47.89    1.39
   4  -2   3   47.10    1.41
   4  -2   3   48.80    1.39
   4   2   3   46.95    1.37
  -4   2  -3   48.28    1.45
  -4   2  -3   47.22    1.36
   4   2   3   46.87    1.40
  -6  -2  -3   31.44    1.11
   6  -2   3   31.68    1.04
  -6  -2  -3   30.49    1.05
   6  -2   3   30.86    1.03
   6  -2   3   31.81    1.04
  -6   2  -3   31.56    1.07
   6   2   3   30.71    1.04
  -6   2  -3   30.30    1.02
   6   2   3   30.11    1.05
  -6   2  -3   31.07    1.10
  -8  -2  -3    3.59    0.43
   8  -2   3    3.64    0.40
  -8  -2  -3    3.69    0.44
  -8   2  -3    3.29    0.39
  -8   2  -3    2.89    0.43
   8   2   3    3.72    0.41
  10  -2   3    7.45    0.54
 -10  -2  -3    8.97    0.61
 -10  -2  -3    7.48    0.61
 -10   2  -3    7.41    0.65
 -10   2  -3    8.44    0.59
  10   2   3    8.27    0.55
 -12  -2  -3   11.20    0.79
  12  -2   3   10.66    0.65
 -12  -2  -3    9.67    0.66
 -12   2  -3   10.04    0.75
 -12   2  -3   11.26    0.78
  12   2   3   11.00    0.68
 -14  -2  -3    1.08    0.44
  14  -2   3    0.93    0.31
 -14   2  -3    0.86    0.41
 -14   2  -3    0.68    0.41
  14   2   3    1.02    0.36
 -16  -2  -3    2.64    0.57
  16  -2   3    3.41    0.49
 -16  -2  -3    1.84    0.50
  16   2   3    2.83    0.48
 -16   2  -3    2.09    0.50
 -16   2  -3    2.58    0.53
  18  -2   3    0.53    0.34
 -18  -2  -3   -0.08    0.44
  18   2   3   -0.15    0.30
 -18   2  -3   -0.13    0.45
 -21  -3   3    0.07    0.41
 -21   3   3    0.10    0.31
  21   3  -3    0.30    0.35
 -19  -3   3    5.00    0.63
  19   3  -3    4.41    0.54
 -19   3   3    4.99    0.55
  17  -3  -3    2.17    0.35
 -17  -3   3    1.70    0.47
  17   3  -3    1.99    0.40
 -17   3   3    1.50    0.37
 -15  -3   3    7.12    0.66
  15  -3  -3    8.48    0.54
 -15   3   3    8.26    0.58
  15   3  -3    9.62    0.62
 -13  -3   3    1.83    0.41
  13  -3  -3    2.87    0.34
 -13   3   3    2.61    0.37
  13   3  -3    2.03    0.37
 -13   3   3    2.15    0.31
 -11  -3   3    6.08    0.50
  11  -3  -3    5.19    0.39
  11   3  -3    5.78    0.46
 -11   3   3    5.15    0.40
 -11   3   3    4.89    0.40
  -9  -3   3   33.51    1.11
   9  -3  -3   34.52    1.00
  -9   3   3   33.53    1.00
   9   3  -3   33.06    1.09
  -9   3   3   34.35    0.98
  -7  -3   3   19.56    0.78
   7  -3  -3   20.28    0.68
  -7   3   3   19.03    0.65
  -7   3   3   19.53    0.68
   7   3  -3   19.27    0.76
  -7   3   3   20.88    0.62
  -5  -3   3   30.06    0.97
   5  -3  -3   29.02    0.88
  -5   3   3   29.38    0.93
  -5   3   3   29.01    0.90
   5   3  -3   30.55    0.98
  -5   3   3   29.19    0.87
  -5   3   3   29.22    0.87
  -3  -3   3   17.75    0.70
   3  -3  -3   18.51    0.63
   3   3  -3   18.45    0.70
  -3   3   3   14.13    0.63
  -3   3   3   18.39    0.65
  -3   3   3   17.73    0.62
  -3   3   3   18.35    0.65
  -1  -3   3   45.37    1.32
   1  -3  -3   47.46    1.29
   1  -3  -3   47.00    1.33
  -1   3   3   48.08    1.33
  -1   3   3   50.32    1.36
  -1   3   3   46.14    1.28
   1   3  -3   47.17    1.33
  -1   3   3   48.09    1.35
  -1  -3  -3   23.97    0.88
  -1  -3  -3   22.95    0.82
   1  -3   3   24.27    0.87
   1  -3   3   23.50    0.85
   1   3   3   24.07    0.86
  -1   3  -3   23.25    0.80
  -1   3  -3   23.94    0.92
   1   3   3   23.70    0.82
   3  -3   3    5.53    0.45
   3  -3   3    4.87    0.41
   3  -3   3    4.94    0.42
  -3  -3  -3    4.89    0.43
  -3  -3  -3    5.21    0.47
   3   3   3    4.89    0.40
  -3   3  -3    5.22    0.42
  -3   3  -3    4.27    0.44
   3   3   3    4.65    0.42
  -5  -3  -3    9.47    0.57
   5  -3   3   10.03    0.53
  -5  -3  -3    9.35    0.60
   5  -3   3    9.17    0.53
   5  -3   3    9.27    0.49
   5   3   3    9.01    0.57
  -5   3  -3    9.31    0.59
   5   3   3    9.04    0.53
  -5   3  -3   10.44    0.58
  -5   3  -3    9.25    0.52
   7  -3   3    7.80    0.47
   7  -3   3    7.91    0.51
  -7  -3  -3    8.89    0.57
  -7  -3  -3    8.20    0.55
   7   3   3    8.16    0.56
  -7   3  -3    9.30    0.60
   7   3   3    8.05    0.50
  -7   3  -3    7.97    0.53
   9  -3   3   16.00    0.75
  -9  -3  -3   16.18    0.83
  -9  -3  -3   15.69    0.79
  -9   3  -3   17.32    0.75
   9   3   3   17.05    0.78
  -9   3  -3   16.76    0.82
 -11  -3  -3    1.47    0.38
  11  -3   3    1.84    0.35
 -11  -3  -3    1.75    0.44
 -11   3  -3    1.49    0.42
  11   3   3    2.22    0.39
 -11   3  -3    2.25    0.46
  13  -3   3    0.57    0.29
 -13  -3  -3    0.66    0.41
  13   3   3    0.36    0.29
 -13   3  -3    0.01    0.36
 -13   3  -3    1.01    0.40
 -15  -3  -3    0.30    0.39
  15  -3   3    0.81    0.30
 -15  -3  -3    0.47    0.42
 -15   3  -3    0.35    0.39
  15   3   3    0.33    0.30
 -15   3  -3   -0.13    0.36
 -17  -3  -3    2.42    0.57
  17  -3   3    2.58    0.47
 -17   3  -3    2.34    0.53
  17   3   3    2.01    0.47
 -17   3  -3    2.31    0.53
 -20  -4   3    1.83    0.53
 -20   4   3    2.51    0.45
  20   4  -3    2.54    0.49
 -18  -4   3    1.98    0.52
  18   4  -3    2.61    0.46
 -18   4   3    2.94    0.44
  16  -4  -3    7.71    0.51
 -16  -4   3    7.50    0.70
  16   4  -3    7.84    0.64
 -16   4   3    7.26    0.55
 -14  -4   3   13.69    0.81
  14  -4  -3   14.31    0.64
 -14   4   3   13.66    0.68
  14   4  -3   15.91    0.78
 -14   4   3   14.63    0.70
  12  -4  -3   16.20    0.63
 -12  -4   3   15.59    0.80
  12   4  -3   15.69    0.75
 -12   4   3   15.50    0.67
 -12   4   3   15.81    0.66
 -10  -4   3   34.11    1.17
  10  -4  -3   34.32    1.00
 -10   4   3   34.42    1.03
  10   4  -3   35.09    1.15
 -10   4   3   35.72    1.04
   8  -4  -3   46.10    1.24
  -8  -4   3   47.65    1.40
   8   4  -3   48.17    1.38
  -8   4   3   46.03    1.25
  -8   4   3   45.91    1.25
  -8   4   3   46.24    1.23
  -8   4   3   45.91    1.18
   6  -4  -3   39.32    1.07
  -6  -4   3   38.78    1.19
  -6   4   3   39.80    1.08
   6   4  -3   36.25    1.17
  -6   4   3   37.65    1.04
  -6   4   3   39.57    1.12
  -6   4   3   38.73    1.07
   4  -4  -3    0.58    0.21
  -4  -4   3    0.43    0.28
   4   4  -3    0.79    0.28
  -4   4   3    0.51    0.21
  -4   4   3    0.98    0.26
  -4   4   3    0.65    0.19
  -4   4   3    0.53    0.23
   2  -4  -3    6.11    0.46
  -2  -4   3    5.82    0.47
   2  -4  -3    6.27    0.40
   2   4  -3    6.02    0.45
  -2   4   3    5.57    0.39
  -2   4   3    6.16    0.43
   0  -4   3    5.16    0.42
   0  -4  -3    3.94    0.39
   0  -4   3    4.96    0.41
   0  -4  -3    4.60    0.38
   0   4  -3    4.22    0.37
   0   4   3    4.69    0.39
   0   4   3    4.06    0.35
   2  -4   3   43.92    1.25
  -2  -4  -3   42.90    1.27
   2  -4   3   42.00    1.29
  -2  -4  -3   43.11    1.32
   2   4   3   43.50    1.24
  -2   4  -3   42.25    1.23
  -2   4  -3   41.80    1.31
   2   4   3   42.05    1.27
   4  -4   3   19.18    0.74
  -4  -4  -3   20.08    0.77
   4  -4   3   20.68    0.78
  -4  -4  -3   18.53    0.81
   4  -4   3   18.16    0.70
  -4   4  -3   18.32    0.72
   4   4   3   19.21    0.76
  -4   4  -3   18.47    0.82
   4   4   3   18.26    0.77
  -4   4  -3   19.05    0.77
   6  -4   3   54.07    1.55
   6  -4   3   53.66    1.59
  -6  -4  -3   55.31    1.65
  -6  -4  -3   54.59    1.60
   6  -4   3   54.64    1.54
  -6   4  -3   54.55    1.53
   6   4   3   53.52    1.56
  -6   4  -3   56.63    1.63
   6   4   3   52.88    1.60
  -8  -4  -3   53.58    1.68
   8  -4   3   53.41    1.56
  -8  -4  -3   52.89    1.61
  -8   4  -3   53.36    1.54
   8   4   3   53.01    1.59
  -8   4  -3   50.56    1.61
  10  -4   3    3.05    0.39
 -10  -4  -3    2.11    0.42
 -10  -4  -3    3.07    0.50
 -10   4  -3    2.73    0.45
 -10   4  -3    2.15    0.42
  10   4   3    2.37    0.40
 -12  -4  -3    1.50    0.45
  12  -4   3    0.98    0.30
 -12  -4  -3    1.15    0.38
  12   4   3    1.06    0.34
 -12   4  -3    1.83    0.42
 -12   4  -3    0.98    0.38
 -14  -4  -3    1.40    0.48
  14  -4   3    2.16    0.40
 -14   4  -3    2.28    0.48
  14   4   3    1.92    0.41
 -14   4  -3    2.73    0.49
  16  -4   3    7.19    0.65
 -16  -4  -3    5.92    0.73
  16   4   3    6.23    0.66
 -16   4  -3    6.02    0.69
 -16   4  -3    6.79    0.71
 -18  -4  -3    3.35    0.66
  18  -4   3    4.57    0.58
 -18   4  -3    4.60    0.68
  18   4   3    5.38    0.66
 -18   4  -3    3.36    0.61
 -21  -5   3    0.56    0.44
 -21   5   3    0.00    0.29
  21   5  -3   -0.13    0.34
 -19  -5   3    4.05    0.62
  19   5  -3    3.44    0.53
 -19   5   3    3.16    0.43
 -17  -5   3    2.92    0.55
 -17   5   3    3.57    0.43
  17   5  -3    2.89    0.47
  15  -5  -3   33.95    1.09
 -15  -5   3   36.24    1.36
 -15   5   3   36.54    1.17
  15   5  -3   34.48    1.29
 -15   5   3   35.26    1.15
 -13  -5   3    2.80    0.47
  13  -5  -3    3.91    0.36
  13   5  -3    2.90    0.43
 -13   5   3    3.70    0.37
 -13   5   3    4.15    0.41
  11  -5  -3    4.96    0.35
 -11  -5   3    4.27    0.47
 -11   5   3    4.14    0.35
  11   5  -3    4.81    0.47
 -11   5   3    4.69    0.41
   9  -5  -3    5.60    0.34
  -9  -5   3    4.67    0.46
  -9   5   3    5.45    0.40
   9   5  -3    5.24    0.46
  -9   5   3    5.46    0.36
   7  -5  -3   15.96    0.57
  -7  -5   3   16.29    0.73
   7   5  -3   16.75    0.72
  -7   5   3   17.06    0.63
  -7   5   3   16.24    0.64
  -7   5   3   15.97    0.52
  -7   5   3   16.23    0.58
   5  -5  -3    6.43    0.40
  -5  -5   3    7.09    0.49
  -5   5   3    7.41    0.48
  -5   5   3    7.13    0.42
   5   5  -3    6.85    0.47
  -5   5   3    6.41    0.37
   3  -5  -3   25.24    0.79
  -3  -5   3   25.40    0.89
  -3   5   3   24.48    0.83
  -3   5   3   24.75    0.77
   3   5  -3   24.88    0.86
  -3   5   3   25.35    0.82
  -1  -5   3    5.43    0.43
   1  -5  -3    5.52    0.41
   1  -5  -3    5.22    0.41
  -1   5   3    5.28    0.41
  -1   5   3    5.27    0.39
  -1   5   3    5.45    0.45
   1   5  -3    5.43    0.43
  -1  -5  -3   47.54    1.34
   1  -5   3   46.76    1.37
  -1  -5  -3   46.13    1.39
   1  -5   3   48.77    1.37
   1   5   3   48.86    1.38
   1   5   3   47.24    1.33
  -1   5  -3   46.67    1.34
   3  -5   3   18.07    0.76
  -3  -5  -3   19.62    0.79
  -3  -5  -3   17.96    0.77
   3  -5   3   17.56    0.71
  -3   5  -3   18.99    0.72
  -3   5  -3   19.39    0.80
   3   5   3   19.29    0.79
  -3   5  -3   19.03    0.77
   3   5   3   18.54    0.73
  -5  -5  -3    3.84    0.43
   5  -5   3    3.35    0.37
   5  -5   3    4.06    0.33
   5  -5   3    3.86    0.36
  -5  -5  -3    3.63    0.39
   5   5   3    4.20    0.42
   5   5   3    3.92    0.38
  -5   5  -3    4.64    0.39
  -5   5  -3    3.56    0.41
  -7  -5  -3    0.17    0.26
   7  -5   3    0.04    0.20
  -7  -5  -3    0.18    0.26
   7  -5   3    0.20    0.22
   7   5   3    0.06    0.21
  -7   5  -3    0.48    0.23
   7   5   3    0.10    0.25
  -7   5  -3    0.32    0.27
  -9  -5  -3   46.70    1.52
  -9  -5  -3   45.86    1.56
   9  -5   3   49.79    1.45
  -9   5  -3   45.71    1.50
   9   5   3   46.68    1.50
  -9   5  -3   48.12    1.41
  -9   5  -3   45.61    1.51
 -11  -5  -3    8.13    0.68
  11  -5   3    7.89    0.55
 -11  -5  -3    7.94    0.71
  11   5   3    8.53    0.62
 -11   5  -3    7.24    0.64
 -11   5  -3    8.85    0.72
 -13  -5  -3    4.36    0.62
  13  -5   3    4.31    0.47
 -13  -5  -3    3.77    0.53
  13   5   3    3.27    0.48
 -13   5  -3    3.29    0.51
 -13   5  -3    3.23    0.52
  15  -5   3   -0.04    0.27
 -15  -5  -3    0.12    0.43
  15   5   3    0.17    0.32
 -15   5  -3    0.17    0.37
 -15   5  -3    0.48    0.39
  17  -5   3    0.32    0.31
 -17  -5  -3    1.35    0.51
  17   5   3   -0.21    0.31
 -17   5  -3   -0.03    0.39
 -17   5  -3    0.18    0.41
 -20  -6   3    6.94    0.79
 -20   6   3    9.13    0.59
  20   6  -3    8.84    0.79
 -18  -6   3    3.24    0.60
  18   6  -3    3.17    0.52
 -18   6   3    3.46    0.40
 -16  -6   3    3.04    0.56
 -16   6   3    2.67    0.37
  16   6  -3    2.49    0.44
 -14  -6   3   15.12    0.89
  14  -6  -3   15.96    0.64
  14   6  -3   15.34    0.82
 -14   6   3   15.90    0.66
 -14   6   3   15.09    0.74
  12  -6  -3   28.39    0.87
 -12  -6   3   26.77    1.11
 -12   6   3   28.40    0.89
  12   6  -3   28.37    1.08
 -12   6   3   28.71    0.99
 -10  -6   3   12.89    0.68
  10  -6  -3   12.92    0.50
  10   6  -3   13.27    0.68
 -10   6   3   13.59    0.63
 -10   6   3   12.35    0.51
  -8  -6   3    5.47    0.45
   8  -6  -3    5.33    0.33
  -8   6   3    5.76    0.42
   8   6  -3    4.62    0.44
  -8   6   3    5.42    0.33
  -6  -6   3   69.94    1.96
   6  -6  -3   75.32    1.79
  -6   6   3   71.92    1.81
  -6   6   3   72.63    1.73
   6   6  -3   72.85    1.96
  -6   6   3   75.97    1.85
   4  -6  -3   20.95    0.67
  -4  -6   3   18.52    0.79
  -4   6   3   19.13    0.63
   4   6  -3   20.45    0.78
  -4   6   3   19.79    0.70
  -4   6   3   18.87    0.69
  -2  -6   3   18.26    0.73
   2  -6  -3   18.44    0.71
   2  -6  -3   17.14    0.66
  -2   6   3   20.04    0.71
   2   6  -3   17.52    0.74
  -2   6   3   18.00    0.69
  -2   6   3   18.06    0.63
   0  -6  -3   14.46    0.63
   0  -6   3   13.80    0.64
   0  -6  -3   12.21    0.60
   0   6   3   14.78    0.62
   0   6  -3   13.51    0.64
   0   6   3   14.30    0.59
   0   6   3   12.48    0.64
  -2  -6  -3    7.61    0.52
   2  -6   3    7.83    0.49
  -2  -6  -3    8.09    0.52
   2  -6   3    7.09    0.50
   2   6   3    6.25    0.46
  -2   6  -3    7.65    0.48
  -2   6  -3    8.15    0.54
  -2   6  -3    7.06    0.54
   2   6   3    6.39    0.49
   4  -6   3   17.57    0.73
   4  -6   3   20.35    0.77
  -4  -6  -3   18.81    0.80
   4  -6   3   20.26    0.75
  -4  -6  -3   20.02    0.84
  -4   6  -3   20.64    0.81
  -4   6  -3   19.52    0.73
   4   6   3   19.64    0.75
   4   6   3   18.85    0.81
  -6  -6  -3   77.46    2.10
   6  -6   3   71.97    2.13
  -6  -6  -3   79.24    2.17
   6  -6   3   75.62    2.05
   6   6   3   74.74    2.06
   6   6   3   74.13    2.12
  -6   6  -3   77.83    2.01
  -6   6  -3   77.89    2.12
  -6   6  -3   81.57    2.08
  -8  -6  -3    1.63    0.37
  -8  -6  -3    1.25    0.36
   8  -6   3    1.50    0.31
   8  -6   3    1.40    0.28
   8   6   3    1.10    0.29
  -8   6  -3    1.58    0.32
  -8   6  -3    1.30    0.37
  -8   6  -3    0.89    0.35
 -10  -6  -3   13.47    0.77
 -10  -6  -3   11.29    0.80
  10  -6   3   14.40    0.72
  10   6   3   13.03    0.73
 -10   6  -3   13.15    0.82
 -10   6  -3   12.50    0.78
  12  -6   3   32.86    1.16
 -12  -6  -3   31.35    1.35
 -12  -6  -3   32.88    1.27
 -12   6  -3   31.08    1.28
 -12   6  -3   32.48    1.28
  12   6   3   33.05    1.27
  14  -6   3   12.18    0.71
 -14  -6  -3   12.47    0.90
 -14   6  -3   11.83    0.83
  14   6   3   11.38    0.74
 -14   6  -3   12.48    0.83
 -16  -6  -3    3.56    0.65
  16  -6   3    3.80    0.48
 -16   6  -3    3.01    0.57
 -16   6  -3    2.83    0.56
  16   6   3    3.57    0.54
  18  -6   3   -0.22    0.30
 -18  -6  -3   -0.10    0.45
 -18   6  -3    0.49    0.43
  18   6   3    0.48    0.37
 -18   6  -3   -0.46    0.40
 -21  -7   3    8.81    0.89
  21   7  -3   10.04    0.79
 -21   7   3    9.83    0.60
 -19  -7   3    0.77    0.49
  19   7  -3    0.02    0.34
 -19   7   3    0.60    0.29
 -17  -7   3    4.07    0.62
 -17   7   3    5.49    0.45
  17   7  -3    5.73    0.62
 -15  -7   3    5.14    0.62
 -15   7   3    5.64    0.44
 -15   7   3    7.33    0.58
  15   7  -3    6.31    0.62
  13  -7  -3   13.63    0.55
 -13  -7   3   14.52    0.84
  13   7  -3   14.22    0.78
 -13   7   3   12.94    0.57
 -13   7   3   13.03    0.70
  11  -7  -3   31.67    0.93
 -11  -7   3   29.98    1.19
 -11   7   3   35.71    0.97
 -11   7   3   33.98    1.10
  11   7  -3   35.57    1.22
   9  -7  -3   10.01    0.41
  -9  -7   3   10.90    0.64
   9   7  -3    8.70    0.58
  -9   7   3    9.54    0.41
  -9   7   3   10.03    0.53
  -7  -7   3    8.51    0.56
   7  -7  -3    7.77    0.38
   7   7  -3    8.29    0.54
  -7   7   3    8.03    0.39
  -7   7   3    8.78    0.43
  -7   7   3    8.52    0.49
   5  -7  -3   12.77    0.49
  -5  -7   3   14.03    0.68
   5   7  -3   12.62    0.63
  -5   7   3   12.46    0.46
  -5   7   3   13.74    0.53
  -5   7   3   12.93    0.54
  -3  -7   3    8.38    0.53
   3  -7  -3    9.42    0.47
   3   7  -3   10.30    0.56
  -3   7   3    9.73    0.50
  -3   7   3    9.84    0.49
  -3   7   3    9.53    0.44
   1  -7  -3    7.25    0.47
   1  -7  -3    7.35    0.50
  -1  -7   3    7.35    0.49
  -1   7   3    6.53    0.48
  -1   7   3    7.90    0.43
   1   7  -3    8.09    0.53
   1  -7   3   54.31    1.51
  -1  -7  -3   55.12    1.52
  -1  -7  -3   52.96    1.52
   1   7   3   55.45    1.56
  -1   7  -3   54.55    1.51
   1   7   3   53.78    1.48
   3  -7   3   40.00    1.21
  -3  -7  -3   39.91    1.24
   3  -7   3   39.49    1.25
  -3  -7  -3   42.75    1.30
   3   7   3   42.27    1.22
  -3   7  -3   40.55    1.24
  -3   7  -3   40.22    1.28
  -3   7  -3   40.88    1.19
   3   7   3   40.33    1.28
   5  -7   3   23.13    0.88
   5  -7   3   29.75    0.99
  -5  -7  -3   27.88    0.99
  -5  -7  -3   27.34    1.01
  -5   7  -3   24.08    0.92
   5   7   3   28.82    1.02
   5   7   3   28.43    0.96
  -5   7  -3   28.34    1.04
  -5   7  -3   28.58    0.91
   7  -7   3   46.14    1.38
  -7  -7  -3   45.56    1.45
   7  -7   3   43.62    1.37
  -7  -7  -3   47.57    1.51
  -7   7  -3   43.65    1.43
   7   7   3   43.80    1.41
   7   7   3   46.09    1.47
  -7   7  -3   44.89    1.33
  -7   7  -3   44.63    1.43
   9  -7   3   25.19    0.95
  -9  -7  -3   26.03    1.04
  -9  -7  -3   25.77    1.09
  -9   7  -3   24.51    1.07
   9   7   3   24.88    1.01
  -9   7  -3   25.49    1.05
  11  -7   3    2.34    0.37
 -11  -7  -3    1.30    0.42
 -11  -7  -3    1.34    0.44
  11   7   3    1.90    0.39
 -11   7  -3    1.47    0.44
 -11   7  -3    2.00    0.43
 -13  -7  -3    0.34    0.40
 -13  -7  -3    0.20    0.34
  13  -7   3    0.84    0.30
  13   7   3    0.54    0.29
 -13   7  -3    2.01    0.46
 -13   7  -3    0.43    0.37
  15  -7   3    6.38    0.58
 -15  -7  -3    5.20    0.71
  15   7   3    6.08    0.66
 -15   7  -3    6.01    0.66
 -15   7  -3    7.22    0.75
  17  -7   3    1.67    0.39
 -17  -7  -3    0.01    0.47
 -17   7  -3    1.43    0.48
 -17   7  -3    0.85    0.45
  17   7   3    0.69    0.36
 -20  -8   3    3.21    0.63
 -20   8   3    3.90    0.41
  20   8  -3    4.79    0.64
 -18  -8   3    0.24    0.47
 -18   8   3    0.05    0.25
  18   8  -3   -0.20    0.33
 -16  -8   3   10.41    0.82
 -16   8   3   12.61    0.72
 -16   8   3   10.95    0.55
  16   8  -3   10.50    0.74
 -14  -8   3   31.64    1.30
 -14   8   3   31.05    1.10
  14   8  -3   29.64    1.20
 -14   8   3   29.54    0.93
 -12  -8   3    7.00    0.63
  12  -8  -3    7.10    0.37
 -12   8   3    7.07    0.40
 -12   8   3    7.30    0.58
  12   8  -3    6.96    0.62
  10  -8  -3    3.65    0.28
 -10  -8   3    3.40    0.45
 -10   8   3    3.81    0.39
  10   8  -3    3.98    0.46
 -10   8   3    3.87    0.30
  -8  -8   3   27.71    1.04
   8  -8  -3   27.39    0.77
  -8   8   3   27.28    0.81
   8   8  -3   28.09    1.01
  -8   8   3   27.42    0.93
  -8   8   3   26.78    0.78
   6  -8  -3   93.34    2.20
  -6  -8   3   92.11    2.45
  -6   8   3   92.07    2.24
  -6   8   3   94.93    2.26
  -6   8   3   91.12    2.29
   6   8  -3   95.78    2.45
   6   8  -3   92.95    2.08
  -4  -8   3    5.16    0.45
   4  -8  -3    4.38    0.35
   4   8  -3    5.68    0.45
  -4   8   3    5.93    0.32
  -4   8   3    6.03    0.41
  -4   8   3    5.12    0.39
  -2  -8   3   10.11    0.54
   2  -8  -3    9.56    0.51
  -2   8   3    9.34    0.51
  -2   8   3    9.70    0.53
   2   8  -3    8.92    0.58
  -2   8   3    9.45    0.45
   0  -8   3   45.08    1.34
   0  -8  -3   45.91    1.31
   0  -8  -3   46.03    1.34
   0   8  -3   47.02    1.34
   0   8   3   43.99    1.34
   0   8   3   45.47    1.27
   0   8   3   46.03    1.33
  -2  -8  -3   14.78    0.69
  -2  -8  -3   14.72    0.65
   2  -8   3   14.76    0.64
   2   8   3   15.08    0.62
   2   8   3   13.59    0.69
  -2   8  -3   14.43    0.63
  -2   8  -3   14.43    0.66
  -4  -8  -3    3.22    0.40
  -4  -8  -3    4.36    0.44
   4  -8   3    3.38    0.35
   4  -8   3    3.29    0.37
  -4   8  -3    2.92    0.32
   4   8   3    3.35    0.35
   4   8   3    3.67    0.41
  -4   8  -3    3.47    0.39
  -6  -8  -3    3.65    0.43
   6  -8   3    4.67    0.36
  -6  -8  -3    3.98    0.47
   6  -8   3    5.07    0.46
  -6   8  -3    3.59    0.43
  -6   8  -3    4.43    0.47
   6   8   3    5.46    0.48
  -6   8  -3    4.23    0.39
   6   8   3    4.43    0.47
  -8  -8  -3   30.47    1.17
  -8  -8  -3   29.66    1.19
   8  -8   3   31.85    1.09
  -8   8  -3   30.99    1.18
  -8   8  -3   33.43    1.17
   8   8   3   30.46    1.13
 -10  -8  -3    7.12    0.68
  10  -8   3    6.90    0.54
 -10  -8  -3    8.07    0.62
 -10   8  -3    7.93    0.68
 -10   8  -3    6.04    0.60
  10   8   3    7.28    0.57
  12  -8   3    0.26    0.26
 -12  -8  -3    0.31    0.34
 -12  -8  -3    0.23    0.40
 -12   8  -3    0.54    0.39
  12   8   3   -0.05    0.28
 -12   8  -3    0.39    0.36
  14  -8   3    4.37    0.49
 -14  -8  -3    5.32    0.69
  14   8   3    3.46    0.52
 -14   8  -3    3.47    0.57
 -14   8  -3    2.90    0.52
  16  -8   3    5.19    0.54
 -16  -8  -3    4.91    0.73
 -16   8  -3    5.93    0.71
  16   8   3    5.54    0.66
 -16   8  -3    4.81    0.64
  18  -8   3    6.97    0.65
  18   8   3    6.13    0.73
 -18   8  -3    7.05    0.78
 -18   8  -3    8.23    0.82
 -21  -9   3    0.49    0.46
 -21   9   3    0.15    0.25
  21   9  -3   -0.10    0.36
 -19  -9   3    8.21    0.85
 -19   9   3    8.48    0.48
  19   9  -3    8.17    0.79
 -17  -9   3    3.82    0.63
 -17   9   3    4.88    0.38
 -17   9   3    5.76    0.57
  17   9  -3    5.90    0.64
 -15  -9   3   21.39    1.09
 -15   9   3   22.60    0.94
  15   9  -3   19.40    0.99
 -15   9   3   20.43    0.71
 -13  -9   3    8.22    0.73
 -13   9   3    9.34    0.64
 -13   9   3    8.03    0.41
  13   9  -3    7.91    0.64
 -11  -9   3    4.77    0.56
  11  -9  -3    5.69    0.31
 -11   9   3    6.13    0.36
  11   9  -3    5.28    0.54
 -11   9   3    6.89    0.53
 -11   9   3    5.74    0.33
  -9  -9   3    4.37    0.50
   9  -9  -3    4.83    0.28
  -9   9   3    4.55    0.42
   9   9  -3    4.58    0.48
  -9   9   3    4.60    0.29
  -9   9   3    4.92    0.33
  -7  -9   3   10.92    0.65
   7  -9  -3   11.58    0.43
  -7   9   3   11.61    0.45
   7   9  -3   10.83    0.60
  -7   9   3   10.97    0.58
  -7   9   3   11.60    0.45
   5  -9  -3   14.22    0.52
  -5  -9   3   14.44    0.68
  -5   9   3   14.46    0.55
  -5   9   3   13.51    0.45
  -5   9   3   14.19    0.64
   5   9  -3   14.02    0.69
  -5   9   3   13.00    0.53
   5   9  -3   14.01    0.47
  -3  -9   3    4.09    0.40
   3  -9  -3    4.49    0.35
   3   9  -3    4.69    0.33
  -3   9   3    4.16    0.30
  -3   9   3    4.37    0.36
   3   9  -3    4.14    0.42
  -3   9   3    4.74    0.39
  -1  -9   3   45.18    1.32
   1  -9  -3   44.58    1.26
   1  -9  -3   41.10    1.25
   1   9  -3   43.58    1.21
  -1   9   3   45.56    1.29
  -1   9   3   43.06    1.20
   1   9  -3   44.70    1.32
  -1   9   3   42.28    1.25
   1  -9   3   35.58    1.13
  -1  -9  -3   35.20    1.15
  -1  -9  -3   36.34    1.13
  -1   9  -3   36.73    1.14
   1   9   3   36.82    1.10
   1   9   3   38.15    1.19
  -1   9  -3   35.56    1.13
  -1   9  -3   38.57    1.13
   3  -9   3   35.52    1.11
   3  -9   3   37.14    1.17
  -3  -9  -3   35.04    1.19
  -3  -9  -3   37.06    1.19
   3   9   3   36.80    1.20
  -3   9  -3   36.87    1.17
   3   9   3   34.28    1.13
  -3   9  -3   38.93    1.12
   5  -9   3    6.25    0.47
  -5  -9  -3    5.30    0.50
  -5  -9  -3    6.00    0.51
  -5   9  -3    5.60    0.47
   5   9   3    6.43    0.51
   5   9   3    5.04    0.46
  -5   9  -3    5.21    0.39
  -5   9  -3    5.96    0.52
  -5   9  -3    5.67    0.50
  -7  -9  -3   23.85    0.98
   7  -9   3   24.17    0.92
  -7  -9  -3   25.09    1.03
   7   9   3   23.92    1.03
  -7   9  -3   23.70    1.00
  -7   9  -3   21.86    0.96
  -7   9  -3   25.50    0.87
   7   9   3   24.08    0.97
   9  -9   3   30.50    1.08
  -9  -9  -3   30.51    1.23
  -9  -9  -3   29.90    1.19
  -9   9  -3   29.76    1.15
  -9   9  -3   30.92    1.18
   9   9   3   30.97    1.18
 -11  -9  -3    2.18    0.50
  11  -9   3    2.86    0.39
 -11  -9  -3    2.07    0.46
 -11   9  -3    2.17    0.44
  11   9   3    2.19    0.42
 -11   9  -3    1.56    0.41
 -13  -9  -3   13.20    0.84
 -13  -9  -3   11.66    0.90
  13  -9   3   12.34    0.67
 -13   9  -3   11.12    0.82
  13   9   3   10.82    0.76
 -13   9  -3   13.05    0.83
 -15  -9  -3    1.34    0.51
  15  -9   3    0.50    0.29
 -15   9  -3    1.64    0.49
 -15   9  -3   -0.03    0.41
  15   9   3    0.64    0.36
  17  -9   3   15.07    0.81
 -17   9  -3   15.66    1.01
  17   9   3   15.12    0.96
 -17   9  -3   14.20    0.96
 -20 -10   3    0.50    0.50
 -20  10   3    0.41    0.23
  20  10  -3    1.07    0.44
 -18 -10   3    3.17    0.64
  18  10  -3    4.02    0.59
 -18  10   3    4.05    0.33
 -16 -10   3    3.48    0.61
 -16  10   3    2.98    0.28
  16  10  -3    1.58    0.42
 -16  10   3    3.45    0.46
 -14 -10   3    6.98    0.71
 -14  10   3    5.13    0.34
  14  10  -3    5.73    0.60
 -14  10   3    5.72    0.55
 -12 -10   3   -0.15    0.36
 -12  10   3    0.26    0.17
 -12  10   3    0.29    0.17
  12  10  -3    0.15    0.27
 -12  10   3    0.72    0.30
  10 -10  -3    3.10    0.23
 -10 -10   3    2.56    0.43
 -10  10   3    2.87    0.24
 -10  10   3    2.83    0.37
  10  10  -3    2.37    0.39
 -10  10   3    3.08    0.25
  -8 -10   3    9.31    0.60
   8 -10  -3    8.04    0.34
  -8  10   3    8.04    0.36
  -8  10   3    8.95    0.39
   8  10  -3    7.93    0.55
  -8  10   3    8.96    0.55
  -6 -10   3    3.28    0.41
   6 -10  -3    3.80    0.28
   6  10  -3    3.59    0.23
  -6  10   3    3.70    0.30
  -6  10   3    3.74    0.39
  -6  10   3    3.71    0.29
   6  10  -3    3.42    0.42
   4 -10  -3   24.66    0.78
  -4 -10   3   24.51    0.92
  -4  10   3   24.65    0.79
   4  10  -3   24.62    0.92
  -4  10   3   24.98    0.80
   4  10  -3   23.97    0.72
  -4  10   3   24.81    0.71
   2 -10  -3    4.05    0.37
  -2 -10   3    4.57    0.41
  -2  10   3    3.93    0.35
  -2  10   3    3.46    0.36
   2  10  -3    4.21    0.34
  -2  10   3    4.27    0.32
   2  10  -3    4.71    0.44
   0 -10  -3    8.11    0.49
   0 -10  -3    8.26    0.50
   0 -10   3    8.38    0.49
   0  10   3    8.64    0.46
   0  10  -3    7.83    0.51
   0  10   3    8.29    0.53
   0  10  -3    8.70    0.51
  -2 -10  -3    9.99    0.57
   2 -10   3    9.87    0.55
  -2 -10  -3    9.19    0.57
   2  10   3   10.62    0.54
  -2  10  -3   10.95    0.54
  -2  10  -3   10.05    0.55
   2  10   3   10.83    0.61
   4 -10   3   42.99    1.31
  -4 -10  -3   41.30    1.36
  -4 -10  -3   43.26    1.33
  -4  10  -3   42.90    1.30
   4  10   3   42.19    1.36
   4  10   3   40.57    1.28
  -4  10  -3   42.57    1.32
  -4  10  -3   40.24    1.22
  -6 -10  -3    0.15    0.27
  -6 -10  -3    0.47    0.31
   6 -10   3    0.12    0.23
  -6  10  -3    0.76    0.24
  -6  10  -3    0.54    0.30
   6  10   3   -0.02    0.25
   6  10   3    0.60    0.27
  -6  10  -3    0.37    0.28
   8 -10   3   17.77    0.79
  -8 -10  -3   18.91    0.88
  -8 -10  -3   18.54    0.94
  -8  10  -3   16.22    0.86
  -8  10  -3   17.93    0.91
   8  10   3   16.41    0.82
  10 -10   3    2.54    0.37
 -10 -10  -3    2.47    0.48
 -10 -10  -3    3.48    0.54
 -10  10  -3    2.43    0.46
  10  10   3    2.18    0.43
 -10  10  -3    2.24    0.46
  12 -10   3    4.74    0.48
 -12 -10  -3    4.78    0.60
 -12 -10  -3    5.64    0.66
 -12  10  -3    4.53    0.55
  12  10   3    4.14    0.54
 -12  10  -3    4.45    0.60
  14 -10   3    2.65    0.40
  14  10   3    2.04    0.46
 -14  10  -3    2.22    0.48
 -14  10  -3    3.18    0.54
  16 -10   3    1.80    0.38
 -16  10  -3    2.13    0.50
 -16  10  -3    2.15    0.53
  16  10   3    1.31    0.43
 -19 -11   3    1.46    0.53
 -19  11   3    1.37    0.21
  19  11  -3    1.43    0.45
 -17 -11   3    4.21    0.69
 -17  11   3    5.48    0.58
  17  11  -3    5.37    0.66
 -15 -11   3    1.14    0.48
 -15  11   3    1.57    0.38
 -15  11   3    1.29    0.19
  15  11  -3    1.35    0.40
 -13 -11   3    6.53    0.71
 -13  11   3    5.72    0.55
  13  11  -3    5.95    0.63
 -13  11   3    6.37    0.31
 -11 -11   3    5.04    0.60
  11  11  -3    5.38    0.57
 -11  11   3    5.16    0.28
 -11  11   3    5.04    0.50
 -11  11   3    4.42    0.28
  -9 -11   3    0.84    0.37
   9 -11  -3    0.99    0.16
  -9  11   3    1.36    0.29
   9  11  -3    0.65    0.29
  -9  11   3    0.90    0.17
  -9  11   3    0.91    0.18
  -7 -11   3    1.61    0.34
   7 -11  -3    1.86    0.20
  -7  11   3    1.71    0.31
  -7  11   3    1.77    0.22
  -7  11   3    1.75    0.21
   7  11  -3    1.82    0.34
   5 -11  -3    5.85    0.35
  -5 -11   3    5.29    0.49
   5  11  -3    5.37    0.32
  -5  11   3    6.06    0.28
  -5  11   3    5.27    0.36
  -5  11   3    5.32    0.45
   5  11  -3    6.78    0.49
  -5  11   3    5.96    0.36
   3 -11  -3   49.83    1.33
  -3 -11   3   47.11    1.46
  -3  11   3   49.77    1.28
   3  11  -3   47.69    1.27
  -3  11   3   49.52    1.37
  -3  11   3   49.30    1.35
   3  11  -3   48.93    1.48
  -1 -11   3   43.46    1.33
   1 -11  -3   44.30    1.27
  -1  11   3   42.76    1.22
   1  11  -3   43.76    1.22
   1  11  -3   43.70    1.33
  -1  11   3   44.90    1.30
  -1  11   3   42.71    1.27
  -1 -11  -3   23.55    0.86
   1 -11   3   22.81    0.83
  -1 -11  -3   23.71    0.87
   1  11   3   22.56    0.81
   1  11   3   22.66    0.86
   1  11   3   24.32    0.86
  -1  11  -3   22.50    0.85
  -1  11  -3   21.80    0.83
  -1  11  -3   21.14    0.82
  -3 -11  -3   13.28    0.68
  -3 -11  -3   13.09    0.64
   3  11   3   12.38    0.61
  -3  11  -3   10.60    0.63
   3  11   3   13.16    0.69
  -3  11  -3   12.63    0.61
  -3  11  -3   12.27    0.59
  -5 -11  -3   21.80    0.88
  -5 -11  -3   19.56    0.87
   5 -11   3   19.08    0.81
  -5  11  -3   18.89    0.73
  -5  11  -3   19.30    0.87
   5  11   3   21.06    0.86
   5  11   3   20.03    0.89
  -7 -11  -3    7.48    0.65
  -7 -11  -3    8.56    0.64
   7 -11   3    9.77    0.60
  -7  11  -3    8.13    0.63
   7  11   3    8.37    0.69
  -7  11  -3    9.00    0.63
   7  11   3    8.88    0.62
   9 -11   3    0.78    0.28
  -9 -11  -3    0.71    0.38
  -9 -11  -3    1.87    0.46
  -9  11  -3    0.60    0.37
  -9  11  -3    0.68    0.37
   9  11   3    0.68    0.33
  11 -11   3   21.05    0.88
 -11 -11  -3   20.48    1.03
 -11  11  -3   20.71    1.05
  11  11   3   19.98    1.00
 -11  11  -3   21.44    0.98
  13 -11   3    1.47    0.32
 -13 -11  -3    1.46    0.46
 -13  11  -3    1.21    0.41
 -13  11  -3    1.50    0.44
  13  11   3    1.15    0.40
  15 -11   3    3.32    0.43
 -15  11  -3    3.31    0.60
 -15  11  -3    2.85    0.54
  15  11   3    2.61    0.51
 -17  11  -3    0.20    0.43
  17  11   3   -0.13    0.32
 -17  11  -3    1.02    0.46
 -20 -12   3    4.61    0.75
  20  12  -3    5.29    0.72
 -18 -12   3    5.72    0.79
  18  12  -3    5.49    0.69
 -18  12   3    5.91    0.63
 -16 -12   3    0.59    0.45
  16  12  -3   -0.17    0.31
 -16  12   3    0.04    0.31
 -14 -12   3    7.63    0.77
 -14  12   3    7.98    0.63
  14  12  -3    6.69    0.67
 -12 -12   3   16.65    0.98
 -12  12   3   18.12    0.86
  12  12  -3   17.90    0.93
  10 -12  -3    0.66    0.14
 -10 -12   3    0.98    0.38
 -10  12   3    0.89    0.16
  10  12  -3    0.78    0.35
 -10  12   3    0.60    0.15
 -10  12   3    0.73    0.32
  -8 -12   3   10.38    0.70
   8 -12  -3    9.25    0.38
   8  12  -3    9.78    0.66
  -8  12   3    9.91    0.62
  -8  12   3    9.67    0.40
  -8  12   3   10.12    0.40
  -6 -12   3   24.38    0.98
   6 -12  -3   24.84    0.75
   6  12  -3   24.93    1.00
  -6  12   3   25.54    0.77
  -6  12   3   25.83    0.78
  -6  12   3   25.75    0.94
   6  12  -3   25.54    0.68
  -4 -12   3    4.29    0.43
   4 -12  -3    5.51    0.35
  -4  12   3    4.67    0.36
   4  12  -3    4.69    0.34
   4  12  -3    5.24    0.48
  -4  12   3    4.52    0.28
  -4  12   3    4.55    0.38
   2 -12  -3   18.57    0.69
  -2 -12   3   19.06    0.80
  -2  12   3   19.61    0.72
   2  12  -3   19.19    0.69
  -2  12   3   18.88    0.72
   2  12  -3   17.73    0.76
  -2  12   3   17.86    0.65
   0 -12  -3    9.28    0.52
   0 -12   3    8.76    0.54
   0 -12  -3    9.41    0.52
   0  12   3    8.75    0.54
   0  12  -3    9.06    0.54
   0  12  -3    8.64    0.54
   0  12   3    9.15    0.49
   0  12  -3    8.15    0.50
  -2 -12  -3   18.39    0.78
  -2 -12  -3   18.26    0.77
  -2  12  -3   17.40    0.76
  -2  12  -3   18.91    0.74
   2  12   3   18.43    0.81
   2  12   3   18.27    0.74
  -4 -12  -3    5.04    0.48
  -4 -12  -3    5.72    0.52
  -4  12  -3    4.95    0.41
   4  12   3    4.80    0.51
   4  12   3    5.20    0.48
  -4  12  -3    4.29    0.46
   6 -12   3   97.67    2.56
  -6 -12  -3   99.13    2.65
  -6 -12  -3   96.25    2.68
  -6  12  -3   95.41    2.57
   6  12   3   96.13    2.61
   6  12   3  100.13    2.72
  -8 -12  -3    6.45    0.64
   8 -12   3    6.94    0.55
  -8  12  -3    7.50    0.66
   8  12   3    7.24    0.63
 -10 -12  -3    5.69    0.64
  10 -12   3    5.96    0.52
 -10  12  -3    6.28    0.61
 -10  12  -3    7.18    0.69
  10  12   3    6.32    0.62
  12 -12   3   10.54    0.62
 -12 -12  -3   10.50    0.79
 -12  12  -3   10.16    0.85
  12  12   3   10.34    0.75
 -12  12  -3   10.50    0.75
  14 -12   3    8.27    0.59
 -14  12  -3    7.89    0.71
 -14  12  -3    7.50    0.76
  14  12   3    8.11    0.77
 -16  12  -3    0.42    0.43
 -16  12  -3    0.51    0.43
  16  12   3    0.06    0.37
 -19 -13   3    1.03    0.54
  19  13  -3    0.74    0.42
 -17 -13   3    0.63    0.48
  17  13  -3    0.57    0.40
 -17  13   3    0.15    0.31
 -15 -13   3    3.15    0.60
 -15  13   3    3.07    0.48
  15  13  -3    3.19    0.51
 -13 -13   3   11.76    0.87
 -13  13   3   10.39    0.70
  13  13  -3    9.83    0.71
 -11 -13   3    2.92    0.51
 -11  13   3    2.93    0.45
  11  13  -3    2.85    0.47
   9 -13  -3    2.14    0.19
  -9 -13   3    2.46    0.45
  -9  13   3    2.21    0.40
  -9  13   3    1.95    0.20
   9  13  -3    1.18    0.38
  -9  13   3    2.08    0.20
  -7 -13   3    3.37    0.45
   7 -13  -3    3.22    0.26
   7  13  -3    3.40    0.46
  -7  13   3    2.86    0.40
  -7  13   3    3.34    0.27
  -7  13   3    3.56    0.29
  -5 -13   3   29.79    1.10
   5 -13  -3   29.59    0.88
  -5  13   3   30.70    0.92
  -5  13   3   28.96    1.03
   5  13  -3   29.78    1.09
  -5  13   3   29.42    0.90
   5  13  -3   29.73    0.83
   3 -13  -3    6.44    0.42
  -3 -13   3    6.12    0.51
  -3  13   3    7.24    0.38
   3  13  -3    6.62    0.41
  -3  13   3    6.48    0.44
  -3  13   3    6.30    0.42
   3  13  -3    6.67    0.52
  -1 -13   3   17.61    0.76
   1 -13  -3   17.19    0.70
  -1  13   3   18.05    0.75
   1  13  -3   15.30    0.68
  -1  13   3   17.82    0.73
   1  13  -3   19.01    0.78
  -1  13   3   18.08    0.66
  -1 -13  -3   15.67    0.70
  -1  13  -3   14.90    0.67
   1  13   3   14.77    0.65
   1  13   3   15.37    0.72
  -1  13  -3   14.47    0.68
  -3 -13  -3    0.97    0.30
   3  13   3    1.96    0.30
  -3  13  -3    1.18    0.27
   3  13   3    1.44    0.35
  -3  13  -3    1.04    0.28
   5 -13   3    0.45    0.29
  -5 -13  -3    0.39    0.28
   5  13   3    0.64    0.28
  -5  13  -3    0.58    0.24
   5  13   3    1.04    0.35
  -5  13  -3    0.74    0.33
  -7 -13  -3    4.37    0.55
   7 -13   3    3.46    0.44
   7  13   3    4.23    0.51
  -7  13  -3    4.37    0.53
   7  13   3    4.15    0.56
  -9 -13  -3    0.70    0.38
   9 -13   3    0.80    0.30
   9  13   3    0.23    0.31
  -9  13  -3    0.92    0.41
  11 -13   3    2.11    0.37
 -11 -13  -3    1.63    0.45
  11  13   3    2.63    0.48
 -11  13  -3    2.04    0.45
 -11  13  -3    2.58    0.51
  13 -13   3    4.09    0.47
  13  13   3    3.81    0.57
 -13  13  -3    3.90    0.57
 -13  13  -3    5.26    0.65
  15 -13   3    1.73    0.35
 -15  13  -3    1.88    0.51
 -15  13  -3    1.87    0.48
  15  13   3    2.54    0.53
 -17  13  -3    0.41    0.46
  17  13   3    0.44    0.41
  20  14  -3    5.01    0.71
 -18 -14   3    3.51    0.66
  18  14  -3    3.02    0.56
 -18  14   3    4.46    0.58
 -16 -14   3    2.37    0.56
  16  14  -3    1.63    0.46
 -16  14   3    1.70    0.43
 -14 -14   3    2.80    0.55
 -14  14   3    3.17    0.48
  14  14  -3    3.04    0.53
 -12 -14   3   22.27    1.11
  12  14  -3   21.24    1.05
 -12  14   3   20.65    0.94
 -10 -14   3    1.41    0.43
  10  14  -3    1.22    0.38
 -10  14   3    0.99    0.34
   8 -14  -3   25.44    0.73
  -8 -14   3   25.12    1.11
   8  14  -3   26.49    1.08
  -8  14   3   26.18    0.75
  -8  14   3   25.32    1.02
  -8  14   3   25.52    0.75
  -6 -14   3    9.58    0.68
   6 -14  -3   10.40    0.45
   6  14  -3   10.80    0.65
  -6  14   3    9.62    0.63
  -6  14   3   11.09    0.48
  -6  14   3    9.99    0.47
   4 -14  -3   24.21    0.80
  -4 -14   3   23.32    0.98
   4  14  -3   24.65    0.77
  -4  14   3   24.14    0.93
  -4  14   3   23.86    0.82
   4  14  -3   26.28    0.99
  -4  14   3   23.74    0.83
   2 -14  -3   17.64    0.69
  -2 -14   3   17.24    0.78
  -2  14   3   17.43    0.71
  -2  14   3   17.01    0.63
   2  14  -3   16.56    0.65
   2  14  -3   15.72    0.77
  -2  14   3   17.33    0.71
   0 -14  -3   12.28    0.62
   0  14   3   13.08    0.66
   0  14  -3   12.88    0.65
   0  14  -3   13.18    0.62
   0  14   3   13.53    0.59
  -2 -14  -3    7.32    0.54
  -2  14  -3    8.27    0.57
   2  14   3    7.76    0.48
   2  14   3    8.04    0.56
  -2  14  -3    7.81    0.50
  -4 -14  -3    0.82    0.32
   4  14   3    0.45    0.34
   4  14   3    0.29    0.23
  -4  14  -3    0.67    0.31
  -4  14  -3    0.36    0.22
  -6 -14  -3   24.89    1.09
   6 -14   3   27.59    1.02
   6  14   3   26.73    1.07
  -6  14  -3   26.74    1.11
   6  14   3   28.56    1.15
   8 -14   3   25.85    0.99
  -8 -14  -3   22.56    1.07
  -8  14  -3   24.42    1.12
   8  14   3   26.07    1.09
  10 -14   3    2.71    0.39
 -10 -14  -3    2.75    0.50
 -10  14  -3    2.85    0.50
  10  14   3    3.83    0.52
  12 -14   3    6.56    0.55
 -12  14  -3    4.98    0.64
  12  14   3    6.75    0.68
  14 -14   3   13.96    0.73
  14  14   3   15.30    0.95
 -14  14  -3   16.29    0.95
 -14  14  -3   14.69    0.89
  16  14   3    1.47    0.47
 -16  14  -3    1.52    0.54
 -16  14  -3    1.76    0.48
 -19  15   3    0.55    0.42
  19  15  -3    0.19    0.39
  17  15  -3    1.09    0.44
 -17  15   3    0.85    0.40
 -15 -15   3    1.78    0.57
 -15  15   3    1.98    0.44
  15  15  -3    2.56    0.52
 -13 -15   3   18.51    1.07
  13  15  -3   18.12    1.00
 -13  15   3   18.63    0.94
 -11 -15   3    5.42    0.64
 -11  15   3    6.31    0.60
  11  15  -3    6.92    0.68
  -9 -15   3   19.83    1.03
  -9  15   3   19.39    0.59
  -9  15   3   18.94    0.88
   9  15  -3   18.61    0.93
  -9  15   3   17.64    0.57
   7 -15  -3   14.06    0.53
  -7 -15   3   14.67    0.82
  -7  15   3   15.84    0.77
  -7  15   3   14.68    0.56
   7  15  -3   16.58    0.83
  -7  15   3   14.92    0.56
  -5 -15   3    2.70    0.43
   5 -15  -3    2.60    0.29
   5  15  -3    2.40    0.26
  -5  15   3    2.75    0.31
  -5  15   3    2.69    0.39
   5  15  -3    2.48    0.39
  -5  15   3    2.79    0.31
   3 -15  -3    9.71    0.51
   3  15  -3    9.73    0.50
  -3  15   3   10.23    0.54
  -3  15   3   10.25    0.55
   3  15  -3    9.38    0.63
   1 -15  -3    3.42    0.38
  -1  15   3    3.14    0.39
   1  15  -3    3.22    0.41
  -1  15   3    3.27    0.33
   1  15  -3    3.49    0.37
  -1 -15  -3   11.14    0.62
  -1  15  -3   11.74    0.63
  -1  15  -3   10.23    0.60
   1  15   3   10.53    0.65
   1  15   3   10.71    0.57
  -3 -15  -3    7.19    0.53
  -3  15  -3    7.14    0.48
  -3  15  -3    7.24    0.54
   3  15   3    7.40    0.53
   3  15   3    7.93    0.59
  -5 -15  -3    8.55    0.61
  -5  15  -3    8.53    0.68
   5  15   3    7.88    0.70
   5  15   3    9.20    0.62
  -7 -15  -3   17.96    0.93
   7 -15   3   18.14    0.84
  -7  15  -3   18.51    0.96
   7  15   3   19.08    1.00
   7  15   3   18.31    0.90
   9 -15   3   -0.10    0.26
  -9 -15  -3   -0.13    0.31
  -9  15  -3    0.59    0.35
   9  15   3    0.06    0.30
 -11 -15  -3    0.13    0.33
  11 -15   3    0.15    0.25
  11  15   3    0.11    0.29
 -11  15  -3    0.20    0.38
  13 -15   3    3.00    0.41
 -13  15  -3    2.48    0.55
  13  15   3    2.39    0.51
  15  15   3   -0.01    0.35
 -15  15  -3    0.89    0.46
 -18  16   3    0.91    0.41
  18  16  -3    0.71    0.42
  16  16  -3    1.58    0.50
 -16  16   3    1.49    0.40
 -14  16   3   15.07    0.87
  14  16  -3   16.79    0.98
 -12  16   3    0.29    0.32
  12  16  -3   -0.24    0.30
  10  16  -3   12.64    0.84
 -10  16   3   14.05    0.78
   8 -16  -3   25.99    0.75
   8  16  -3   26.39    1.14
  -8  16   3   25.30    0.77
  -8  16   3   26.18    1.07
  -8  16   3   25.11    0.78
   6 -16  -3   39.09    1.10
  -6  16   3   40.57    1.15
  -6  16   3   39.18    1.13
  -6  16   3   38.92    1.33
   6  16  -3   37.56    1.39
   4 -16  -3    4.82    0.39
   4  16  -3    4.93    0.50
  -4  16   3    5.37    0.51
  -4  16   3    5.25    0.42
   4  16  -3    4.97    0.38
  -4  16   3    4.41    0.40
   2 -16  -3   22.99    0.84
  -2  16   3   23.39    0.78
  -2  16   3   21.21    0.85
   2  16  -3   21.02    0.81
   2  16  -3   23.12    0.95
   0 -16  -3   26.38    0.97
   0  16   3   25.10    1.00
   0  16  -3   28.80    1.03
   0  16   3   25.90    0.92
   0  16  -3   26.18    0.96
  -2 -16  -3    5.67    0.51
   2  16   3    5.19    0.49
   2  16   3    4.44    0.50
  -2  16  -3    5.10    0.49
  -2  16  -3    4.66    0.45
  -4 -16  -3   -0.14    0.26
   4  16   3    0.37    0.31
   4  16   3    0.48    0.29
  -4  16  -3    0.05    0.31
  -6 -16  -3    4.75    0.57
   6 -16   3    4.50    0.48
   6  16   3    4.85    0.54
  -6  16  -3    4.15    0.54
   6  16   3    4.18    0.58
  -8 -16  -3    2.58    0.50
   8 -16   3    3.25    0.44
   8  16   3    3.32    0.50
  -8  16  -3    2.99    0.52
 -10 -16  -3    8.67    0.71
  10 -16   3   10.01    0.62
 -10  16  -3    9.28    0.80
  10  16   3   10.59    0.75
  12 -16   3    0.23    0.27
  12  16   3    0.31    0.36
 -12  16  -3    0.35    0.38
 -14  16  -3    0.95    0.42
  14  16   3    0.68    0.39
 -16  16  -3    4.59    0.67
  16  16   3    4.02    0.66
 -19  17   3    1.91    0.50
  19  17  -3    3.10    0.59
  17  17  -3    1.93    0.53
 -17  17   3    1.57    0.46
  15  17  -3    4.30    0.63
 -15  17   3    3.50    0.55
 -13  17   3    1.56    0.41
  13  17  -3    0.53    0.39
 -11  17   3    9.37    0.72
  11  17  -3    9.27    0.72
  -9  17   3   11.29    0.45
  -9  17   3   11.18    0.75
   9  17  -3   11.78    0.80
  -9  17   3   11.42    0.44
   7 -17  -3    9.30    0.44
   7  17  -3   10.31    0.73
  -7  17   3    9.15    0.48
  -7  17   3    8.88    0.47
  -7  17   3    8.50    0.68
   5 -17  -3   22.78    0.79
  -5  17   3   23.54    0.83
   5  17  -3   22.95    1.02
  -5  17   3   23.28    0.84
  -5  17   3   24.33    0.98
   3 -17  -3    9.52    0.53
   3  17  -3    9.25    0.66
  -3  17   3    9.07    0.55
   3  17  -3   10.17    0.53
   1 -17  -3   44.67    1.39
   1  17  -3   47.08    1.48
  -1  17   3   45.89    1.34
   1  17  -3   45.55    1.35
  -1  17   3   46.43    1.45
  -1 -17  -3    8.70    0.58
   1  17   3    8.11    0.56
  -1  17  -3    9.33    0.61
   1  17   3    7.89    0.62
  -1  17  -3    9.70    0.61
  -3 -17  -3   15.09    0.79
  -3  17  -3   15.72    0.78
   3  17   3   15.64    0.77
   3  17   3   14.42    0.83
  -5 -17  -3    0.84    0.37
  -5  17  -3    1.04    0.38
   5  17   3    0.59    0.33
   5  17   3    0.51    0.38
   7 -17   3    7.28    0.58
  -7 -17  -3    7.33    0.69
  -7  17  -3    6.70    0.65
   7  17   3    7.69    0.73
   7  17   3    7.58    0.67
   9 -17   3   15.09    0.77
  -9 -17  -3   14.26    0.90
   9  17   3   13.95    0.85
  -9  17  -3   15.70    0.94
  11 -17   3    5.51    0.52
 -11  17  -3    4.96    0.64
  11  17   3    7.09    0.72
  13  17   3    2.28    0.52
 -13  17  -3    3.25    0.57
 -15  17  -3    0.75    0.47
  15  17   3    0.51    0.42
 -18  18   3    2.06    0.52
  18  18  -3    0.65    0.45
  16  18  -3    0.47    0.42
 -16  18   3    2.07    0.49
  14  18  -3    4.10    0.63
 -14  18   3    5.22    0.62
  12  18  -3    0.13    0.36
 -12  18   3    0.41    0.35
  10  18  -3    9.83    0.78
 -10  18   3    9.15    0.73
  -8  18   3    3.52    0.31
  -8  18   3    3.44    0.49
  -8  18   3    3.46    0.31
   8  18  -3    3.99    0.54
   6 -18  -3   27.96    0.89
  -6  18   3   29.53    1.13
   6  18  -3   27.25    1.15
  -6  18   3   28.27    0.94
  -6  18   3   27.77    0.92
   4 -18  -3   34.84    1.08
  -4  18   3   32.73    1.11
   4  18  -3   35.13    1.04
   4  18  -3   32.80    1.27
  -4  18   3   34.23    1.24
   2 -18  -3   11.28    0.61
   2  18  -3   10.55    0.57
  -2  18   3   11.05    0.63
   2  18  -3   12.30    0.72
   0 -18  -3   11.55    0.65
   0  18  -3   12.36    0.69
   0  18  -3   12.66    0.70
   0  18   3   11.96    0.62
   0  18   3   11.29    0.70
  -2 -18  -3    9.05    0.62
   2  18   3    8.30    0.57
   2  18   3    9.21    0.65
  -2  18  -3    9.16    0.65
  -4 -18  -3   17.43    0.88
   4  18   3   17.50    0.84
  -4  18  -3   16.91    0.89
   4  18   3   17.27    0.94
   6 -18   3    2.04    0.40
  -6 -18  -3    2.65    0.48
   6  18   3    3.05    0.52
  -6  18  -3    2.82    0.49
   6  18   3    3.05    0.48
  -8 -18  -3    2.58    0.50
   8 -18   3    2.85    0.42
  -8  18  -3    2.82    0.51
   8  18   3    3.36    0.52
  10 -18   3    1.82    0.37
  10  18   3    2.21    0.46
 -10  18  -3    1.54    0.46
  12 -18   3   10.65    0.65
  12  18   3   10.41    0.80
 -12  18  -3    9.57    0.86
  14  18   3    0.49    0.39
 -14  18  -3    0.76    0.43
  17  19  -3    4.43    0.71
 -17  19   3    3.13    0.57
 -15  19   3    3.49    0.56
  15  19  -3    2.67    0.55
  13  19  -3    0.57    0.39
 -13  19   3    0.87    0.41
 -11  19   3    6.98    0.70
  11  19  -3    6.53    0.73
  -9  19   3    1.61    0.42
   9  19  -3    2.18    0.48
  -9  19   3    2.15    0.26
  -9  19   3    1.83    0.25
   7  19  -3    5.78    0.62
  -7  19   3    6.08    0.45
  -7  19   3    5.34    0.58
  -7  19   3    5.74    0.41
   5 -19  -3    7.42    0.48
  -5  19   3    8.00    0.60
  -5  19   3    7.77    0.51
   5  19  -3    8.32    0.71
   3 -19  -3   44.73    1.35
   3  19  -3   43.66    1.50
   3  19  -3   44.59    1.30
  -3  19   3   44.67    1.40
   1 -19  -3    9.22    0.58
   1  19  -3    8.80    0.63
   1  19  -3    9.48    0.59
  -1  19   3    9.81    0.63
  -1 -19  -3    3.47    0.47
  -1  19  -3    3.07    0.41
   1  19   3    2.09    0.44
   1  19   3    3.63    0.43
  -1  19  -3    2.74    0.42
  -3 -19  -3   10.50    0.66
   3  19   3    9.25    0.72
   3  19   3    9.01    0.62
  -3  19  -3    9.40    0.69
  -5 -19  -3   14.02    0.83
  -5  19  -3   14.37    0.85
   5  19   3   15.10    0.81
   5  19   3   13.15    0.88
  -7 -19  -3    0.71    0.34
   7 -19   3   -0.08    0.27
   7  19   3    0.20    0.32
  -7  19  -3   -0.41    0.33
   9 -19   3   -0.07    0.25
   9  19   3    0.18    0.31
  -9  19  -3    0.62    0.39
  11 -19   3   11.57    0.67
  11  19   3   10.67    0.80
 -11  19  -3   10.81    0.81
  13  19   3    4.25    0.62
 -13  19  -3    2.87    0.56
  15  19   3    6.75    0.82
 -15  19  -3    6.37    0.80
  16  20  -3    3.22    0.61
 -16  20   3    3.96    0.62
 -14  20   3    1.03    0.44
  14  20  -3    1.66    0.51
 -12  20   3    2.93    0.52
  12  20  -3    3.00    0.57
  10  20  -3    1.81    0.46
 -10  20   3    1.50    0.43
  -8  20   3    8.89    0.74
  -8  20   3    8.81    0.46
  -8  20   3    9.26    0.49
   8  20  -3    9.20    0.80
  -6  20   3   20.34    0.94
   6  20  -3   18.39    0.98
  -6  20   3   18.15    0.73
   4 -20  -3   18.99    0.77
   4  20  -3   19.95    0.97
  -4  20   3   19.54    0.91
  -4  20   3   18.89    0.81
   2 -20  -3   17.57    0.78
   2  20  -3   16.66    0.76
   2  20  -3   17.61    0.88
  -2  20   3   16.94    0.82
   0 -20  -3   23.00    0.95
   0  20  -3   22.83    0.95
   0  20  -3   23.41    0.98
   0  20   3   22.78    1.00
  -2 -20  -3    9.24    0.65
   2  20   3    9.01    0.69
   2  20   3    7.78    0.57
  -2  20  -3    8.11    0.65
  -4 -20  -3    3.59    0.52
   4  20   3    3.38    0.47
   4  20   3    2.78    0.52
  -4  20  -3    3.78    0.51
  -6 -20  -3    0.11    0.30
   6  20   3    0.50    0.38
  -6  20  -3    0.75    0.39
   6  20   3    1.16    0.39
   8 -20   3    6.97    0.60
  -8  20  -3    5.00    0.63
   8  20   3    5.34    0.61
  10 -20   3    2.75    0.43
 -10  20  -3    2.76    0.53
  10  20   3    3.08    0.55
  12  20   3    1.34    0.44
 -12  20  -3    2.50    0.57
  14  20   3    6.41    0.79
 -14  20  -3    7.29    0.81
  17  21  -3    0.26    0.45
 -17  21   3    1.08    0.48
 -15  21   3    3.86    0.62
  15  21  -3    3.87    0.67
 -13  21   3    6.11    0.71
  13  21  -3    6.80    0.78
  11  21  -3    0.16    0.34
 -11  21   3    0.79    0.38
  -9  21   3    4.39    0.58
  -9  21   3    5.47    0.38
  -9  21   3    5.17    0.35
   9  21  -3    3.01    0.56
  -7  21   3    4.84    0.59
  -7  21   3    4.29    0.40
   7  21  -3    4.23    0.60
  -5  21   3    7.76    0.53
  -5  21   3    8.82    0.66
   5  21  -3    8.47    0.67
   3  21  -3    4.06    0.53
  -3  21   3    2.99    0.43
   3  21  -3    2.94    0.38
   1 -21  -3   25.64    1.00
   1  21  -3   26.02    1.00
   1  21  -3   25.77    1.08
  -1  21   3   24.74    1.04
  -1 -21  -3   15.70    0.81
  -1  21  -3   15.45    0.83
   1  21   3   14.93    0.85
  -3 -21  -3    2.31    0.45
   3  21   3    2.71    0.49
  -3  21  -3    3.30    0.46
   3  21   3    2.04    0.41
   5  21   3    0.07    0.34
   5  21   3   -0.14    0.30
  -5  21  -3    0.22    0.36
   7 -21   3    5.18    0.55
  -7  21  -3    4.17    0.58
   7  21   3    5.40    0.62
   9 -21   3    1.28    0.37
   9  21   3    0.83    0.38
  -9  21  -3    0.99    0.44
 -11  21  -3    2.53    0.58
  11  21   3    3.05    0.54
  13  21   3    1.71    0.53
 -13  21  -3    1.81    0.51
 -16  22   3    0.50    0.44
  16  22  -3   -0.27    0.40
 -14  22   3    8.18    0.81
  14  22  -3    8.76    0.90
  12  22  -3    2.12    0.54
 -12  22   3    1.82    0.46
 -10  22   3    0.86    0.38
 -10  22   3    0.45    0.17
  10  22  -3    0.00    0.37
   8  22  -3    8.18    0.80
  -8  22   3    8.79    0.48
  -8  22   3    9.61    0.73
  -6  22   3   28.79    1.23
   6  22  -3   27.85    1.23
  -6  22   3   28.52    0.99
  -4  22   3    0.20    0.29
   4  22  -3    0.15    0.34
  -4  22   3   -0.01    0.30
   2  22  -3    0.72    0.29
  -2  22   3    0.69    0.34
   2  22  -3    0.57    0.33
   0  22   3   18.73    0.94
   0  22  -3   17.55    0.84
  -2  22  -3   11.96    0.76
   2  22   3   13.09    0.82
  -4  22  -3    0.21    0.35
   4  22   3    0.70    0.41
   4  22   3    0.48    0.34
   6  22   3    1.21    0.44
   6  22   3    1.35    0.41
  -6  22  -3    0.68    0.39
   8 -22   3   12.34    0.75
   8  22   3   11.42    0.82
  -8  22  -3   12.39    0.84
  10  22   3    1.77    0.50
 -10  22  -3    1.15    0.47
 -12  22  -3    2.58    0.57
  12  22   3    1.94    0.54
 -15  23   3    3.41    0.62
  15  23  -3    3.42    0.67
  13  23  -3    5.81    0.77
 -13  23   3    4.87    0.65
 -11  23   3    1.29    0.44
  11  23  -3    2.16    0.51
  -9  23   3    4.04    0.60
  -9  23   3    3.50    0.34
   9  23  -3    3.93    0.59
  -7  23   3    2.59    0.35
  -7  23   3    2.55    0.47
   7  23  -3    2.07    0.47
  -5  23   3   -0.03    0.33
  -5  23   3   -0.09    0.27
   5  23  -3    0.00    0.34
  -3  23   3    2.08    0.41
   3  23  -3    2.03    0.46
   1  23  -3    9.79    0.67
  -1  23   3    8.67    0.66
  -1  23  -3    0.90    0.34
   1  23   3    0.28    0.35
   3  23   3    2.69    0.53
  -3  23  -3    3.12    0.50
   5  23   3    3.01    0.50
  -5  23  -3    2.65    0.49
   5  23   3    2.16    0.52
   7 -23   3    3.20    0.48
  -7  23  -3    2.47    0.51
   7  23   3    3.46    0.53
   9 -23   3    0.88    0.34
  -9  23  -3    1.07    0.46
   9  23   3    1.07    0.45
  11  23   3    4.51    0.67
 -11  23  -3    2.93    0.57
  14  24  -3    2.72    0.62
 -14  24   3    1.95    0.53
  12  24  -3    1.57    0.55
 -12  24   3    2.14    0.52
  10  24  -3    1.36    0.49
 -10  24   3    1.61    0.48
  -8  24   3    0.49    0.36
   8  24  -3    0.90    0.42
  -8  24   3    0.48    0.25
   6  24  -3    2.59    0.54
  -6  24   3    2.39    0.49
  -6  24   3    2.28    0.37
  -4  24   3   14.52    0.76
   4  24  -3   13.85    0.87
  -2  24   3    1.80    0.41
   2  24  -3    1.09    0.33
   0  24  -3    0.26    0.30
   0  24   3    0.15    0.34
  -2  24  -3    3.43    0.50
   2  24   3    4.36    0.59
   4  24   3    4.16    0.60
  -4  24  -3    3.86    0.55
  -6  24  -3    3.00    0.54
   6  24   3    1.68    0.53
   8 -24   3    5.96    0.61
   8  24   3    6.10    0.68
  -8  24  -3    5.45    0.67
  10  24   3    0.98    0.44
 -10  24  -3    1.75    0.51
  12  24   3    0.76    0.46
 -12  24  -3    0.16    0.45
 -13  25   3    1.76    0.53
  13  25  -3    1.22    0.54
 -11  25   3    5.07    0.67
  11  25  -3    5.19    0.72
  -9  25   3    4.32    0.61
   9  25  -3    3.61    0.61
  -9  25   3    5.03    0.38
  -7  25   3    2.87    0.38
   7  25  -3    3.27    0.58
  -7  25   3    2.86    0.52
   5  25  -3   -0.21    0.33
  -5  25   3    0.33    0.31
  -5  25   3    0.28    0.35
  -3  25   3   11.14    0.71
  -1  25   3    0.48    0.36
   1  25  -3    1.25    0.35
  -1  25  -3    1.68    0.40
   1  25   3    1.76    0.46
  -3  25  -3    4.16    0.54
   3  25   3    3.69    0.60
   5  25   3    3.39    0.61
  -5  25  -3    3.26    0.54
   7 -25   3    1.70    0.42
  -7  25  -3    2.01    0.51
   9  25   3    3.39    0.58
  -9  25  -3    2.62    0.58
 -11  25  -3    7.97    0.84
  11  25   3    7.92    0.85
  14  26  -3    5.25    0.79
 -14  26   3    5.61    0.74
  12  26  -3    3.37    0.69
 -12  26   3    3.90    0.62
 -10  26   3    0.85    0.42
  10  26  -3    0.52    0.44
 -10  26   3    0.57    0.21
  -8  26   3    1.75    0.32
   8  26  -3    1.35    0.48
  -8  26   3    1.06    0.43
  -6  26   3    3.44    0.59
   6  26  -3    3.34    0.58
  -6  26   3    3.73    0.44
  -4  26   3    1.26    0.39
  -2  26   3    0.93    0.39
   0  26   3    0.71    0.39
   0  26  -3    1.63    0.39
  -2  26  -3    2.53    0.47
   2  26   3    1.84    0.48
  -4  26  -3   13.49    0.89
   4  26   3   13.22    0.93
  -6  26  -3    1.69    0.46
  -8  26  -3    0.57    0.44
 -10  26  -3   11.24    0.99
  10  26   3   11.08    0.98
 -13  27   3    0.90    0.47
  13  27  -3   -0.16    0.44
 -11  27   3    4.18    0.63
  11  27  -3    4.18    0.73
  -9  27   3    4.87    0.42
   9  27  -3    5.80    0.75
  -9  27   3    3.69    0.63
   7  27  -3    2.05    0.53
  -7  27   3    2.38    0.37
  -7  27   3    2.50    0.53
  -5  27   3   -0.28    0.29
  -3  27   3    0.91    0.39
  -1  27   3    0.26    0.39
   1  27  -3    0.44    0.32
  -1  27  -3    4.98    0.57
   1  27   3    3.91    0.62
  -3  27  -3    3.16    0.53
   3  27   3    2.55    0.56
   5  27   3    6.01    0.76
  -5  27  -3    4.85    0.65
  -7  27  -3    2.97    0.59
  -9  27  -3    2.21    0.56
 -12  28   3    2.21    0.54
  12  28  -3    0.23    0.49
 -10  28   3    5.26    0.69
  10  28  -3    5.34    0.75
 -10  28   3    5.33    0.37
  -8  28   3    0.18    0.39
  -8  28   3    0.13    0.28
  -6  28   3    1.16    0.42
  -6  28   3    1.44    0.37
  -4  28   3    1.42    0.40
  -2  28   3    3.77    0.56
   0  28  -3    2.67    0.48
   0  28   3    2.78    0.54
   2  28   3    0.81    0.44
  -2  28  -3    0.05    0.35
   4  28   3    4.55    0.69
  -4  28  -3    3.94    0.58
  -6  28  -3    2.84    0.55
  -8  28  -3    4.36    0.67
  11  29  -3    0.70    0.52
 -11  29   3    0.59    0.47
  -9  29   3    0.68    0.24
  -9  29   3    0.38    0.44
  -7  29   3    0.14    0.30
  -7  29   3    0.11    0.40
  -5  29   3    0.51    0.34
  -3  29   3    3.30    0.52
  -1  29   3    0.68    0.41
  -1  29  -3    0.50    0.39
   1  29   3    1.86    0.52
  -3  29  -3    1.68    0.47
   3  29   3    0.52    0.45
   5  29   3    0.64    0.50
  -5  29  -3   -0.08    0.38
  -7  29  -3    1.15    0.48
  -8  30   3    0.18    0.42
  -8  30   3   -0.20    0.25
  -6  30   3    2.23    0.38
  -4  30   3    6.89    0.68
  -2  30   3    2.02    0.48
   0  30   3    1.52    0.48
   2  30   3    0.36    0.45
  -2  30  -3    0.38    0.37
  -4  30  -3    1.18    0.44
   4  30   3    1.39    0.53
  -6  30  -3    2.24    0.53
  -7  31   3    0.73    0.31
  -7  31   3    0.58    0.43
  -5  31   3    1.64    0.43
  -3  31   3    1.99    0.46
  -1  31   3    1.04    0.48
   1  31   3   -0.04    0.39
  -1  31  -3   -0.09    0.35
  -3  31  -3    4.39    0.66
   3  31   3    4.65    0.72
   5  31   3    1.39    0.55
  -4  32   3    1.29    0.44
  -2  32   3    1.40    0.46
   0  32   3    0.40    0.42
   2  32   3    2.64    0.59
  -2  32  -3    3.29    0.56
 -20   0   4    1.01    0.43
  20   0  -4    0.48    0.34
  18   0  -4   17.03    0.87
 -18   0   4   17.64    0.94
  16   0  -4    1.55    0.36
 -16   0   4    1.47    0.41
 -14   0   4    3.85    0.49
  14   0  -4    3.79    0.44
  12   0  -4   45.05    1.39
 -12   0   4   43.57    1.39
 -10   0   4   22.20    0.85
  10   0  -4   18.55    0.80
   8   0  -4   36.07    1.13
  -8   0   4   35.53    1.13
  -6   0   4   14.32    0.64
   6   0  -4   13.37    0.64
  -6   0   4   13.75    0.62
  -4   0   4  113.65    2.90
   4   0  -4  117.48    2.88
  -4   0   4  119.61    2.89
  -4   0   4  116.60    2.94
  -2   0   4   60.61    1.69
  -2   0   4   62.34    1.69
   2   0  -4   60.73    1.67
  -2   0   4   59.43    1.72
   0   0   4    5.95    0.45
   0   0  -4    6.20    0.48
   0   0   4    6.78    0.51
   0   0  -4    5.53    0.50
   0   0   4    6.25    0.47
   2   0   4   73.86    2.15
  -2   0  -4   76.74    2.03
  -2   0  -4   76.69    2.13
   2   0   4   77.47    2.07
   2   0   4   76.50    2.07
   4   0   4    8.69    0.49
  -4   0  -4    8.68    0.60
   4   0   4    9.41    0.59
  -4   0  -4    8.79    0.54
   4   0   4    7.98    0.54
  -6   0  -4   29.68    1.10
   6   0   4   31.05    1.09
  -6   0  -4   30.38    1.18
   8   0   4   35.13    1.24
  -8   0  -4   36.53    1.36
  -8   0  -4   35.24    1.27
  10   0   4    5.21    0.54
 -10   0  -4    6.61    0.62
 -10   0  -4    6.06    0.65
 -12   0  -4    2.82    0.55
  12   0   4    2.27    0.41
  14   0   4   21.32    1.04
 -14   0  -4   23.33    1.22
 -16   0  -4    1.11    0.50
 -16   0  -4    1.42    0.48
  16   0   4    1.78    0.43
 -21  -1   4   -0.31    0.41
 -21   1   4   -0.06    0.36
  21   1  -4    0.39    0.34
  19  -1  -4    1.06    0.36
 -19  -1   4    0.83    0.45
  19   1  -4    1.84    0.42
 -19   1   4    0.25    0.39
 -17  -1   4    3.45    0.53
  17  -1  -4    2.85    0.43
  17   1  -4    3.39    0.47
 -17   1   4    2.78    0.48
  15  -1  -4    2.81    0.41
 -15  -1   4    2.56    0.46
  15   1  -4    3.43    0.45
 -15   1   4    3.16    0.45
  13  -1  -4    9.90    0.60
 -13  -1   4   11.54    0.69
 -13   1   4    9.74    0.64
  13   1  -4   10.34    0.63
  11  -1  -4    3.06    0.38
 -11  -1   4    3.55    0.42
  11   1  -4    3.27    0.41
 -11   1   4    2.87    0.38
  -9  -1   4   13.85    0.65
   9  -1  -4   13.09    0.63
   9   1  -4   12.46    0.63
  -9   1   4   14.27    0.63
   7  -1  -4    8.92    0.48
  -7  -1   4    7.45    0.49
  -7   1   4    6.93    0.47
  -7   1   4    7.69    0.48
   7   1  -4    7.50    0.49
   5  -1  -4   83.81    2.18
  -5  -1   4   86.53    2.28
  -5  -1   4   83.62    2.22
   5   1  -4   84.02    2.21
  -5   1   4   88.08    2.32
  -5   1   4   86.51    2.20
  -5   1   4   85.38    2.21
  -3  -1   4   13.60    0.63
   3  -1  -4   14.04    0.61
  -3  -1   4   11.62    0.61
   3   1  -4   13.81    0.65
  -3   1   4   12.46    0.64
  -3   1   4   13.20    0.56
  -3   1   4   13.13    0.65
   1  -1  -4    1.69    0.32
   1  -1  -4    1.85    0.30
  -1  -1   4    2.05    0.28
  -1  -1   4    2.10    0.35
  -1  -1   4    1.90    0.32
  -1   1   4    2.03    0.34
  -1   1   4    2.03    0.28
   1   1  -4    1.95    0.34
  -1   1   4    2.20    0.33
   1   1  -4    1.87    0.32
   1  -1   4   15.56    0.66
  -1  -1  -4   14.23    0.68
   1  -1   4   15.07    0.72
  -1  -1  -4   14.78    0.73
   1  -1   4   15.32    0.68
   1   1   4   15.20    0.70
   1   1   4   15.30    0.66
   1   1   4   15.37    0.71
  -1   1  -4   14.76    0.69
  -1   1  -4   16.55    0.80
   3  -1   4    5.91    0.49
   3  -1   4    4.85    0.43
  -3  -1  -4    6.11    0.48
   3  -1   4    5.70    0.49
  -3  -1  -4    5.50    0.49
   3   1   4    4.49    0.43
  -3   1  -4    5.42    0.43
   3   1   4    4.92    0.45
  -3   1  -4    4.58    0.48
   3   1   4    5.46    0.41
   5  -1   4   12.05    0.62
   5  -1   4   10.68    0.63
  -5  -1  -4   10.75    0.60
  -5  -1  -4   10.64    0.69
   5  -1   4   10.57    0.55
  -5   1  -4   10.62    0.62
   5   1   4   10.04    0.58
   5   1   4   10.88    0.62
  -5   1  -4   10.18    0.65
   7  -1   4    5.03    0.49
  -7  -1  -4    3.59    0.48
  -7  -1  -4    3.58    0.47
  -7   1  -4    4.94    0.50
   7   1   4    5.54    0.53
  -7   1  -4    5.17    0.56
   9  -1   4    6.00    0.55
  -9  -1  -4    6.11    0.60
  -9  -1  -4    4.73    0.60
   9   1   4    5.91    0.56
  -9   1  -4    5.08    0.60
  -9   1  -4    5.41    0.56
  11  -1   4    3.69    0.48
 -11  -1  -4    4.03    0.59
 -11  -1  -4    3.90    0.52
 -11   1  -4    3.13    0.55
  11   1   4    2.84    0.45
 -13  -1  -4    3.62    0.61
  13  -1   4    3.05    0.46
 -13   1  -4    3.59    0.60
  13   1   4    2.97    0.47
 -15  -1  -4    4.04    0.68
 -15  -1  -4    5.19    0.66
  15  -1   4    3.86    0.54
 -15   1  -4    3.50    0.59
  15   1   4    4.88    0.59
 -15   1  -4    4.43    0.67
  17  -1   4    1.57    0.45
 -17  -1  -4    1.89    0.58
 -17  -1  -4    1.83    0.58
 -17   1  -4    1.42    0.51
 -17   1  -4    1.23    0.48
  17   1   4    1.42    0.44
 -20  -2   4    1.15    0.46
  20   2  -4    1.44    0.41
 -20   2   4    1.13    0.42
  18  -2  -4    0.04    0.28
 -18  -2   4   -0.16    0.39
 -18   2   4   -0.04    0.36
  18   2  -4   -0.55    0.27
 -16  -2   4    0.48    0.39
  16  -2  -4   -0.07    0.25
 -16   2   4   -0.03    0.33
  16   2  -4    0.59    0.31
 -14  -2   4    7.00    0.63
  14  -2  -4    6.36    0.51
 -14   2   4    7.40    0.56
  14   2  -4    6.86    0.60
 -12  -2   4   22.84    0.96
  12  -2  -4   23.24    0.88
  12   2  -4   23.12    0.94
 -12   2   4   23.94    0.90
 -10  -2   4    2.80    0.38
  10  -2  -4    2.48    0.34
  10   2  -4    2.60    0.37
 -10   2   4    2.60    0.33
  -8  -2   4    3.06    0.37
   8  -2  -4    3.54    0.35
   8   2  -4    4.03    0.40
  -8   2   4    3.86    0.31
  -8   2   4    3.50    0.36
  -8   2   4    3.72    0.34
  -6  -2   4   57.60    1.65
   6  -2  -4   60.11    1.59
  -6   2   4   60.02    1.61
  -6   2   4   57.67    1.62
  -6   2   4   59.51    1.65
   6   2  -4   58.35    1.64
  -6   2   4   56.50    1.57
  -4  -2   4   90.96    2.34
   4  -2  -4   89.06    2.27
  -4   2   4   89.06    2.42
   4   2  -4   87.65    2.30
  -4   2   4   89.82    2.27
  -4   2   4   91.03    2.30
  -2  -2   4   14.32    0.69
  -2  -2   4   15.13    0.69
   2  -2  -4   14.22    0.64
   2  -2  -4   15.73    0.74
  -2   2   4   13.88    0.60
  -2   2   4   13.53    0.63
  -2   2   4   13.99    0.63
   2   2  -4   14.94    0.66
   0  -2   4    2.95    0.30
   0  -2   4    2.93    0.38
   0  -2  -4    2.80    0.38
   0  -2   4    2.97    0.36
   0  -2  -4    3.48    0.38
   0   2   4    3.31    0.38
   0   2   4    3.12    0.33
   0   2  -4    2.91    0.36
   0   2  -4    2.42    0.39
   0   2   4    3.22    0.36
   2  -2   4    9.38    0.59
   2  -2   4    9.88    0.53
  -2  -2  -4    9.72    0.58
   2  -2   4    9.28    0.55
  -2  -2  -4   10.41    0.65
   2   2   4   10.30    0.56
   2   2   4    9.55    0.59
  -2   2  -4    9.72    0.63
   2   2   4    9.83    0.54
  -2   2  -4   10.89    0.56
   4  -2   4    9.16    0.53
  -4  -2  -4   10.40    0.62
   4  -2   4    9.86    0.57
  -4  -2  -4    9.07    0.55
   4  -2   4    8.89    0.54
  -4   2  -4    9.91    0.58
  -4   2  -4    8.52    0.61
   4   2   4    8.93    0.56
   4   2   4   10.67    0.60
   6  -2   4    4.10    0.41
   6  -2   4    4.58    0.45
  -6  -2  -4    3.78    0.45
  -6  -2  -4    3.16    0.44
  -6   2  -4    4.57    0.52
  -6   2  -4    3.48    0.43
   6   2   4    4.10    0.45
  -8  -2  -4    3.59    0.53
   8  -2   4    3.96    0.47
  -8  -2  -4    4.86    0.54
  -8   2  -4    4.01    0.54
   8   2   4    3.84    0.48
  -8   2  -4    3.51    0.46
 -10  -2  -4    3.11    0.46
 -10  -2  -4    2.60    0.52
  10  -2   4    3.42    0.45
 -10   2  -4    2.81    0.52
 -10   2  -4    2.58    0.46
  10   2   4    3.17    0.45
 -12  -2  -4    7.98    0.77
  12  -2   4    7.58    0.61
  12   2   4    8.63    0.65
 -12   2  -4    6.83    0.71
 -14  -2  -4    1.16    0.50
  14  -2   4    1.59    0.40
 -14   2  -4    0.78    0.46
 -14   2  -4    1.64    0.50
  14   2   4    1.49    0.39
 -16  -2  -4    0.45    0.50
  16  -2   4    0.73    0.36
 -16  -2  -4    0.10    0.41
 -16   2  -4    0.05    0.44
 -16   2  -4   -0.34    0.43
  16   2   4   -0.25    0.31
 -21  -3   4    2.44    0.56
 -21   3   4    2.10    0.44
  21   3  -4    1.95    0.47
 -19  -3   4    0.33    0.41
 -19   3   4    0.16    0.38
  19   3  -4    0.49    0.35
 -17  -3   4    9.05    0.75
  17  -3  -4    9.05    0.59
 -17   3   4    7.93    0.62
  17   3  -4    7.46    0.68
  15  -3  -4    8.88    0.57
 -15  -3   4    8.37    0.72
 -15   3   4    9.29    0.60
  15   3  -4    8.82    0.66
  13  -3  -4   16.56    0.71
 -13  -3   4   13.52    0.78
 -13   3   4   14.01    0.69
  13   3  -4   14.09    0.75
  11  -3  -4   19.55    0.77
 -11  -3   4   19.62    0.87
 -11   3   4   19.17    0.78
 -11   3   4   19.24    0.61
  11   3  -4   18.65    0.85
  -9  -3   4    1.76    0.33
   9  -3  -4    1.42    0.26
  -9   3   4    1.16    0.26
   9   3  -4    1.24    0.31
  -9   3   4    1.51    0.20
  -9   3   4    1.76    0.24
  -7  -3   4   10.67    0.57
   7  -3  -4   11.21    0.55
  -7   3   4   11.28    0.53
  -7   3   4   11.24    0.61
  -7   3   4   10.46    0.51
  -7   3   4   11.06    0.46
   7   3  -4   11.93    0.61
  -5  -3   4  178.54    4.33
   5  -3  -4  181.18    4.20
  -5   3   4  176.35    4.66
  -5   3   4  176.34    4.19
   5   3  -4  181.46    4.28
  -5   3   4  183.14    4.28
  -5   3   4  182.35    4.30
  -3  -3   4    1.73    0.31
   3  -3  -4    1.95    0.29
  -3   3   4    1.94    0.27
  -3   3   4    2.36    0.34
  -3   3   4    2.34    0.33
   3   3  -4    1.89    0.33
  -3   3   4    2.11    0.31
  -1  -3   4   21.31    0.87
   1  -3  -4   22.98    0.92
   1  -3  -4   23.44    0.83
  -1  -3   4   23.37    0.88
  -1   3   4   23.69    0.89
   1   3  -4   23.13    0.87
  -1   3   4   23.54    0.84
  -1   3   4   22.36    0.81
   1  -3   4    1.79    0.32
  -1  -3  -4    2.03    0.34
  -1  -3  -4    1.64    0.30
   1  -3   4    2.21    0.34
   1  -3   4    2.19    0.29
  -1   3  -4    2.54    0.37
   1   3   4    2.25    0.34
   1   3   4    1.87    0.30
  -1   3  -4    2.21    0.33
   3  -3   4   42.82    1.31
   3  -3   4   40.51    1.28
  -3  -3  -4   40.96    1.31
  -3  -3  -4   42.77    1.38
   3  -3   4   43.22    1.35
  -3   3  -4   40.24    1.38
  -3   3  -4   42.38    1.28
   3   3   4   39.59    1.29
   3   3   4   42.12    1.33
   5  -3   4   23.13    0.87
   5  -3   4   23.04    0.92
  -5  -3  -4   23.04    0.98
  -5  -3  -4   22.13    0.91
  -5   3  -4   23.45    0.98
   5   3   4   22.73    0.91
   5   3   4   22.53    0.95
  -5   3  -4   23.12    0.89
  -7  -3  -4    6.65    0.64
   7  -3   4    7.47    0.57
  -7  -3  -4    6.93    0.55
   7  -3   4    7.06    0.53
  -7   3  -4    6.97    0.63
   7   3   4    8.41    0.56
  -7   3  -4    8.19    0.58
  -9  -3  -4   17.22    0.86
   9  -3   4   15.53    0.80
  -9  -3  -4   15.01    0.92
  -9   3  -4   15.39    0.90
   9   3   4   14.62    0.80
  -9   3  -4   16.19    0.80
 -11  -3  -4    6.84    0.72
  11  -3   4    7.35    0.58
 -11  -3  -4    5.71    0.61
  11   3   4    5.51    0.58
 -11   3  -4    6.50    0.68
 -13  -3  -4    1.46    0.51
  13  -3   4    2.11    0.41
 -13   3  -4    0.94    0.43
 -13   3  -4    1.63    0.49
  13   3   4    1.34    0.38
 -15  -3  -4    3.08    0.62
  15  -3   4    2.90    0.47
 -15   3  -4    1.98    0.51
 -15   3  -4    2.16    0.55
  15   3   4    2.98    0.51
  17  -3   4    4.41    0.59
 -17  -3  -4    4.58    0.75
  17   3   4    4.71    0.62
 -17   3  -4    5.47    0.75
 -17   3  -4    5.46    0.72
 -20  -4   4    0.71    0.46
 -20   4   4   -0.59    0.31
  20   4  -4    0.36    0.36
 -18  -4   4    2.23    0.53
 -18   4   4    2.20    0.44
  18   4  -4    2.50    0.47
  16  -4  -4    6.96    0.53
 -16  -4   4    6.20    0.67
 -16   4   4    5.45    0.52
  16   4  -4    4.36    0.54
  14  -4  -4    3.72    0.41
 -14  -4   4    4.16    0.53
  14   4  -4    3.78    0.49
 -14   4   4    3.41    0.42
 -12  -4   4   18.74    0.90
  12  -4  -4   19.19    0.76
  12   4  -4   19.93    0.90
 -12   4   4   19.48    0.79
  10  -4  -4    1.58    0.28
 -10  -4   4    1.47    0.33
 -10   4   4    1.88    0.19
  10   4  -4    1.80    0.35
 -10   4   4    1.66    0.30
  -8  -4   4   27.23    1.00
   8  -4  -4   26.44    0.88
  -8   4   4   26.79    0.84
  -8   4   4   26.61    0.89
  -8   4   4   26.26    0.82
   8   4  -4   28.72    1.01
  -8   4   4   28.58    0.95
  -6  -4   4    5.01    0.44
   6  -4  -4    4.99    0.40
  -6   4   4    5.41    0.42
  -6   4   4    4.81    0.39
   6   4  -4    4.64    0.44
  -6   4   4    4.68    0.34
  -6   4   4    4.49    0.37
   4  -4  -4    9.98    0.52
  -4  -4   4   10.07    0.59
  -4   4   4    9.43    0.45
  -4   4   4    8.74    0.52
   4   4  -4    9.66    0.57
  -4   4   4    9.52    0.55
  -4   4   4    9.39    0.50
   2  -4  -4   14.72    0.65
   2  -4  -4   14.26    0.71
  -2  -4   4   15.50    0.69
  -2   4   4   14.06    0.67
  -2   4   4   14.99    0.65
  -2   4   4   15.21    0.68
  -2   4   4   14.67    0.61
   2   4  -4   15.83    0.71
   0  -4  -4   21.14    0.81
   0  -4  -4   22.84    0.89
   0  -4   4   22.60    0.90
   0  -4   4   22.19    0.85
   0   4   4   22.42    0.81
   0   4   4   21.65    0.86
   0   4  -4   23.01    0.84
   2  -4   4    3.74    0.34
   2  -4   4    3.69    0.41
  -2  -4  -4    3.77    0.43
  -2  -4  -4    3.52    0.39
   2  -4   4    3.84    0.43
   2   4   4    4.16    0.42
   2   4   4    4.07    0.41
  -2   4  -4    4.57    0.41
  -2   4  -4    4.09    0.47
   4  -4   4    2.60    0.38
   4  -4   4    1.95    0.33
   4  -4   4    2.62    0.31
  -4  -4  -4    2.58    0.38
  -4  -4  -4    2.05    0.35
   4   4   4    1.97    0.34
  -4   4  -4    2.21    0.37
   4   4   4    2.17    0.35
  -4   4  -4    2.75    0.35
  -6  -4  -4    1.42    0.36
   6  -4   4    0.88    0.28
   6  -4   4    0.61    0.26
  -6  -4  -4    0.76    0.33
  -6   4  -4    0.81    0.30
  -6   4  -4    0.74    0.35
   6   4   4    0.46    0.26
   8  -4   4    1.08    0.33
  -8  -4  -4    2.17    0.47
  -8  -4  -4    1.17    0.36
  -8   4  -4    0.75    0.32
  -8   4  -4    1.13    0.40
   8   4   4    1.12    0.33
 -10  -4  -4    2.96    0.47
 -10  -4  -4    1.74    0.47
  10  -4   4    1.63    0.37
  10   4   4    1.36    0.37
 -10   4  -4    1.41    0.44
 -12  -4  -4    3.21    0.53
 -12  -4  -4    3.10    0.58
  12  -4   4    3.73    0.49
  12   4   4    2.58    0.46
 -12   4  -4    2.99    0.54
 -12   4  -4    3.73    0.55
  14  -4   4    6.29    0.63
 -14  -4  -4    7.81    0.83
 -14   4  -4    5.56    0.68
  14   4   4    5.66    0.63
 -14   4  -4    6.91    0.73
  16  -4   4    0.38    0.31
 -16  -4  -4    1.03    0.46
 -16  -4  -4   -0.23    0.46
 -16   4  -4   -0.15    0.43
  16   4   4    0.37    0.36
 -16   4  -4    0.48    0.46
 -21  -5   4    3.64    0.64
 -21   5   4    4.03    0.49
  21   5  -4    3.89    0.58
 -19  -5   4    1.31    0.52
  19   5  -4    1.73    0.44
 -19   5   4    1.77    0.40
 -17  -5   4    2.49    0.53
 -17   5   4    2.69    0.41
  17   5  -4    2.42    0.45
 -15  -5   4    4.36    0.60
  15  -5  -4    4.91    0.44
  15   5  -4    4.89    0.56
 -15   5   4    5.04    0.48
  13  -5  -4    9.29    0.53
 -13  -5   4    9.41    0.70
 -13   5   4    9.29    0.58
 -13   5   4    8.79    0.55
  13   5  -4    8.52    0.64
  11  -5  -4    3.83    0.37
 -11  -5   4    3.04    0.46
  11   5  -4    3.95    0.47
 -11   5   4    4.32    0.39
  -9  -5   4   15.07    0.76
   9  -5  -4   15.48    0.62
   9   5  -4   16.13    0.76
  -9   5   4   14.52    0.66
  -9   5   4   15.21    0.62
  -7  -5   4    0.70    0.26
   7  -5  -4    0.44    0.21
  -7   5   4    0.24    0.22
  -7   5   4    0.12    0.16
  -7   5   4    0.88    0.26
   7   5  -4    0.26    0.22
  -5  -5   4    0.26    0.26
   5  -5  -4    0.37    0.21
  -5   5   4    0.53    0.20
   5   5  -4    0.10    0.21
  -5   5   4    0.37    0.23
  -5   5   4    0.30    0.22
   3  -5  -4   14.96    0.67
  -3  -5   4   13.86    0.66
   3  -5  -4   13.09    0.61
   3   5  -4   14.15    0.69
  -3   5   4   15.71    0.62
  -3   5   4   14.09    0.64
   1  -5  -4   44.29    1.35
  -1  -5   4   44.48    1.38
  -1  -5   4   44.51    1.35
   1  -5  -4   44.69    1.31
   1   5  -4   43.65    1.35
  -1   5   4   44.72    1.34
  -1   5   4   44.80    1.30
  -1  -5  -4    0.23    0.24
  -1  -5  -4    0.75    0.29
   1  -5   4    0.72    0.27
   1  -5   4    0.26    0.24
  -1   5  -4    0.37    0.25
   1   5   4    0.47    0.23
   1   5   4    0.79    0.27
  -3  -5  -4    7.48    0.54
   3  -5   4    7.74    0.53
  -3  -5  -4    7.69    0.52
   3  -5   4    7.16    0.53
   3  -5   4    7.50    0.47
  -3   5  -4    9.31    0.60
   3   5   4    8.00    0.54
   3   5   4    7.97    0.53
  -3   5  -4    9.03    0.54
  -5  -5  -4   65.84    1.91
  -5  -5  -4   64.30    1.96
   5  -5   4   64.39    1.89
   5  -5   4   63.79    1.91
   5   5   4   66.49    1.93
  -5   5  -4   67.08    1.95
   5   5   4   66.22    1.87
  -5   5  -4   64.79    1.83
   7  -5   4    3.26    0.39
  -7  -5  -4    2.71    0.44
  -7  -5  -4    3.05    0.48
   7  -5   4    3.14    0.41
   7   5   4    2.54    0.41
  -7   5  -4    2.23    0.38
  -7   5  -4    2.82    0.47
   9  -5   4   16.25    0.82
  -9  -5  -4   16.14    0.95
  -9  -5  -4   17.86    0.91
   9   5   4   15.55    0.83
  -9   5  -4   17.67    0.95
  11  -5   4    5.12    0.54
 -11  -5  -4    6.22    0.66
 -11  -5  -4    4.91    0.65
 -11   5  -4    4.88    0.62
 -11   5  -4    6.65    0.69
  11   5   4    6.05    0.59
  13  -5   4    2.28    0.41
 -13  -5  -4    1.86    0.52
 -13   5  -4    1.27    0.46
  13   5   4    1.96    0.42
 -13   5  -4    1.92    0.52
  15  -5   4    5.07    0.57
 -15  -5  -4    4.65    0.72
  15   5   4    5.45    0.64
 -15   5  -4    5.11    0.67
 -15   5  -4    4.71    0.68
 -17  -5  -4    5.35    0.81
  17  -5   4    5.99    0.65
 -17   5  -4    5.93    0.74
  17   5   4    4.39    0.64
 -17   5  -4    5.62    0.76
 -20  -6   4    4.29    0.69
 -20   6   4    3.83    0.47
  20   6  -4    4.06    0.61
 -18  -6   4    6.52    0.74
  18   6  -4    7.27    0.70
 -18   6   4    5.66    0.52
 -16  -6   4    1.95    0.50
  16   6  -4    2.55    0.47
 -16   6   4    1.67    0.36
  14  -6  -4    0.69    0.27
 -14  -6   4    0.69    0.39
  14   6  -4    0.72    0.33
 -14   6   4    0.46    0.27
 -14   6   4    0.56    0.28
 -12  -6   4    2.78    0.48
  12  -6  -4    1.89    0.29
 -12   6   4    1.74    0.30
 -12   6   4    2.13    0.34
  12   6  -4    2.22    0.41
  10  -6  -4   18.05    0.68
 -10  -6   4   18.05    0.87
 -10   6   4   18.36    0.70
 -10   6   4   18.70    0.74
  10   6  -4   19.67    0.87
   8  -6  -4    6.76    0.42
  -8  -6   4    6.41    0.51
   8   6  -4    6.20    0.49
  -8   6   4    6.14    0.48
  -8   6   4    6.84    0.43
  -6  -6   4    1.06    0.30
   6  -6  -4    1.09    0.23
  -6   6   4    1.06    0.24
  -6   6   4    0.82    0.19
  -6   6   4    0.75    0.24
   6   6  -4    1.43    0.31
   4  -6  -4   48.89    1.35
  -4  -6   4   48.29    1.44
   4   6  -4   45.49    1.44
  -4   6   4   48.77    1.32
  -4   6   4   45.00    1.36
  -4   6   4   51.53    1.42
   2  -6  -4    5.98    0.46
  -2  -6   4    6.19    0.47
   2  -6  -4    6.37    0.44
  -2   6   4    6.32    0.42
   2   6  -4    5.94    0.46
  -2   6   4    5.46    0.45
  -2   6   4    4.87    0.42
   0  -6   4    5.88    0.48
   0  -6  -4    6.55    0.48
   0  -6  -4    5.32    0.46
   0  -6   4    6.45    0.51
   0   6  -4    6.24    0.49
   0   6   4    6.58    0.46
   0   6   4    7.87    0.53
   2  -6   4   27.76    1.01
  -2  -6  -4   30.13    1.03
   2  -6   4   28.72    1.05
  -2  -6  -4   28.08    1.06
  -2   6  -4   28.56    1.08
   2   6   4   28.27    1.02
   2   6   4   30.00    1.01
  -2   6  -4   29.00    1.00
   4  -6   4   14.84    0.73
   4  -6   4   12.56    0.61
  -4  -6  -4   13.75    0.70
  -4  -6  -4   13.88    0.73
  -4   6  -4   13.10    0.77
   4   6   4   14.55    0.73
   4   6   4   13.93    0.67
  -4   6  -4   13.12    0.66
   6  -6   4    9.55    0.56
  -6  -6  -4   10.71    0.74
   6  -6   4   10.08    0.63
  -6  -6  -4    9.07    0.63
   6   6   4   11.74    0.72
  -6   6  -4   11.14    0.63
   6   6   4    9.71    0.63
  -6   6  -4   10.38    0.73
   8  -6   4   32.55    1.19
  -8  -6  -4   29.86    1.22
  -8  -6  -4   32.44    1.29
   8  -6   4   31.89    1.14
   8   6   4   32.57    1.21
  -8   6  -4   33.42    1.29
  -8   6  -4   31.80    1.16
 -10  -6  -4    1.95    0.45
  10  -6   4    2.88    0.43
 -10  -6  -4    2.61    0.52
 -10   6  -4    3.22    0.50
 -10   6  -4    2.32    0.51
  10   6   4    2.21    0.43
 -12  -6  -4    3.49    0.56
  12  -6   4    3.82    0.48
 -12  -6  -4    3.42    0.61
 -12   6  -4    2.88    0.54
 -12   6  -4    3.35    0.53
  12   6   4    3.74    0.52
  14  -6   4    0.48    0.29
 -14  -6  -4    0.90    0.47
  14   6   4    0.43    0.35
 -14   6  -4   -0.02    0.42
 -14   6  -4    0.60    0.45
  16  -6   4   -0.08    0.31
  16   6   4    0.33    0.35
 -16   6  -4    0.32    0.47
 -16   6  -4    0.33    0.48
 -21  -7   4   -0.22    0.43
  21   7  -4    0.94    0.45
 -21   7   4    0.87    0.32
 -19  -7   4    0.83    0.50
 -19   7   4    1.29    0.35
  19   7  -4    1.50    0.42
 -17  -7   4   12.97    0.90
  17   7  -4   14.56    0.86
 -17   7   4   12.83    0.65
 -15  -7   4    3.37    0.58
 -15   7   4    4.53    0.49
  15   7  -4    4.96    0.58
 -15   7   4    3.74    0.40
 -13  -7   4    2.15    0.48
  13  -7  -4    2.77    0.32
 -13   7   4    2.76    0.38
  13   7  -4    2.63    0.44
 -13   7   4    2.40    0.33
 -11  -7   4    4.27    0.53
  11  -7  -4    5.20    0.38
 -11   7   4    5.02    0.41
  11   7  -4    6.30    0.57
 -11   7   4    5.14    0.47
 -11   7   4    5.01    0.41
  -9  -7   4    3.71    0.45
   9  -7  -4    3.22    0.31
   9   7  -4    2.72    0.41
  -9   7   4    3.01    0.33
  -9   7   4    3.18    0.32
   7  -7  -4   13.14    0.55
  -7  -7   4   13.63    0.71
   7   7  -4   13.44    0.70
  -7   7   4   12.28    0.48
  -7   7   4   13.46    0.60
  -7   7   4   13.37    0.57
  -5  -7   4   18.10    0.79
   5  -7  -4   17.41    0.66
  -5   7   4   16.14    0.67
  -5   7   4   16.56    0.61
   5   7  -4   17.16    0.76
  -5   7   4   18.50    0.70
  -3  -7   4    1.65    0.33
   3  -7  -4    1.76    0.28
   3   7  -4    0.71    0.27
  -3   7   4    1.13    0.24
  -3   7   4    1.41    0.28
  -3   7   4    1.54    0.29
  -1  -7   4   36.59    1.18
   1  -7  -4   37.07    1.19
   1  -7  -4   35.82    1.14
   1   7  -4   37.24    1.18
  -1   7   4   37.70    1.19
  -1   7   4   35.37    1.17
  -1   7   4   36.62    1.13
   1  -7   4   39.82    1.26
  -1  -7  -4   40.12    1.30
  -1  -7  -4   40.78    1.27
   1  -7   4   41.01    1.32
  -1   7  -4   39.10    1.25
   1   7   4   40.75    1.24
   1   7   4   39.15    1.28
  -3  -7  -4   64.63    1.86
  -3  -7  -4   65.54    1.91
   3  -7   4   63.15    1.87
   3   7   4   64.63    1.89
  -3   7  -4   65.90    1.94
   3   7   4   67.04    1.83
  -3   7  -4   65.81    1.82
   5  -7   4    0.61    0.28
  -5  -7  -4   -0.02    0.27
   5  -7   4    0.51    0.23
  -5  -7  -4    0.38    0.32
   5   7   4    0.35    0.26
   5   7   4    0.32    0.32
  -5   7  -4    0.29    0.25
  -5   7  -4    0.19    0.31
  -7  -7  -4    9.31    0.68
  -7  -7  -4   10.30    0.72
   7  -7   4    9.17    0.57
   7  -7   4    9.60    0.63
   7   7   4    9.82    0.65
  -7   7  -4    9.80    0.63
  -7   7  -4    9.81    0.75
   9  -7   4   18.55    0.87
  -9  -7  -4   19.89    0.97
  -9  -7  -4   18.47    1.02
  -9   7  -4   19.88    1.00
   9   7   4   18.25    0.89
  11  -7   4    1.15    0.36
 -11  -7  -4    1.50    0.44
 -11  -7  -4    1.26    0.47
 -11   7  -4    2.01    0.50
  11   7   4    1.63    0.39
 -11   7  -4    1.51    0.44
 -13  -7  -4   -0.30    0.34
  13  -7   4    0.16    0.26
 -13  -7  -4   -0.29    0.40
  13   7   4    0.18    0.31
 -13   7  -4    0.43    0.43
 -13   7  -4    0.60    0.41
  15  -7   4    2.65    0.45
 -15   7  -4    2.03    0.54
  15   7   4    2.46    0.50
 -15   7  -4    3.25    0.63
  17  -7   4   11.99    0.80
 -17   7  -4   12.98    0.96
 -17   7  -4   10.28    0.95
  17   7   4   12.23    0.88
 -20  -8   4    5.12    0.76
  20   8  -4    6.03    0.71
 -20   8   4    4.45    0.43
 -18  -8   4    4.54    0.69
 -18   8   4    4.47    0.43
  18   8  -4    4.44    0.61
 -16  -8   4   -0.05    0.40
  16   8  -4    1.11    0.38
 -16   8   4    0.26    0.27
 -14  -8   4    2.52    0.48
  14   8  -4    3.63    0.52
 -14   8   4    3.57    0.37
 -14   8   4    3.81    0.47
 -12  -8   4   11.33    0.77
  12  -8  -4   10.15    0.48
 -12   8   4    9.55    0.51
 -12   8   4   10.43    0.65
 -12   8   4   10.04    0.55
  12   8  -4   10.32    0.71
 -10  -8   4    2.84    0.46
  10  -8  -4    3.98    0.32
 -10   8   4    3.43    0.35
 -10   8   4    3.77    0.33
  10   8  -4    3.35    0.46
  -8  -8   4    8.80    0.59
   8  -8  -4    7.56    0.44
   8   8  -4    8.26    0.60
  -8   8   4    8.29    0.45
  -8   8   4    8.65    0.50
  -6  -8   4    6.04    0.53
   6  -8  -4    6.96    0.41
  -6   8   4    6.91    0.36
   6   8  -4    7.10    0.54
  -6   8   4    6.47    0.42
  -6   8   4    6.76    0.45
  -4  -8   4    2.08    0.35
   4  -8  -4    2.33    0.30
  -4   8   4    2.33    0.31
  -4   8   4    2.04    0.30
  -4   8   4    1.90    0.25
   4   8  -4    2.60    0.36
   2  -8  -4   16.41    0.73
   2  -8  -4   16.31    0.68
  -2  -8   4   15.98    0.72
  -2   8   4   17.15    0.71
  -2   8   4   15.19    0.63
   2   8  -4   16.03    0.74
   0  -8  -4    6.51    0.48
   0  -8  -4    7.12    0.53
   0  -8   4    7.17    0.52
   0   8  -4    6.94    0.49
   0   8   4    6.60    0.51
   0   8   4    7.41    0.46
   2  -8   4   18.41    0.81
  -2  -8  -4   17.72    0.80
   2  -8   4   18.27    0.77
  -2  -8  -4   18.50    0.81
   2   8   4   18.42    0.84
   2   8   4   19.48    0.78
  -2   8  -4   18.45    0.77
   4  -8   4    6.89    0.50
  -4  -8  -4    8.21    0.60
  -4  -8  -4    9.16    0.58
   4  -8   4    8.22    0.60
  -4   8  -4    7.42    0.62
   4   8   4    7.91    0.62
  -4   8  -4    9.01    0.55
   4   8   4    7.93    0.55
   6  -8   4   11.89    0.61
  -6  -8  -4   11.72    0.79
   6  -8   4   12.73    0.72
  -6  -8  -4   11.59    0.73
  -6   8  -4   12.75    0.80
   6   8   4   12.39    0.77
   6   8   4   11.94    0.70
  -6   8  -4   12.45    0.66
  -8  -8  -4   38.54    1.41
  -8  -8  -4   37.38    1.46
   8  -8   4   39.43    1.35
  -8   8  -4   36.26    1.37
   8   8   4   38.65    1.37
  -8   8  -4   40.05    1.45
 -10  -8  -4    1.67    0.48
  10  -8   4    1.82    0.37
 -10  -8  -4    1.85    0.46
  10   8   4    1.20    0.37
 -10   8  -4    1.10    0.43
 -10   8  -4    1.14    0.44
 -12  -8  -4    0.54    0.38
  12  -8   4    0.12    0.28
 -12   8  -4    0.25    0.39
  12   8   4    0.53    0.35
 -12   8  -4   -0.55    0.31
  14  -8   4    3.06    0.47
  14   8   4    3.10    0.54
 -14   8  -4    3.44    0.60
 -14   8  -4    2.00    0.54
  16  -8   4    0.31    0.33
  16   8   4   -0.09    0.34
 -16   8  -4   -0.46    0.42
 -16   8  -4    0.60    0.45
 -21  -9   4    1.65    0.58
  21   9  -4    1.21    0.46
 -21   9   4    0.19    0.24
 -19  -9   4    1.17    0.52
  19   9  -4    2.32    0.51
 -19   9   4    1.25    0.30
 -17  -9   4    4.39    0.65
 -17   9   4    3.59    0.38
  17   9  -4    4.16    0.58
 -15  -9   4    0.33    0.42
 -15   9   4    0.22    0.25
  15   9  -4    0.13    0.32
 -15   9   4    0.06    0.29
  13  -9  -4    1.89    0.26
 -13  -9   4    1.17    0.45
 -13   9   4    1.66    0.37
  13   9  -4    1.73    0.42
 -13   9   4    1.09    0.27
 -13   9   4    1.40    0.27
 -11  -9   4    1.79    0.46
  11  -9  -4    2.13    0.27
  11   9  -4    2.46    0.45
 -11   9   4    1.95    0.37
 -11   9   4    2.24    0.29
 -11   9   4    2.28    0.30
  -9  -9   4    9.09    0.64
   9  -9  -4    9.77    0.46
   9   9  -4    9.75    0.66
  -9   9   4    9.70    0.48
  -9   9   4    9.59    0.51
  -7  -9   4    1.06    0.32
   7  -9  -4    1.58    0.25
   7   9  -4    1.14    0.31
  -7   9   4    1.14    0.26
  -7   9   4    1.19    0.24
  -5  -9   4    1.66    0.32
   5  -9  -4    2.25    0.28
  -5   9   4    2.32    0.29
  -5   9   4    1.54    0.28
  -5   9   4    2.10    0.23
   5   9  -4    1.95    0.35
   3  -9  -4    8.53    0.50
  -3  -9   4    8.29    0.57
  -3   9   4    9.22    0.55
   3   9  -4    9.67    0.59
  -3   9   4    8.19    0.51
  -3   9   4    8.80    0.45
  -1  -9   4    4.77    0.44
   1  -9  -4    4.88    0.44
   1  -9  -4    5.09    0.44
  -1   9   4    4.74    0.43
   1   9  -4    5.63    0.49
  -1   9   4    5.46    0.40
  -1   9   4    5.07    0.43
  -1  -9  -4    5.56    0.45
   1  -9   4    4.98    0.44
  -1  -9  -4    5.25    0.48
  -1   9  -4    4.94    0.46
   1   9   4    5.70    0.44
   1   9   4    5.45    0.50
   3  -9   4    5.31    0.51
  -3  -9  -4    4.30    0.46
  -3  -9  -4    4.68    0.48
  -3   9  -4    4.40    0.42
   3   9   4    4.07    0.48
   3   9   4    3.92    0.41
  -5  -9  -4   13.37    0.74
   5  -9   4   11.59    0.63
  -5  -9  -4   13.72    0.81
   5  -9   4   13.68    0.74
  -5   9  -4   14.37    0.82
   5   9   4   15.16    0.79
   5   9   4   13.72    0.72
  -5   9  -4   13.69    0.68
  -7  -9  -4   26.52    1.12
   7  -9   4   28.56    1.09
  -7  -9  -4   28.10    1.19
   7   9   4   26.83    1.07
  -7   9  -4   26.03    1.01
  -7   9  -4   27.05    1.11
  -7   9  -4   23.85    1.13
  -9  -9  -4    1.89    0.44
   9  -9   4    1.66    0.36
  -9   9  -4    1.36    0.45
   9   9   4    1.86    0.39
  -9   9  -4    1.39    0.43
  11  -9   4    1.99    0.38
 -11  -9  -4    1.80    0.44
 -11   9  -4    1.38    0.48
  11   9   4    1.14    0.37
 -11   9  -4    1.09    0.41
 -13  -9  -4    0.62    0.41
  13  -9   4   -0.04    0.28
 -13   9  -4    0.37    0.40
 -13   9  -4    0.53    0.42
  13   9   4    0.23    0.34
  15  -9   4    0.94    0.35
 -15   9  -4    1.45    0.52
  15   9   4    1.14    0.43
 -15   9  -4    0.35    0.46
 -20 -10   4    5.62    0.79
 -20  10   4    4.90    0.37
  20  10  -4    4.27    0.65
 -18 -10   4    0.86    0.52
  18  10  -4    0.67    0.40
 -18  10   4    0.82    0.26
 -16 -10   4    0.10    0.44
 -16  10   4    0.53    0.26
  16  10  -4    0.74    0.37
 -16  10   4    0.44    0.34
 -14 -10   4   14.92    0.97
 -14  10   4   16.30    0.64
 -14  10   4   16.60    0.62
 -14  10   4   16.04    0.83
  14  10  -4   16.90    0.93
  12 -10  -4    9.95    0.45
 -12 -10   4   11.79    0.82
 -12  10   4    9.74    0.48
 -12  10   4   10.82    0.53
  12  10  -4   10.06    0.71
 -12  10   4   10.26    0.67
  10 -10  -4    4.35    0.33
 -10 -10   4    3.98    0.52
 -10  10   4    4.21    0.45
 -10  10   4    4.30    0.35
  10  10  -4    3.81    0.51
 -10  10   4    3.84    0.34
  -8 -10   4    1.17    0.36
   8 -10  -4    0.80    0.21
  -8  10   4    1.05    0.25
  -8  10   4    1.11    0.25
   8  10  -4    0.96    0.34
  -6 -10   4   18.56    0.86
   6 -10  -4   18.89    0.68
   6  10  -4   19.36    0.86
  -6  10   4   19.44    0.72
   6  10  -4   18.91    0.63
  -6  10   4   19.14    0.72
  -4 -10   4   19.24    0.83
   4 -10  -4   16.36    0.69
  -4  10   4   17.98    0.64
   4  10  -4   19.62    0.85
  -4  10   4   17.89    0.72
  -4  10   4   19.16    0.74
   2 -10  -4    7.04    0.47
  -2 -10   4    7.47    0.54
  -2  10   4    6.09    0.48
   2  10  -4    7.44    0.53
  -2  10   4    7.12    0.48
  -2  10   4    7.40    0.42
   0 -10   4   28.14    1.02
   0 -10  -4   27.94    1.01
   0  10  -4   29.03    1.04
   0  10   4   29.63    0.98
   0  10   4   30.89    1.07
  -2 -10  -4    2.12    0.38
   2 -10   4    3.10    0.42
   2  10   4    3.41    0.44
  -2  10  -4    3.14    0.38
   2  10   4    3.19    0.38
  -4 -10  -4   21.31    0.93
   4 -10   4   21.88    0.94
  -4  10  -4   23.27    0.88
   4  10   4   20.48    0.89
   4  10   4   21.89    0.96
  -4  10  -4   18.84    0.91
   6 -10   4    4.98    0.53
  -6 -10  -4    4.14    0.51
  -6  10  -4    2.73    0.45
  -6  10  -4    3.83    0.44
   6  10   4    4.73    0.52
  -6  10  -4    4.13    0.54
   6  10   4    4.93    0.56
  -8 -10  -4    9.00    0.67
   8 -10   4    8.42    0.61
   8  10   4    8.84    0.66
  -8  10  -4    9.05    0.74
  -8  10  -4    8.25    0.72
  10 -10   4    0.07    0.26
 -10 -10  -4   -0.04    0.35
 -10  10  -4   -0.14    0.37
  10  10   4   -0.01    0.28
 -10  10  -4   -0.17    0.34
 -12 -10  -4    1.01    0.44
  12 -10   4    1.60    0.37
  12  10   4    1.15    0.37
 -12  10  -4    0.99    0.45
 -12  10  -4    1.31    0.46
  14 -10   4    3.28    0.46
 -14 -10  -4    3.78    0.61
  14  10   4    3.54    0.57
 -14  10  -4    3.78    0.63
 -14  10  -4    4.01    0.65
  16 -10   4    0.38    0.33
  16  10   4    0.45    0.40
 -16  10  -4    0.70    0.50
 -16  10  -4    0.26    0.46
 -19 -11   4    2.40    0.64
  19  11  -4    1.53    0.47
 -19  11   4    1.30    0.23
 -17 -11   4    0.42    0.46
  17  11  -4    2.30    0.50
 -17  11   4    1.35    0.25
 -17  11   4    1.22    0.38
 -15 -11   4    2.96    0.60
  15  11  -4    3.70    0.55
 -15  11   4    4.02    0.52
 -15  11   4    3.04    0.30
 -15  11   4    3.18    0.30
 -13 -11   4    0.62    0.43
 -13  11   4    0.33    0.33
  13  11  -4    0.74    0.37
 -13  11   4    0.76    0.21
 -13  11   4    0.61    0.22
 -11 -11   4    2.84    0.48
  11 -11  -4    3.31    0.28
 -11  11   4    2.75    0.42
 -11  11   4    2.67    0.30
  11  11  -4    2.69    0.47
 -11  11   4    2.62    0.28
   9 -11  -4    3.39    0.30
  -9 -11   4    2.84    0.48
  -9  11   4    3.05    0.30
   9  11  -4    1.79    0.41
  -9  11   4    2.93    0.32
  -9  11   4    3.08    0.42
   7 -11  -4    5.58    0.38
  -7 -11   4    5.29    0.52
  -7  11   4    5.35    0.40
  -7  11   4    5.79    0.41
   7  11  -4    4.99    0.53
  -5 -11   4    8.02    0.57
   5 -11  -4    7.43    0.45
   5  11  -4    7.03    0.60
  -5  11   4    7.33    0.48
  -5  11   4    8.36    0.40
  -5  11   4    8.09    0.48
   5  11  -4    7.58    0.43
   3 -11  -4    5.38    0.41
  -3 -11   4    4.00    0.43
   3  11  -4    4.56    0.38
   3  11  -4    5.22    0.50
  -3  11   4    4.10    0.41
  -3  11   4    4.59    0.35
  -3  11   4    4.51    0.41
  -1 -11   4    6.48    0.52
   1 -11  -4    6.88    0.49
  -1  11   4    6.71    0.43
   1  11  -4    6.56    0.53
   1  11  -4    6.20    0.47
  -1  11   4    7.23    0.52
  -1 -11  -4    8.18    0.56
   1  11   4    7.85    0.58
   1  11   4    7.87    0.50
  -1  11  -4    7.40    0.54
  -1  11  -4    7.80    0.57
   3 -11   4   51.29    1.60
  -3 -11  -4   50.25    1.59
   3  11   4   50.90    1.63
   3  11   4   50.75    1.53
  -3  11  -4   49.97    1.51
  -3  11  -4   47.86    1.54
   5 -11   4   14.60    0.76
  -5 -11  -4   13.22    0.75
   5  11   4   12.42    0.72
  -5  11  -4   12.37    0.73
  -5  11  -4   12.28    0.67
   5  11   4   13.33    0.83
   7 -11   4    5.60    0.57
  -7 -11  -4    6.53    0.65
   7  11   4    6.64    0.61
  -7  11  -4    6.84    0.65
   9 -11   4   11.59    0.71
  -9 -11  -4   10.42    0.78
  -9  11  -4   10.08    0.78
   9  11   4   11.46    0.76
  -9  11  -4   11.62    0.82
 -11 -11  -4   12.56    0.84
  11 -11   4   12.88    0.74
 -11  11  -4   13.92    0.89
  11  11   4   13.80    0.84
 -11  11  -4   15.85    0.94
  13 -11   4    1.59    0.38
 -13 -11  -4    0.98    0.44
 -13  11  -4    1.87    0.53
  13  11   4    1.57    0.45
 -13  11  -4    1.71    0.48
  15 -11   4    1.71    0.40
  15  11   4    1.26    0.46
 -15  11  -4    1.19    0.47
 -15  11  -4    1.47    0.49
 -20 -12   4    0.75    0.56
  20  12  -4    0.55    0.45
 -18 -12   4   10.65    1.01
  18  12  -4   11.68    0.87
 -16 -12   4    5.16    0.74
  16  12  -4    5.72    0.68
 -16  12   4    5.45    0.59
 -14 -12   4    8.88    0.81
 -14  12   4    8.48    0.40
 -14  12   4    8.53    0.39
  14  12  -4    8.33    0.77
 -14  12   4    9.43    0.69
 -12 -12   4    0.72    0.46
  12  12  -4    1.45    0.42
 -12  12   4    1.10    0.23
 -12  12   4    0.89    0.37
 -12  12   4    1.22    0.23
 -10 -12   4   10.70    0.79
  10 -12  -4   10.75    0.45
 -10  12   4   10.63    0.48
  10  12  -4    9.91    0.73
 -10  12   4   10.02    0.46
 -10  12   4   10.13    0.67
   8 -12  -4    3.65    0.32
  -8 -12   4    3.73    0.51
  -8  12   4    4.21    0.35
  -8  12   4    4.00    0.34
   8  12  -4    3.60    0.48
  -6 -12   4    1.97    0.37
   6 -12  -4    1.87    0.28
  -6  12   4    1.82    0.28
   6  12  -4    2.07    0.39
  -6  12   4    1.92    0.30
   4 -12  -4    5.29    0.42
  -4 -12   4    6.47    0.55
  -4  12   4    4.41    0.35
   4  12  -4    6.08    0.56
  -4  12   4    5.76    0.43
   4  12  -4    5.62    0.40
  -4  12   4    5.57    0.43
   2 -12  -4    8.42    0.54
  -2 -12   4    8.35    0.56
   2  12  -4    8.94    0.54
   2  12  -4    9.04    0.60
  -2  12   4    9.58    0.58
  -2  12   4    7.76    0.45
   0 -12  -4    9.81    0.60
   0  12  -4   10.64    0.63
   0  12  -4   10.15    0.60
   0  12   4    9.89    0.63
   0  12   4   10.46    0.55
  -2 -12  -4    9.01    0.61
  -2  12  -4    9.48    0.60
   2  12   4    9.77    0.55
   2  12   4    9.87    0.67
  -2  12  -4    8.61    0.57
  -4 -12  -4    3.10    0.47
   4 -12   4    3.82    0.49
  -4  12  -4    4.17    0.51
  -4  12  -4    3.80    0.43
   4  12   4    3.77    0.50
   4  12   4    4.00    0.47
   6 -12   4   17.67    0.88
  -6 -12  -4   19.35    0.95
   6  12   4   19.32    0.89
   6  12   4   18.77    0.95
  -6  12  -4   18.91    0.96
   8 -12   4    5.54    0.55
  -8 -12  -4    5.28    0.62
   8  12   4    5.19    0.57
  -8  12  -4    4.75    0.56
 -10 -12  -4    8.59    0.70
  10 -12   4    8.27    0.63
  10  12   4   10.26    0.75
 -10  12  -4    9.09    0.72
 -10  12  -4   10.07    0.78
 -12 -12  -4    1.78    0.50
  12 -12   4    2.19    0.40
  12  12   4    3.13    0.52
 -12  12  -4    2.31    0.51
 -12  12  -4    2.73    0.55
  14 -12   4    6.08    0.59
 -14 -12  -4    5.77    0.72
  14  12   4    4.99    0.65
 -14  12  -4    5.86    0.71
 -14  12  -4    5.80    0.74
  16 -12   4    3.74    0.51
  16  12   4    3.36    0.60
 -16  12  -4    4.41    0.68
 -16  12  -4    3.75    0.65
 -19 -13   4    0.78    0.56
  19  13  -4    1.21    0.47
 -17 -13   4   14.48    1.05
  17  13  -4   14.85    0.96
 -17  13   4   14.44    0.86
 -15 -13   4    0.01    0.47
 -15  13   4    0.21    0.34
  15  13  -4    0.41    0.38
 -13 -13   4    4.41    0.64
  13  13  -4    3.13    0.55
 -13  13   4    2.83    0.25
 -13  13   4    3.21    0.47
 -13  13   4    3.11    0.25
 -11 -13   4    2.56    0.51
 -11  13   4    3.13    0.47
 -11  13   4    3.12    0.27
 -11  13   4    2.86    0.28
  11  13  -4    2.76    0.51
  -9 -13   4   21.04    1.01
   9 -13  -4   20.40    0.70
  -9  13   4   20.16    0.93
  -9  13   4   21.89    0.73
   9  13  -4   21.91    1.03
  -9  13   4   21.50    0.73
  -7 -13   4    1.02    0.37
   7 -13  -4    1.23    0.25
   7  13  -4    1.95    0.42
  -7  13   4    1.58    0.29
  -7  13   4    1.76    0.27
  -5 -13   4    0.15    0.28
   5 -13  -4    0.57    0.23
   5  13  -4    0.33    0.31
   5  13  -4    0.08    0.19
  -5  13   4   -0.41    0.22
  -5  13   4    0.07    0.21
   3 -13  -4   25.56    0.94
   3  13  -4   26.83    1.07
  -3  13   4   27.02    0.98
  -3  13   4   27.51    0.88
   3  13  -4   27.87    0.91
   1 -13  -4   33.76    1.11
   1  13  -4   32.23    1.08
   1  13  -4   32.26    1.17
  -1  13   4   31.10    1.13
  -1  13   4   31.34    1.04
  -1 -13  -4   16.27    0.79
  -1  13  -4   17.55    0.81
  -1  13  -4   17.62    0.80
   1  13   4   15.92    0.74
   1  13   4   17.69    0.84
  -3 -13  -4    1.02    0.34
   3 -13   4    1.41    0.35
   3  13   4    0.94    0.32
  -3  13  -4    0.86    0.34
  -3  13  -4    1.19    0.31
   3  13   4    1.12    0.40
   5 -13   4   68.42    2.03
  -5 -13  -4   66.23    2.03
   5  13   4   68.15    2.01
   5  13   4   66.68    2.10
  -7 -13  -4    1.89    0.43
   7 -13   4    2.71    0.43
  -7  13  -4    2.20    0.46
   7  13   4    2.85    0.46
   9 -13   4   13.89    0.76
  -9 -13  -4   15.04    0.90
   9  13   4   13.57    0.84
  -9  13  -4   14.46    0.90
  11 -13   4   10.95    0.69
 -11 -13  -4   10.92    0.84
 -11  13  -4   10.24    0.88
  11  13   4   10.33    0.75
 -13 -13  -4    1.07    0.48
  13 -13   4    0.65    0.32
  13  13   4    0.86    0.40
 -13  13  -4    1.61    0.49
 -13  13  -4    0.29    0.45
  15 -13   4    3.80    0.52
  15  13   4    2.42    0.53
 -15  13  -4    3.52    0.62
 -15  13  -4    5.67    0.76
 -18 -14   4    0.76    0.54
 -18  14   4    1.65    0.45
  18  14  -4    1.57    0.50
 -16 -14   4    0.66    0.49
  16  14  -4    0.83    0.42
 -16  14   4    0.91    0.39
 -14 -14   4    5.25    0.73
 -14  14   4    5.05    0.58
  14  14  -4    4.20    0.59
 -12 -14   4    6.50    0.71
 -12  14   4    7.37    0.34
 -12  14   4    6.86    0.35
 -12  14   4    6.38    0.63
  12  14  -4    7.00    0.72
 -10 -14   4    3.25    0.57
 -10  14   4    3.44    0.30
 -10  14   4    3.60    0.49
  10  14  -4    3.84    0.56
 -10  14   4    4.00    0.32
   8 -14  -4   24.18    0.79
  -8 -14   4   23.13    1.06
  -8  14   4   24.67    0.80
  -8  14   4   22.94    0.80
   8  14  -4   23.33    1.08
  -6 -14   4    5.36    0.58
   6 -14  -4    6.58    0.43
   6  14  -4    4.50    0.54
  -6  14   4    4.97    0.42
  -6  14   4    4.98    0.41
   4 -14  -4   19.61    0.78
   4  14  -4   21.26    0.95
  -4  14   4   19.42    0.81
   4  14  -4   20.84    0.76
   2 -14  -4    1.87    0.34
   2  14  -4    1.56    0.30
  -2  14   4    2.13    0.30
  -2  14   4    1.85    0.36
   2  14  -4    2.25    0.40
   0 -14  -4   34.85    1.21
   0  14   4   35.80    1.16
   0  14  -4   36.05    1.24
   0  14   4   34.58    1.25
   0  14  -4   36.70    1.18
  -2 -14  -4    3.17    0.45
  -2  14  -4    3.48    0.45
   2  14   4    3.29    0.48
  -2  14  -4    3.20    0.41
   2  14   4    3.01    0.41
  -4 -14  -4   27.83    1.12
   4 -14   4   26.86    1.12
   4  14   4   29.41    1.20
   4  14   4   28.39    1.10
  -4  14  -4   28.79    1.03
  -4  14  -4   28.27    1.14
  -6 -14  -4    8.10    0.72
   6 -14   4    7.93    0.67
  -6  14  -4    8.69    0.67
   6  14   4    7.27    0.72
   6  14   4    8.20    0.60
   8 -14   4    3.83    0.51
  -8 -14  -4    4.80    0.61
  -8  14  -4    3.42    0.54
   8  14   4    4.43    0.54
 -10 -14  -4    4.55    0.62
  10 -14   4    4.27    0.51
  10  14   4    5.31    0.61
 -10  14  -4    4.33    0.61
  12 -14   4    4.80    0.53
 -12 -14  -4    4.70    0.68
  12  14   4    4.14    0.58
 -12  14  -4    4.55    0.65
  14 -14   4    4.24    0.52
 -14  14  -4    5.68    0.73
  14  14   4    2.70    0.56
  19  15  -4    3.16    0.61
 -17  15   4    2.15    0.49
  17  15  -4    2.13    0.52
  15  15  -4    5.13    0.68
 -15  15   4    4.78    0.61
  13  15  -4    2.57    0.49
 -13  15   4    2.05    0.44
  11  15  -4    2.06    0.47
 -11  15   4    2.53    0.45
 -11  15   4    2.58    0.26
 -11  15   4    3.24    0.26
   9 -15  -4    2.36    0.27
  -9  15   4    1.55    0.40
   9  15  -4    2.28    0.47
  -9  15   4    2.20    0.28
  -9  15   4    1.93    0.28
   7 -15  -4    6.45    0.43
  -7  15   4    5.93    0.46
  -7  15   4    5.88    0.44
   7  15  -4    6.10    0.62
   5 -15  -4   15.66    0.67
   5  15  -4   16.70    0.64
   5  15  -4   17.73    0.89
  -5  15   4   15.51    0.70
   3 -15  -4   45.33    1.39
   3  15  -4   46.42    1.33
  -3  15   4   45.66    1.43
   3  15  -4   46.44    1.54
   1 -15  -4    1.00    0.32
  -1  15   4    1.24    0.36
   1  15  -4    0.87    0.32
  -1  15   4    1.79    0.29
   1  15  -4    1.76    0.34
  -1 -15  -4   10.36    0.65
  -1  15  -4   11.10    0.66
   1  15   4   10.41    0.62
   1  15   4   10.95    0.71
  -1  15  -4    9.77    0.66
  -3 -15  -4   35.63    1.32
   3  15   4   35.48    1.36
   3  15   4   35.50    1.26
  -3  15  -4   36.15    1.30
  -3  15  -4   38.02    1.24
  -5 -15  -4   13.96    0.83
   5 -15   4   13.23    0.81
   5  15   4   15.24    0.79
  -5  15  -4   14.37    0.87
   5  15   4   15.52    0.88
  -7 -15  -4    1.29    0.43
   7 -15   4    1.57    0.37
   7  15   4    1.63    0.40
  -7  15  -4    1.11    0.43
   9 -15   4    7.85    0.63
  -9 -15  -4    6.15    0.70
  -9  15  -4    8.17    0.74
   9  15   4    7.62    0.71
  11 -15   4   10.46    0.68
 -11 -15  -4    8.69    0.82
 -11  15  -4    9.19    0.84
  11  15   4    9.17    0.82
  13 -15   4   12.22    0.73
 -13 -15  -4   12.27    0.92
 -13  15  -4    9.57    0.89
  13  15   4   10.50    0.84
 -15  15  -4    1.90    0.55
  15  15   4    1.41    0.50
  18  16  -4    3.44    0.64
 -18  16   4    3.56    0.58
  16  16  -4    0.53    0.40
 -16  16   4    0.23    0.34
 -14  16   4   18.44    0.97
  14  16  -4   18.16    1.04
 -12  16   4    1.51    0.42
  12  16  -4    1.36    0.45
  10  16  -4    0.34    0.34
 -10  16   4    0.18    0.20
 -10  16   4    0.09    0.20
 -10  16   4    0.50    0.33
   8 -16  -4    6.82    0.43
  -8  16   4    7.73    0.46
  -8  16   4    7.57    0.47
  -8  16   4    6.95    0.64
   8  16  -4    8.56    0.75
   6 -16  -4   28.57    0.95
  -6  16   4   28.64    0.98
   6  16  -4   28.40    1.20
   4 -16  -4    3.83    0.41
  -4  16   4    3.47    0.43
   4  16  -4    3.65    0.38
   4  16  -4    3.79    0.51
   2 -16  -4   30.00    1.07
  -2  16   4   28.94    1.09
   2  16  -4   29.20    1.16
   2  16  -4   30.80    1.04
   0 -16  -4    4.17    0.47
   0  16   4    3.70    0.41
   0  16  -4    3.30    0.44
   0  16  -4    4.37    0.51
   0  16   4    4.12    0.50
  -2 -16  -4   26.62    1.09
   2  16   4   27.12    1.16
   2  16   4   29.86    1.09
  -2  16  -4   30.56    1.14
  -2  16  -4   28.29    1.07
   4 -16   4   10.12    0.68
  -4 -16  -4    9.51    0.70
   4  16   4    8.76    0.65
  -4  16  -4    9.52    0.74
   4  16   4    9.25    0.75
   6 -16   4    5.48    0.58
  -6 -16  -4    5.80    0.64
   6  16   4    4.95    0.63
  -6  16  -4    4.62    0.57
   6  16   4    4.69    0.55
   8 -16   4   17.39    0.86
  -8 -16  -4   15.20    0.93
  -8  16  -4   15.53    0.97
   8  16   4   16.37    0.89
  10 -16   4    1.26    0.36
 -10 -16  -4    0.93    0.43
 -10  16  -4    1.75    0.48
  10  16   4    1.22    0.38
  12 -16   4   11.18    0.72
 -12 -16  -4   11.68    0.91
 -12  16  -4   11.93    0.88
  12  16   4   11.56    0.86
  14 -16   4    1.63    0.39
 -14  16  -4    0.57    0.46
  14  16   4    1.09    0.48
 -17  17   4    6.83    0.74
  17  17  -4    7.37    0.82
 -15  17   4    2.34    0.49
  15  17  -4    1.23    0.47
  13  17  -4    1.27    0.46
 -13  17   4    2.18    0.49
 -11  17   4    7.43    0.36
 -11  17   4    7.40    0.67
  11  17  -4    8.00    0.78
 -11  17   4    8.35    0.39
  -9  17   4    7.47    0.67
  -9  17   4    9.47    0.47
   9  17  -4    7.22    0.72
  -9  17   4    7.81    0.45
   7 -17  -4   12.33    0.57
  -7  17   4   11.43    0.58
   7  17  -4   13.11    0.84
   5 -17  -4    3.11    0.37
   5  17  -4    2.14    0.43
  -5  17   4    2.34    0.37
   3 -17  -4   21.48    0.88
   3  17  -4   21.52    0.85
   3  17  -4   23.99    1.04
  -3  17   4   22.48    0.91
   1 -17  -4    0.74    0.31
  -1  17   4    2.14    0.41
   1  17  -4    1.71    0.35
   1  17  -4    0.52    0.33
  -1 -17  -4   11.36    0.71
   1  17   4   12.84    0.68
  -1  17  -4   11.77    0.71
   1  17   4   12.27    0.77
  -1  17  -4   11.70    0.69
  -3 -17  -4    0.75    0.36
   3  17   4    1.20    0.35
   3  17   4    1.26    0.40
  -3  17  -4    0.89    0.39
  -5 -17  -4   -0.21    0.32
   5 -17   4    0.26    0.33
   5  17   4    0.29    0.33
  -5  17  -4    0.05    0.35
   5  17   4    0.06    0.38
   7 -17   4   13.17    0.77
  -7 -17  -4   12.49    0.84
   7  17   4   11.94    0.79
  -7  17  -4   12.48    0.81
  -9 -17  -4    2.58    0.50
   9 -17   4    2.70    0.45
   9  17   4    2.21    0.47
  -9  17  -4    2.20    0.52
  11 -17   4    0.13    0.28
 -11 -17  -4    0.86    0.41
 -11  17  -4    1.67    0.47
  11  17   4   -0.18    0.34
  13 -17   4    0.40    0.30
  13  17   4    0.47    0.39
 -13  17  -4    0.45    0.43
 -18  18   4    1.38    0.48
  18  18  -4    1.37    0.53
  16  18  -4    2.64    0.59
 -16  18   4    2.08    0.51
 -14  18   4    5.52    0.66
  14  18  -4    4.06    0.66
  12  18  -4    1.70    0.47
 -12  18   4    1.79    0.45
 -10  18   4    3.01    0.29
 -10  18   4    4.08    0.33
  10  18  -4    3.42    0.56
 -10  18   4    3.63    0.53
   8 -18  -4    5.73    0.40
  -8  18   4    6.26    0.45
  -8  18   4    6.07    0.61
   8  18  -4    4.29    0.62
   6 -18  -4   11.64    0.59
   6  18  -4   11.27    0.79
  -6  18   4   12.42    0.63
   4 -18  -4    5.93    0.50
  -4  18   4    5.83    0.52
   4  18  -4    4.76    0.58
   4  18  -4    5.36    0.44
   2 -18  -4    3.14    0.42
  -2  18   4    3.36    0.47
   2  18  -4    3.13    0.49
   2  18  -4    3.01    0.41
   0 -18  -4   23.33    1.01
   0  18   4   26.28    1.10
   0  18  -4   26.17    1.03
   0  18  -4   27.40    1.09
  -2 -18  -4    1.41    0.39
   2  18   4    1.01    0.41
   2  18   4    1.22    0.34
  -2  18  -4    1.49    0.39
  -4 -18  -4    1.12    0.38
   4  18   4    1.43    0.39
   4  18   4    1.61    0.46
  -4  18  -4    0.85    0.36
   6 -18   4    3.75    0.50
  -6 -18  -4    2.66    0.50
  -6  18  -4    2.92    0.52
   6  18   4    3.05    0.55
   6  18   4    3.46    0.52
   8 -18   4    4.34    0.53
  -8 -18  -4    4.26    0.61
   8  18   4    3.65    0.54
  -8  18  -4    2.55    0.50
  10 -18   4    0.20    0.30
 -10 -18  -4    0.34    0.40
 -10  18  -4   -0.60    0.36
  10  18   4    0.00    0.30
  12 -18   4    0.01    0.28
  12  18   4    0.10    0.36
 -12  18  -4    0.16    0.41
 -14  18  -4    6.02    0.78
  14  18   4    6.32    0.78
 -17  19   4    0.44    0.41
  17  19  -4    0.87    0.49
 -15  19   4    0.26    0.39
  15  19  -4    0.75    0.42
  13  19  -4    4.05    0.66
 -13  19   4    4.63    0.61
 -11  19   4    1.76    0.23
 -11  19   4    1.65    0.21
  11  19  -4    2.98    0.53
 -11  19   4    2.20    0.45
   9  19  -4    1.75    0.43
  -9  19   4    1.53    0.28
  -9  19   4    0.83    0.39
   7 -19  -4   12.47    0.59
   7  19  -4   12.74    0.82
  -7  19   4   12.03    0.62
   5 -19  -4    6.60    0.48
  -5  19   4    6.89    0.55
   5  19  -4    7.42    0.71
   3 -19  -4    3.70    0.44
   3  19  -4    3.77    0.53
  -3  19   4    3.54    0.46
   3  19  -4    4.43    0.45
   1 -19  -4    9.62    0.63
   1  19  -4   10.15    0.67
  -1  19   4    8.87    0.69
   1  19  -4    8.69    0.67
  -1 -19  -4    1.10    0.36
  -1  19  -4    0.98    0.35
   1  19   4    0.50    0.36
  -3 -19  -4    3.00    0.49
  -3  19  -4    4.19    0.52
   3  19   4    3.27    0.53
   3  19   4    3.66    0.49
   5 -19   4    7.66    0.69
  -5 -19  -4    6.78    0.68
  -5  19  -4    8.50    0.75
   5  19   4    7.87    0.77
   5  19   4    7.53    0.68
  -7 -19  -4    2.91    0.50
   7 -19   4    3.73    0.52
  -7  19  -4    4.28    0.58
   7  19   4    3.97    0.56
  -9 -19  -4    3.65    0.61
   9 -19   4    3.13    0.48
   9  19   4    2.52    0.49
  -9  19  -4    3.59    0.58
  11 -19   4    2.03    0.40
  11  19   4    1.52    0.47
 -11  19  -4    2.68    0.56
  13  19   4    1.75    0.52
 -13  19  -4    2.29    0.59
  16  20  -4   -0.24    0.40
 -16  20   4    0.71    0.43
  14  20  -4   -0.08    0.39
 -14  20   4    1.74    0.48
  12  20  -4    0.67    0.44
 -12  20   4    0.68    0.39
  10  20  -4    3.70    0.61
 -10  20   4    2.51    0.28
 -10  20   4    2.76    0.48
   8  20  -4    4.61    0.64
  -8  20   4    5.85    0.63
  -8  20   4    4.65    0.42
   6 -20  -4    1.56    0.32
   6  20  -4    2.61    0.51
  -6  20   4    1.30    0.33
   4 -20  -4    1.52    0.33
   4  20  -4    1.47    0.43
  -4  20   4    1.45    0.37
   2 -20  -4    0.13    0.28
  -2  20   4    0.01    0.33
   2  20  -4    0.38    0.30
   2  20  -4    0.06    0.31
   0 -20  -4   13.14    0.77
   0  20  -4   11.56    0.74
   0  20   4   12.45    0.79
  -2 -20  -4    1.95    0.42
  -2  20  -4    2.46    0.45
   2  20   4    2.02    0.45
  -4 -20  -4    4.28    0.56
   4  20   4    4.07    0.53
  -4  20  -4    3.16    0.52
   4  20   4    3.25    0.55
   6 -20   4    5.70    0.62
  -6 -20  -4    5.11    0.64
   6  20   4    5.79    0.61
  -6  20  -4    5.53    0.65
  -8 -20  -4    0.72    0.41
   8 -20   4    1.73    0.42
   8  20   4    0.74    0.40
  -8  20  -4    0.26    0.41
  10 -20   4    3.05    0.48
  10  20   4    1.92    0.47
 -10  20  -4    3.34    0.60
 -12  20  -4    3.59    0.66
  12  20   4    2.64    0.58
  15  21  -4    1.51    0.52
 -15  21   4    3.08    0.60
 -13  21   4    0.57    0.40
  13  21  -4    0.93    0.45
  11  21  -4    9.03    0.87
 -11  21   4    8.71    0.81
 -11  21   4    8.96    0.40
  -9  21   4    3.48    0.36
  -9  21   4    3.80    0.55
   9  21  -4    5.60    0.69
   7 -21  -4    3.88    0.39
  -7  21   4    5.24    0.46
   7  21  -4    4.00    0.61
   5 -21  -4    1.04    0.30
   5  21  -4    2.42    0.50
  -5  21   4    1.65    0.36
   3 -21  -4    8.67    0.60
  -3  21   4    9.25    0.65
   3  21  -4    9.30    0.75
   1 -21  -4   23.30    1.00
   1  21  -4   21.83    0.93
   1  21  -4   23.47    1.05
  -1  21   4   20.67    1.00
  -1 -21  -4    3.48    0.49
  -1  21  -4    3.53    0.48
   1  21   4    4.01    0.57
  -3 -21  -4    4.02    0.55
   3  21   4    3.82    0.56
  -3  21  -4    2.78    0.48
  -5 -21  -4    1.59    0.44
  -5  21  -4    1.31    0.44
   5  21   4    1.81    0.50
   5  21   4    2.01    0.44
  -7 -21  -4    4.05    0.60
   7 -21   4    2.69    0.47
  -7  21  -4    4.46    0.62
   7  21   4    3.47    0.55
   9 -21   4    1.92    0.42
   9  21   4    3.45    0.55
  -9  21  -4    2.11    0.53
  11 -21   4    2.13    0.42
 -11  21  -4    2.21    0.57
  11  21   4    0.44    0.44
  16  22  -4    2.95    0.65
 -16  22   4    3.30    0.59
 -14  22   4    3.45    0.58
  14  22  -4    4.63    0.70
 -12  22   4    0.70    0.43
  12  22  -4    0.20    0.42
  10  22  -4    0.74    0.43
 -10  22   4    0.21    0.36
 -10  22   4    0.69    0.22
   8  22  -4    4.31    0.63
  -8  22   4    4.79    0.43
   6 -22  -4    1.07    0.30
  -6  22   4    1.27    0.35
   6  22  -4    0.91    0.42
   4 -22  -4    1.45    0.35
   4  22  -4    2.38    0.49
  -4  22   4    1.64    0.39
   2 -22  -4   17.37    0.86
  -2  22   4   16.67    0.87
   2  22  -4   17.93    0.84
   2  22  -4   18.70    0.97
   0 -22  -4   11.37    0.72
   0  22   4   10.24    0.75
   0  22  -4   12.74    0.76
  -2 -22  -4   -0.14    0.30
  -2  22  -4    0.70    0.37
   2  22   4   -0.30    0.35
  -4 -22  -4    0.56    0.37
  -4  22  -4    0.40    0.37
   4  22   4    0.32    0.42
   6 -22   4    5.44    0.62
  -6 -22  -4    4.62    0.63
  -6  22  -4    3.34    0.58
   6  22   4    3.67    0.55
   8 -22   4    0.61    0.35
   8  22   4    0.28    0.34
  -8  22  -4    0.71    0.41
  10 -22   4    1.98    0.41
  10  22   4    1.69    0.48
 -10  22  -4    1.36    0.50
 -12  22  -4    1.13    0.53
  12  22   4    1.46    0.54
 -15  23   4    1.76    0.52
  15  23  -4    1.59    0.58
  13  23  -4    2.91    0.63
 -13  23   4    2.68    0.56
 -11  23   4    2.20    0.48
  11  23  -4    1.25    0.46
  -9  23   4    9.34    0.53
   9  23  -4   10.87    0.96
  -9  23   4    9.42    0.83
  -7  23   4    0.37    0.28
   7  23  -4    0.03    0.37
   5 -23  -4    0.71    0.31
   5  23  -4    0.94    0.43
  -5  23   4    0.89    0.33
   3 -23  -4   20.26    0.90
  -3  23   4   17.43    0.89
   3  23  -4   21.09    1.06
   1 -23  -4    3.22    0.47
  -1  23   4    4.60    0.57
   1  23  -4    3.37    0.47
  -1 -23  -4    4.82    0.56
  -1  23  -4    3.89    0.51
   1  23   4    3.72    0.57
  -3 -23  -4    8.70    0.71
   3  23   4    8.10    0.80
  -3  23  -4    9.82    0.75
  -5 -23  -4    2.33    0.49
  -5  23  -4    4.08    0.59
   5  23   4    3.63    0.61
   7 -23   4    1.53    0.42
  -7  23  -4    1.09    0.46
   7  23   4    1.81    0.46
   9 -23   4    4.25    0.56
   9  23   4    4.73    0.65
  -9  23  -4    3.05    0.59
 -11  23  -4    4.86    0.70
  11  23   4    4.92    0.72
  14  24  -4    4.49    0.76
 -14  24   4    3.42    0.64
  12  24  -4    0.33    0.45
 -12  24   4    0.33    0.36
 -10  24   4    0.36    0.41
 -10  24   4    1.54    0.26
  10  24  -4    0.69    0.47
  -8  24   4    5.85    0.48
   8  24  -4    5.83    0.73
   6  24  -4    1.78    0.51
  -6  24   4    1.50    0.37
  -4  24   4    6.72    0.61
   4  24  -4    5.73    0.68
   2 -24  -4    0.58    0.34
  -2  24   4    0.77    0.40
   0 -24  -4    0.09    0.32
   0  24   4    0.45    0.38
   0  24  -4    0.26    0.34
  -2 -24  -4   11.91    0.80
  -2  24  -4   12.13    0.80
   2  24   4   12.36    0.86
  -4  24  -4    1.56    0.45
   4  24   4    1.57    0.50
   6 -24   4    5.40    0.62
  -6  24  -4    6.54    0.72
   8 -24   4    9.21    0.73
   8  24   4    9.62    0.89
  -8  24  -4    9.79    0.89
 -10  24  -4    1.21    0.50
  10  24   4    1.67    0.52
 -13  25   4    0.82    0.46
  13  25  -4    1.52    0.53
 -11  25   4    5.55    0.73
  11  25  -4    5.63    0.77
  -9  25   4    7.43    0.49
  -9  25   4    5.92    0.70
   9  25  -4    6.12    0.76
  -7  25   4    3.12    0.43
   7  25  -4    4.57    0.67
   5  25  -4    0.59    0.42
  -5  25   4    0.01    0.32
  -3  25   4    3.06    0.49
   1  25  -4    5.79    0.58
  -1  25   4    6.16    0.66
   1  25   4    3.06    0.55
  -1  25  -4    2.26    0.46
  -3  25  -4    0.09    0.35
   3  25   4    0.93    0.45
  -5  25  -4    2.11    0.50
   5  25   4    1.18    0.51
   7 -25   4    8.60    0.78
  -7  25  -4    7.16    0.79
   9 -25   4    0.69    0.37
  -9  25  -4   -0.16    0.38
  12  26  -4    2.56    0.65
 -12  26   4    3.13    0.58
 -10  26   4    0.48    0.24
 -10  26   4    0.34    0.41
  10  26  -4    0.10    0.45
  -8  26   4    1.56    0.34
   8  26  -4    1.37    0.52
   6  26  -4    0.62    0.43
  -6  26   4    0.04    0.31
  -4  26   4    3.60    0.51
  -2  26   4    3.05    0.53
   0  26   4   19.37    1.05
   0  26  -4   18.84    0.98
  -2  26  -4    1.56    0.43
   2  26   4    1.80    0.50
   4  26   4    1.85    0.53
  -4  26  -4    1.10    0.44
   6 -26   4    3.86    0.60
  -6  26  -4    4.57    0.66
   8 -26   4    1.74    0.44
  -8  26  -4    1.53    0.51
  11  27  -4    0.12    0.42
 -11  27   4    0.50    0.45
  -9  27   4    0.80    0.29
   9  27  -4    0.62    0.47
  -7  27   4    0.07    0.32
   7  27  -4    0.37    0.45
  -5  27   4    4.92    0.55
  -3  27   4    0.61    0.36
  -1  27   4    0.57    0.41
   1  27   4    8.03    0.80
  -1  27  -4    8.24    0.74
  -3  27  -4    4.89    0.64
   3  27   4    4.91    0.68
  -5  27  -4    6.22    0.73
   7 -27   4    4.40    0.62
  -7  27  -4    5.44    0.71
 -10  28   4   -0.08    0.22
  10  28  -4    0.32    0.49
  -8  28   4    2.93    0.40
  -6  28   4    0.13    0.32
  -4  28   4    1.18    0.41
  -2  28   4    1.21    0.45
   0  28   4    1.24    0.48
  -2  28  -4    4.82    0.61
   2  28   4    6.24    0.76
   4  28   4    1.29    0.53
  -4  28  -4    1.14    0.44
   6 -28   4    1.91    0.52
  -6  28  -4    1.20    0.48
  -9  29   4    1.70    0.34
  -7  29   4    4.29    0.49
  -5  29   4   -0.05    0.33
  -3  29   4    4.52    0.59
  -1  29   4    2.06    0.52
   1  29   4    0.67    0.46
  -1  29  -4    0.83    0.41
  -3  29  -4   11.83    0.90
   3  29   4   12.99    0.99
  -5  29  -4    2.50    0.57
  -6  30   4    1.14    0.37
  -4  30   4    0.92    0.43
  -2  30   4    2.53    0.54
   0  30   4    1.01    0.47
  -2  30  -4    4.70    0.64
   2  30   4    4.24    0.68
   4  30   4    0.77    0.49
  -3  31   4    2.05    0.49
  -1  31   4    2.61    0.56
   1  31   4    1.04    0.47
 -20   0   5   -0.19    0.39
  20   0  -5    0.29    0.34
  18   0  -5    0.13    0.32
 -18   0   5    0.71    0.41
 -16   0   5    0.34    0.37
  16   0  -5   -0.42    0.28
 -14   0   5    0.04    0.35
  14   0  -5    0.22    0.30
 -12   0   5    0.04    0.30
  12   0  -5    0.08    0.29
  10   0  -5    0.25    0.27
 -10   0   5   -0.14    0.29
  -8   0   5   -0.07    0.22
  -8   0   5    0.04    0.26
   8   0  -5   -0.20    0.23
  -6   0   5    0.08    0.23
  -6   0   5   -0.18    0.21
   6   0  -5   -0.11    0.23
  -6   0   5    0.05    0.26
   4   0  -5    0.22    0.24
  -4   0   5   -0.02    0.25
  -4   0   5    0.06    0.22
  -4   0   5   -0.04    0.19
  -2   0   5    0.18    0.21
  -2   0   5    0.15    0.21
  -2   0   5    0.09    0.26
   2   0  -5   -0.12    0.22
   0   0   5   -0.26    0.23
   0   0  -5   -0.04    0.24
   0   0   5    0.00    0.24
   0   0  -5    0.15    0.25
   0   0   5   -0.23    0.21
   2   0   5    0.29    0.26
  -2   0  -5   -0.42    0.28
  -2   0  -5    0.03    0.23
   2   0   5    0.03    0.24
   2   0   5   -0.17    0.26
   4   0   5    0.10    0.27
  -4   0  -5   -0.19    0.30
   4   0   5   -0.22    0.25
  -4   0  -5   -0.10    0.29
   6   0   5   -0.12    0.27
  -6   0  -5    0.33    0.32
  -6   0  -5    0.29    0.36
   8   0   5    0.18    0.29
  -8   0  -5   -0.32    0.38
  -8   0  -5    0.38    0.34
 -10   0  -5   -0.19    0.39
  10   0   5   -0.45    0.25
 -10   0  -5    0.09    0.33
 -12   0  -5   -0.13    0.42
  12   0   5    0.01    0.30
  14   0   5   -0.13    0.32
 -14   0  -5   -0.14    0.46
  16   0   5    0.40    0.37
 -16   0  -5   -0.46    0.45
 -16   0  -5    0.38    0.48
 -21  -1   5    0.67    0.45
 -21   1   5    0.28    0.41
  21   1  -5    0.83    0.42
 -19  -1   5    2.40    0.53
  19  -1  -5    2.13    0.44
  19   1  -5    2.67    0.48
 -19   1   5    2.74    0.52
  17  -1  -5    6.55    0.60
 -17  -1   5    6.65    0.67
 -17   1   5    6.19    0.64
  17   1  -5    5.48    0.60
 -15  -1   5    3.82    0.53
  15  -1  -5    3.24    0.46
  15   1  -5    3.73    0.49
 -15   1   5    3.35    0.49
 -15   1   5    4.73    0.34
 -13  -1   5    5.28    0.56
  13  -1  -5    5.25    0.53
 -13   1   5    5.89    0.55
  13   1  -5    6.47    0.58
  11  -1  -5    2.76    0.39
 -11  -1   5    1.57    0.38
  11   1  -5    1.47    0.37
 -11   1   5    1.89    0.39
  -9  -1   5   42.84    1.39
   9  -1  -5   46.52    1.38
  -9   1   5   43.54    1.33
  -9   1   5   38.43    1.28
   9   1  -5   44.16    1.40
  -9   1   5   43.33    1.37
  -7  -1   5    6.60    0.53
   7  -1  -5    7.42    0.54
  -7  -1   5    7.03    0.56
  -7   1   5    6.93    0.44
   7   1  -5    7.54    0.54
  -7   1   5    6.83    0.53
  -7   1   5    7.14    0.52
  -5  -1   5   10.03    0.60
  -5  -1   5    8.78    0.56
   5  -1  -5    9.33    0.56
  -5   1   5    8.99    0.48
  -5   1   5   10.32    0.59
  -5   1   5    9.54    0.58
   5   1  -5    9.57    0.59
  -3  -1   5   32.93    1.10
  -3  -1   5   35.78    1.17
  -3  -1   5   32.80    1.17
   3  -1  -5   34.44    1.13
  -3   1   5   34.63    1.15
  -3   1   5   32.35    1.09
  -3   1   5   32.97    1.15
   3   1  -5   35.18    1.15
  -1  -1   5   10.84    0.64
   1  -1  -5    8.67    0.58
  -1  -1   5   10.88    0.56
  -1  -1   5   10.75    0.65
   1  -1  -5   11.66    0.68
   1   1  -5   10.88    0.61
  -1   1   5   10.56    0.61
  -1   1   5   10.67    0.56
  -1   1   5   11.79    0.65
   1  -1   5   15.34    0.74
   1  -1   5   13.65    0.66
   1  -1   5   13.55    0.73
  -1  -1  -5   13.51    0.80
  -1  -1  -5   13.59    0.72
   1   1   5   14.38    0.72
  -1   1  -5   14.68    0.79
   1   1   5   14.16    0.65
   1   1   5   13.91    0.73
  -1   1  -5   14.65    0.72
  -3  -1  -5    9.37    0.69
   3  -1   5    9.47    0.61
   3  -1   5    9.71    0.64
   3  -1   5    9.89    0.60
  -3  -1  -5    8.69    0.63
  -3   1  -5    9.11    0.63
   3   1   5   10.17    0.62
   3   1   5    8.27    0.59
  -3   1  -5    8.30    0.67
   3   1   5    9.51    0.60
   5  -1   5   18.74    0.87
  -5  -1  -5   19.62    1.01
   5  -1   5   18.69    0.85
  -5  -1  -5   19.85    0.92
  -5   1  -5   17.81    0.95
  -5   1  -5   17.51    0.88
   5   1   5   17.97    0.89
  -7  -1  -5   10.30    0.84
   7  -1   5   10.30    0.70
  -7  -1  -5   11.78    0.77
   7   1   5   11.25    0.73
  -7   1  -5   10.57    0.72
  -7   1  -5   10.03    0.83
  -9  -1  -5    4.37    0.64
   9  -1   5    4.75    0.56
  -9  -1  -5    4.57    0.59
  -9   1  -5    4.58    0.63
   9   1   5    4.79    0.55
  -9   1  -5    5.77    0.60
 -11  -1  -5    1.55    0.53
  11  -1   5    1.18    0.37
  11   1   5    1.63    0.40
 -11   1  -5    1.65    0.50
 -13  -1  -5   -0.18    0.43
  13  -1   5    0.42    0.32
 -13   1  -5    0.36    0.46
  13   1   5    0.37    0.32
 -15  -1  -5    0.15    0.47
  15  -1   5   -0.08    0.33
 -15   1  -5   -0.39    0.42
 -15   1  -5   -0.06    0.48
  15   1   5   -0.09    0.30
 -20  -2   5    2.45    0.55
 -20   2   5    2.28    0.49
  20   2  -5    2.40    0.50
 -18  -2   5    3.43    0.58
  18  -2  -5    4.21    0.51
  18   2  -5    3.97    0.53
 -18   2   5    3.93    0.54
  16  -2  -5    1.45    0.36
 -16  -2   5    1.13    0.43
  16   2  -5    1.72    0.41
 -16   2   5    0.22    0.34
  14  -2  -5    6.32    0.56
 -14  -2   5    5.85    0.61
 -14   2   5    5.93    0.56
  14   2  -5    6.83    0.62
 -14   2   5    6.75    0.36
  12  -2  -5   14.35    0.71
 -12  -2   5   12.70    0.76
 -12   2   5   13.14    0.72
  12   2  -5   12.26    0.73
 -12   2   5   13.73    0.55
  10  -2  -5    6.93    0.53
 -10  -2   5    8.19    0.60
  10   2  -5    6.99    0.56
 -10   2   5    5.72    0.51
 -10   2   5    6.24    0.40
  -8  -2   5    1.77    0.35
   8  -2  -5    2.15    0.34
  -8   2   5    1.93    0.33
  -8   2   5    1.57    0.34
   8   2  -5    2.17    0.37
  -8   2   5    1.62    0.26
  -6  -2   5   23.47    0.93
   6  -2  -5   23.87    0.89
  -6  -2   5   24.30    0.94
  -6   2   5   23.33    0.88
  -6   2   5   21.86    0.89
   6   2  -5   24.25    0.94
  -6   2   5   23.19    0.82
  -4  -2   5    2.90    0.39
  -4  -2   5    3.42    0.40
   4  -2  -5    3.23    0.38
  -4   2   5    3.08    0.38
   4   2  -5    3.26    0.40
  -4   2   5    3.48    0.39
  -4   2   5    3.01    0.31
  -2  -2   5    0.96    0.28
   2  -2  -5    0.68    0.26
  -2  -2   5    1.09    0.26
   2  -2  -5    1.11    0.31
  -2  -2   5    0.65    0.28
  -2   2   5    0.49    0.28
  -2   2   5    1.05    0.29
  -2   2   5    0.61    0.24
   2   2  -5    0.98    0.28
   0  -2   5    3.54    0.44
   0  -2   5    4.27    0.44
   0  -2   5    3.91    0.36
   0  -2  -5    3.75    0.41
   0  -2  -5    3.62    0.46
   0   2   5    3.81    0.38
   0   2   5    3.94    0.45
   0   2   5    4.12    0.43
   0   2  -5    3.85    0.47
   0   2  -5    4.05    0.45
   2  -2   5   22.52    0.88
   2  -2   5   21.88    0.94
  -2  -2  -5   23.16    1.03
   2  -2   5   21.29    0.91
  -2  -2  -5   21.55    0.93
   2   2   5   22.43    0.94
   2   2   5   22.27    0.92
  -2   2  -5   23.52    0.92
  -2   2  -5   20.56    0.98
  -4  -2  -5    1.70    0.37
   4  -2   5    0.94    0.32
   4  -2   5    1.26    0.33
  -4  -2  -5    1.64    0.43
   4   2   5    1.26    0.34
   4   2   5    1.27    0.37
  -4   2  -5    1.82    0.43
  -4   2  -5    0.42    0.30
   6  -2   5    4.94    0.49
   6  -2   5    5.14    0.54
  -6  -2  -5    4.91    0.57
  -6  -2  -5    4.90    0.62
  -6   2  -5    3.94    0.52
   6   2   5    4.80    0.55
  -6   2  -5    4.37    0.60
  -8  -2  -5   17.28    0.92
  -8  -2  -5   17.22    0.98
   8  -2   5   18.39    0.90
  -8   2  -5   17.51    0.98
   8   2   5   17.73    0.89
  -8   2  -5   16.61    0.89
 -10  -2  -5    0.73    0.40
 -10  -2  -5    0.92    0.47
  10  -2   5    1.63    0.40
  10   2   5    1.47    0.38
 -10   2  -5    0.64    0.47
 -12  -2  -5    1.63    0.52
  12  -2   5    1.37    0.38
 -12   2  -5    0.77    0.46
  12   2   5    1.73    0.39
  14  -2   5    1.67    0.42
 -14  -2  -5    1.66    0.57
 -14   2  -5    1.73    0.56
  14   2   5    1.46    0.42
 -14   2  -5    2.35    0.56
 -16  -2  -5    1.81    0.62
  16  -2   5    2.33    0.50
 -16  -2  -5    2.99    0.64
  16   2   5    2.44    0.52
 -16   2  -5    2.79    0.66
 -16   2  -5    2.60    0.61
 -21  -3   5    3.61    0.64
  21   3  -5    1.98    0.48
 -21   3   5    1.80    0.48
 -19  -3   5    0.76    0.47
 -19   3   5    1.28    0.42
  19   3  -5    1.47    0.44
  17  -3  -5    3.98    0.48
 -17  -3   5    3.02    0.55
 -17   3   5    3.20    0.49
  17   3  -5    4.36    0.56
  15  -3  -5    3.32    0.44
 -15  -3   5    4.23    0.57
  15   3  -5    3.21    0.49
 -15   3   5    2.91    0.44
  13  -3  -5    1.51    0.34
 -13  -3   5    1.44    0.41
 -13   3   5    1.25    0.37
  13   3  -5    1.02    0.36
 -13   3   5    1.71    0.22
  11  -3  -5   10.97    0.62
 -11  -3   5   12.16    0.73
  11   3  -5   11.20    0.69
 -11   3   5   10.39    0.64
 -11   3   5   10.68    0.49
   9  -3  -5    7.32    0.52
  -9  -3   5    5.20    0.53
   9   3  -5    5.23    0.53
  -9   3   5    5.51    0.48
  -9   3   5    6.19    0.41
   7  -3  -5   30.23    1.06
  -7  -3   5   33.09    1.15
  -7   3   5   30.49    1.04
   7   3  -5   32.58    1.14
  -7   3   5   31.75    1.08
  -7   3   5   31.17    1.01
   5  -3  -5    8.74    0.56
  -5  -3   5    9.06    0.57
  -5  -3   5    8.84    0.59
  -5   3   5    8.52    0.49
  -5   3   5    9.35    0.54
   5   3  -5    8.27    0.53
  -5   3   5    7.77    0.55
  -3  -3   5   43.31    1.36
  -3  -3   5   39.60    1.33
   3  -3  -5   39.79    1.27
  -3   3   5   40.90    1.28
   3   3  -5   42.21    1.34
  -3   3   5   38.81    1.28
  -3   3   5   43.26    1.33
   1  -3  -5    6.14    0.46
  -1  -3   5    5.62    0.52
  -1  -3   5    5.24    0.48
   1  -3  -5    4.40    0.48
  -1  -3   5    4.67    0.41
  -1   3   5    5.29    0.48
  -1   3   5    5.36    0.44
  -1   3   5    4.88    0.46
   1   3  -5    4.69    0.47
   1  -3   5    5.19    0.46
  -1  -3  -5    6.08    0.56
   1  -3   5    5.58    0.54
   1  -3   5    6.68    0.51
  -1  -3  -5    6.37    0.54
  -1   3  -5    5.37    0.51
  -1   3  -5    5.26    0.53
   1   3   5    5.22    0.50
   1   3   5    5.90    0.53
   3  -3   5   10.20    0.60
  -3  -3  -5    9.21    0.73
  -3  -3  -5   10.48    0.67
   3  -3   5    9.70    0.66
   3   3   5    9.72    0.64
   3   3   5   10.94    0.67
  -3   3  -5    8.96    0.71
  -3   3  -5    9.30    0.60
  -5  -3  -5    6.00    0.58
   5  -3   5    5.76    0.56
   5  -3   5    6.32    0.55
  -5  -3  -5    7.97    0.70
  -5   3  -5    6.03    0.58
   5   3   5    5.52    0.55
  -5   3  -5    6.29    0.65
  -7  -3  -5    2.47    0.47
   7  -3   5    3.23    0.47
  -7  -3  -5    3.28    0.55
   7   3   5    2.18    0.39
  -7   3  -5    1.82    0.49
  -7   3  -5    3.98    0.50
  -9  -3  -5    1.29    0.47
   9  -3   5    1.04    0.36
  -9  -3  -5    1.13    0.43
  -9   3  -5    1.16    0.47
  -9   3  -5    1.00    0.39
   9   3   5    0.42    0.31
  11  -3   5    8.57    0.65
 -11  -3  -5    5.94    0.75
 -11  -3  -5    8.18    0.77
  11   3   5    8.45    0.68
 -11   3  -5    7.82    0.81
 -13  -3  -5    3.78    0.66
  13  -3   5    4.13    0.55
 -13   3  -5    3.32    0.60
 -13   3  -5    3.04    0.64
  13   3   5    3.77    0.55
 -15  -3  -5    2.88    0.66
  15  -3   5    2.30    0.48
 -15   3  -5    2.51    0.61
 -15   3  -5    2.33    0.58
  15   3   5    2.24    0.51
 -20  -4   5   12.45    0.95
 -20   4   5   12.34    0.75
  20   4  -5   11.83    0.82
 -18  -4   5   -0.48    0.40
 -18   4   5    0.13    0.35
  18   4  -5    0.14    0.34
  16  -4  -5    0.37    0.29
 -16  -4   5    0.87    0.43
 -16   4   5    0.77    0.34
  16   4  -5    0.80    0.39
 -14  -4   5    2.74    0.51
  14  -4  -5    3.37    0.42
  14   4  -5    3.26    0.49
 -14   4   5    2.90    0.42
  12  -4  -5   19.31    0.81
 -12  -4   5   19.92    0.94
 -12   4   5   18.26    0.81
  12   4  -5   17.02    0.88
  10  -4  -5   17.05    0.74
 -10  -4   5   17.06    0.85
 -10   4   5   15.70    0.74
  10   4  -5   16.29    0.82
 -10   4   5   15.24    0.59
  -8  -4   5    2.74    0.42
   8  -4  -5    2.23    0.34
  -8   4   5    2.82    0.29
  -8   4   5    2.66    0.33
  -8   4   5    2.55    0.37
   8   4  -5    3.31    0.44
   6  -4  -5   30.21    1.01
  -6  -4   5   28.05    1.06
  -6   4   5   28.19    0.99
  -6   4   5   29.53    0.96
  -6   4   5   29.56    1.03
   6   4  -5   30.17    1.09
   4  -4  -5   45.20    1.38
  -4  -4   5   42.92    1.42
  -4  -4   5   45.75    1.46
  -4   4   5   47.01    1.42
   4   4  -5   47.34    1.46
  -4   4   5   46.21    1.38
  -4   4   5   46.68    1.39
   2  -4  -5   17.17    0.83
   2  -4  -5   17.44    0.76
  -2  -4   5   16.92    0.77
  -2  -4   5   17.24    0.83
   2   4  -5   16.60    0.77
  -2   4   5   17.33    0.71
  -2   4   5   17.98    0.76
  -2   4   5   16.03    0.76
   0  -4   5    0.74    0.29
   0  -4   5   -0.14    0.23
   0  -4  -5   -0.18    0.23
   0  -4  -5    0.29    0.24
   0  -4   5    0.14    0.24
   0   4  -5    0.01    0.24
   0   4   5    0.17    0.26
   0   4   5    0.13    0.23
   2  -4   5   12.25    0.70
  -2  -4  -5   11.59    0.74
   2  -4   5   11.42    0.67
   2  -4   5   12.25    0.64
  -2  -4  -5   12.55    0.71
   2   4   5   13.06    0.74
   2   4   5   12.53    0.69
  -2   4  -5   13.08    0.82
  -2   4  -5   11.71    0.69
  -4  -4  -5   11.82    0.81
   4  -4   5   12.94    0.68
  -4  -4  -5   11.91    0.74
   4  -4   5   12.62    0.72
   4   4   5   11.95    0.73
  -4   4  -5   12.10    0.85
  -4   4  -5   13.19    0.73
   4   4   5   12.99    0.71
  -6  -4  -5   19.85    1.03
  -6  -4  -5   21.32    0.99
   6  -4   5   22.28    0.99
   6  -4   5   22.08    0.94
   6   4   5   24.20    1.01
  -6   4  -5   22.22    0.99
  -6   4  -5   21.42    1.06
   8  -4   5    5.44    0.58
  -8  -4  -5    4.50    0.56
  -8  -4  -5    5.35    0.64
   8   4   5    4.88    0.55
  -8   4  -5    5.15    0.58
  -8   4  -5    5.11    0.62
 -10  -4  -5    7.93    0.75
  10  -4   5    6.27    0.63
 -10  -4  -5    6.98    0.76
 -10   4  -5    7.62    0.79
  10   4   5    6.71    0.67
 -12  -4  -5    8.58    0.84
  12  -4   5    8.39    0.66
  12   4   5    9.40    0.72
 -12   4  -5    7.93    0.83
  14  -4   5   11.86    0.81
  14   4   5   11.75    0.84
 -14   4  -5   13.69    0.97
 -14   4  -5   14.23    1.07
 -21  -5   5    1.33    0.53
  21   5  -5    1.26    0.47
 -19  -5   5   -0.50    0.43
 -19   5   5   -0.10    0.33
  19   5  -5   -0.05    0.35
 -17  -5   5    3.25    0.58
 -17   5   5    3.28    0.47
  17   5  -5    2.86    0.51
  15  -5  -5    2.95    0.39
 -15  -5   5    2.40    0.51
  15   5  -5    2.79    0.48
 -15   5   5    3.01    0.42
  13  -5  -5    4.56    0.44
 -13  -5   5    3.42    0.53
 -13   5   5    3.64    0.43
  13   5  -5    3.02    0.48
  11  -5  -5    0.15    0.25
 -11  -5   5    0.39    0.35
  11   5  -5    0.30    0.32
 -11   5   5    0.11    0.27
  -9  -5   5    1.96    0.41
   9  -5  -5    1.41    0.30
   9   5  -5    1.27    0.34
  -9   5   5    1.20    0.32
  -7  -5   5   21.62    0.91
   7  -5  -5   20.06    0.79
  -7   5   5   20.02    0.77
   7   5  -5   19.71    0.89
  -7   5   5   20.60    0.83
  -5  -5   5    1.45    0.35
   5  -5  -5    1.01    0.27
   5   5  -5    0.65    0.27
  -5   5   5    1.30    0.26
  -5   5   5    0.65    0.29
  -3  -5   5    7.32    0.53
  -3  -5   5    7.90    0.60
   3  -5  -5    7.37    0.49
  -3   5   5    7.32    0.54
  -3   5   5    8.05    0.51
   3   5  -5    7.24    0.53
   1  -5  -5    0.48    0.26
  -1  -5   5    0.71    0.28
  -1  -5   5    0.64    0.29
  -1   5   5    0.71    0.30
  -1   5   5    0.84    0.27
   1   5  -5    0.30    0.25
   1  -5   5    2.15    0.39
  -1  -5  -5    2.71    0.40
   1  -5   5    2.09    0.32
  -1  -5  -5    2.12    0.42
   1  -5   5    2.20    0.41
   1   5   5    2.71    0.40
  -1   5  -5    1.32    0.31
   1   5   5    1.86    0.35
   3  -5   5    1.89    0.40
  -3  -5  -5    1.85    0.42
   3  -5   5    1.72    0.32
  -3  -5  -5    2.02    0.39
   3   5   5    2.12    0.43
  -3   5  -5    1.94    0.44
   3   5   5    1.56    0.36
  -3   5  -5    1.66    0.34
  -5  -5  -5    2.38    0.45
   5  -5   5    2.17    0.37
  -5  -5  -5    1.84    0.42
   5  -5   5    1.41    0.38
  -5   5  -5    1.94    0.38
   5   5   5    1.71    0.38
  -5   5  -5    2.45    0.51
   7  -5   5    5.56    0.59
  -7  -5  -5    5.82    0.65
  -7  -5  -5    6.30    0.63
   7  -5   5    6.36    0.57
  -7   5  -5    4.91    0.63
   7   5   5    5.31    0.58
  -7   5  -5    6.43    0.62
   9  -5   5    9.89    0.69
  -9  -5  -5   10.18    0.73
  -9  -5  -5    9.25    0.83
  -9   5  -5    8.90    0.81
   9   5   5   10.16    0.72
  11  -5   5    1.05    0.36
 -11  -5  -5    2.11    0.49
 -11   5  -5    0.74    0.45
  11   5   5    0.81    0.37
  13  -5   5    0.30    0.32
 -13   5  -5    0.48    0.48
  13   5   5    0.15    0.33
 -13   5  -5   -0.72    0.33
  15  -5   5    0.92    0.38
  15   5   5    1.04    0.42
 -15   5  -5    1.66    0.55
 -15   5  -5    0.82    0.48
 -20  -6   5    1.25    0.52
  20   6  -5    1.69    0.48
 -20   6   5    1.91    0.39
 -18  -6   5    9.72    0.87
 -18   6   5    8.73    0.63
  18   6  -5    8.53    0.79
 -16  -6   5    7.27    0.73
  16  -6  -5    5.82    0.50
  16   6  -5    6.92    0.69
 -16   6   5    5.90    0.53
  14  -6  -5    9.65    0.57
 -14  -6   5    8.22    0.75
  14   6  -5    8.43    0.68
 -14   6   5    8.59    0.57
  12  -6  -5    2.13    0.33
 -12  -6   5    2.44    0.47
 -12   6   5    1.82    0.34
  12   6  -5    1.88    0.41
 -10  -6   5    8.67    0.67
  10  -6  -5    7.85    0.52
 -10   6   5    8.80    0.55
  10   6  -5    8.63    0.65
  -8  -6   5   18.70    0.88
   8  -6  -5   18.41    0.76
   8   6  -5   20.21    0.88
  -8   6   5   16.85    0.76
  -6  -6   5   34.25    1.21
   6  -6  -5   37.90    1.14
  -6   6   5   34.62    1.07
   6   6  -5   34.69    1.24
  -6   6   5   32.16    1.14
   4  -6  -5    2.98    0.38
  -4  -6   5    2.45    0.38
  -4   6   5    2.81    0.38
  -4   6   5    2.31    0.32
   4   6  -5    2.70    0.40
  -2  -6   5    2.02    0.37
   2  -6  -5    1.87    0.34
  -2  -6   5    1.67    0.35
  -2   6   5    1.07    0.33
  -2   6   5    2.01    0.32
   2   6  -5    2.19    0.36
   0  -6   5   17.07    0.83
   0  -6   5   16.11    0.77
   0  -6  -5   17.41    0.80
   0   6   5   14.75    0.76
   0   6  -5   17.98    0.82
   0   6   5   17.65    0.77
  -2  -6  -5   15.26    0.76
   2  -6   5   14.26    0.77
   2  -6   5   13.64    0.65
  -2   6  -5   14.04    0.74
   2   6   5   14.31    0.72
   2   6   5   13.82    0.79
   4  -6   5    4.30    0.44
   4  -6   5    3.72    0.49
  -4  -6  -5    3.95    0.51
   4   6   5    3.71    0.45
  -4   6  -5    3.84    0.45
  -4   6  -5    4.97    0.59
   4   6   5    5.11    0.57
  -6  -6  -5    9.87    0.70
   6  -6   5   11.72    0.67
   6  -6   5   10.14    0.70
   6   6   5   10.90    0.71
  -6   6  -5   11.62    0.71
  -6   6  -5    9.83    0.82
  -8  -6  -5    8.33    0.75
   8  -6   5    8.51    0.64
  -8   6  -5    8.89    0.66
  -8   6  -5    7.48    0.76
   8   6   5    8.92    0.68
 -10  -6  -5    8.50    0.79
  10  -6   5    8.42    0.66
 -10   6  -5    8.23    0.80
  10   6   5    8.46    0.69
  12  -6   5    4.64    0.58
 -12  -6  -5    4.33    0.64
 -12   6  -5    5.40    0.68
  12   6   5    5.51    0.64
 -12   6  -5    5.10    0.69
  14  -6   5    9.16    0.72
 -14   6  -5    6.47    0.81
  14   6   5    9.05    0.83
 -14   6  -5    7.03    0.81
 -19  -7   5    0.95    0.51
 -19   7   5    0.54    0.33
  19   7  -5    0.56    0.39
 -17  -7   5    6.43    0.74
  17   7  -5    7.31    0.73
 -17   7   5    6.82    0.55
 -15  -7   5    6.45    0.71
  15  -7  -5    7.74    0.52
  15   7  -5    7.69    0.71
 -15   7   5    6.85    0.52
  13  -7  -5    0.65    0.27
 -13  -7   5    0.10    0.38
 -13   7   5    0.42    0.28
  13   7  -5    0.28    0.33
  11  -7  -5    2.41    0.33
 -11  -7   5    1.83    0.45
 -11   7   5    1.90    0.33
  11   7  -5    2.26    0.43
   9  -7  -5   19.17    0.76
  -9  -7   5   19.83    0.92
   9   7  -5   18.60    0.91
  -9   7   5   18.68    0.77
   7  -7  -5   12.70    0.60
  -7  -7   5   11.51    0.72
   7   7  -5   11.97    0.73
  -7   7   5   12.15    0.64
   5  -7  -5    8.96    0.54
  -5  -7   5   10.49    0.63
  -5   7   5    9.29    0.50
  -5   7   5    9.82    0.58
   5   7  -5    9.46    0.61
  -3  -7   5   12.21    0.67
   3  -7  -5   13.19    0.65
  -3   7   5   12.34    0.61
   3   7  -5   12.41    0.71
  -3   7   5   11.28    0.65
  -1  -7   5   44.63    1.39
  -1  -7   5   40.26    1.40
   1  -7  -5   40.79    1.34
   1   7  -5   41.30    1.37
  -1   7   5   39.84    1.36
  -1   7   5   41.66    1.31
   1  -7   5   12.07    0.74
  -1  -7  -5   12.49    0.71
  -1   7  -5   12.33    0.70
   1   7   5   11.90    0.63
   1   7   5   10.66    0.67
  -3  -7  -5    9.76    0.68
   3  -7   5    9.14    0.67
   3  -7   5    8.54    0.57
   3   7   5    7.87    0.63
   3   7   5   10.45    0.64
  -3   7  -5   10.24    0.64
  -5  -7  -5   21.16    1.03
   5  -7   5   23.50    0.94
   5  -7   5   24.20    1.05
  -5   7  -5   22.27    0.97
   5   7   5   22.62    0.99
  -5   7  -5   21.28    1.07
   7  -7   5   27.14    1.07
  -7  -7  -5   26.99    1.19
   7  -7   5   24.70    1.10
  -7   7  -5   28.64    1.12
  -7   7  -5   28.84    1.28
   7   7   5   26.60    1.12
  -9  -7  -5    5.47    0.65
   9  -7   5    5.17    0.58
  -9   7  -5    4.71    0.65
   9   7   5    5.62    0.61
  11  -7   5   -0.35    0.26
 -11  -7  -5    0.05    0.41
  11   7   5   -0.05    0.30
 -11   7  -5    0.16    0.42
 -11   7  -5    0.24    0.44
  13  -7   5    2.17    0.44
 -13   7  -5    1.28    0.51
  13   7   5    2.35    0.50
 -13   7  -5    2.55    0.58
  15  -7   5    0.66    0.35
 -15   7  -5    0.51    0.49
 -15   7  -5    1.42    0.54
  15   7   5    0.98    0.43
 -20  -8   5    0.25    0.48
 -20   8   5    0.85    0.33
  20   8  -5   -0.14    0.35
 -18  -8   5    6.16    0.77
  18   8  -5    6.69    0.72
 -18   8   5    6.70    0.52
 -16  -8   5    0.21    0.45
 -16   8   5    0.47    0.28
  16   8  -5    0.83    0.39
 -14  -8   5    0.29    0.41
  14  -8  -5    0.25    0.23
 -14   8   5   -0.14    0.24
  14   8  -5    0.56    0.36
  12  -8  -5    0.60    0.25
 -12  -8   5    0.49    0.40
 -12   8   5    0.56    0.27
  12   8  -5    0.00    0.33
  10  -8  -5    5.07    0.42
 -10  -8   5    4.42    0.56
  10   8  -5    5.42    0.58
 -10   8   5    5.43    0.45
   8  -8  -5    5.87    0.44
  -8  -8   5    5.50    0.57
  -8   8   5    5.35    0.46
   8   8  -5    4.83    0.53
  -6  -8   5    6.75    0.59
   6  -8  -5    7.13    0.49
  -6   8   5    6.67    0.52
   6   8  -5    6.58    0.59
  -6   8   5    6.23    0.42
   4  -8  -5   12.89    0.63
  -4  -8   5   12.26    0.72
  -4   8   5   12.20    0.61
   4   8  -5   11.60    0.69
  -4   8   5   14.20    0.68
   2  -8  -5    2.93    0.39
  -2  -8   5    1.94    0.37
  -2   8   5    1.97    0.32
   2   8  -5    2.47    0.39
  -2   8   5    2.48    0.38
   0  -8   5    2.96    0.44
   0  -8  -5    2.37    0.40
   0   8   5    3.05    0.43
   0   8  -5    2.73    0.42
   0   8   5    2.40    0.35
  -2  -8  -5   13.13    0.73
   2  -8   5   13.61    0.79
   2   8   5   12.70    0.71
  -2   8  -5   12.64    0.72
   2   8   5   13.22    0.75
   4  -8   5    9.62    0.62
  -4  -8  -5   12.65    0.77
   4  -8   5   11.49    0.75
   4   8   5   10.91    0.76
   4   8   5   12.57    0.72
  -4   8  -5   12.74    0.72
   6  -8   5   22.14    0.95
  -6  -8  -5   23.37    1.06
   6  -8   5   22.83    1.04
   6   8   5   22.90    1.03
  -6   8  -5   23.36    1.01
  -6   8  -5   23.93    1.16
  -8  -8  -5    0.58    0.39
   8  -8   5    0.07    0.30
  -8   8  -5    0.66    0.43
   8   8   5   -0.13    0.28
 -10  -8  -5    2.81    0.56
  10  -8   5    1.65    0.40
 -10   8  -5    2.90    0.55
 -10   8  -5    2.23    0.53
  10   8   5    1.52    0.39
  12  -8   5    2.53    0.47
 -12  -8  -5    1.68    0.50
  12   8   5    2.35    0.50
 -12   8  -5    2.29    0.56
 -12   8  -5    2.49    0.58
  14  -8   5    2.84    0.48
 -14   8  -5    2.05    0.57
  14   8   5    2.68    0.55
 -14   8  -5    2.12    0.58
 -19  -9   5    1.28    0.55
 -19   9   5    1.28    0.34
  19   9  -5    1.24    0.48
 -17  -9   5    0.04    0.47
  17   9  -5    0.76    0.39
 -17   9   5    0.16    0.28
 -15  -9   5    6.82    0.74
 -15   9   5    5.56    0.46
  15   9  -5    7.06    0.71
  13  -9  -5    6.71    0.45
 -13  -9   5    5.49    0.67
 -13   9   5    6.57    0.48
  13   9  -5    7.08    0.69
  11  -9  -5    8.65    0.50
 -11  -9   5    8.08    0.73
  11   9  -5    9.68    0.72
 -11   9   5    8.84    0.53
  -9  -9   5    6.09    0.62
   9  -9  -5    5.75    0.45
  -9   9   5    5.40    0.46
   9   9  -5    5.49    0.60
  -7  -9   5    5.33    0.55
   7  -9  -5    6.07    0.46
  -7   9   5    6.17    0.47
   7   9  -5    6.47    0.62
   5  -9  -5    5.84    0.46
  -5  -9   5    5.09    0.55
  -5   9   5    5.58    0.42
   5   9  -5    6.39    0.60
  -5   9   5    6.86    0.53
  -3  -9   5   34.51    1.25
   3  -9  -5   34.69    1.18
  -3   9   5   37.75    1.14
  -3   9   5   35.65    1.22
   3   9  -5   35.18    1.27
   1  -9  -5    0.84    0.32
  -1   9   5    1.92    0.38
   1   9  -5    1.02    0.32
  -1   9   5    1.49    0.31
   1  -9   5   15.84    0.86
  -1  -9  -5   16.15    0.82
   1   9   5   16.94    0.85
  -1   9  -5   15.78    0.80
   1   9   5   16.42    0.77
   3  -9   5   50.51    1.72
   3  -9   5   57.68    1.80
  -3  -9  -5   58.83    1.81
   3   9   5   57.24    1.82
   3   9   5   59.36    1.75
  -3   9  -5   57.62    1.74
   5  -9   5   45.37    1.48
   5  -9   5   43.92    1.54
  -5  -9  -5   44.35    1.56
   5   9   5   44.67    1.52
  -5   9  -5   46.57    1.49
  -7  -9  -5    1.14    0.42
   7  -9   5    1.47    0.38
   7   9   5    1.65    0.40
  -7   9  -5    0.93    0.44
   9  -9   5    1.61    0.40
  -9  -9  -5    2.32    0.47
  -9   9  -5    1.77    0.50
   9   9   5    1.67    0.42
  -9   9  -5    2.03    0.51
 -11  -9  -5    8.94    0.83
  11  -9   5   10.74    0.72
  11   9   5    8.50    0.78
 -11   9  -5    8.04    0.83
 -11   9  -5    8.21    0.81
 -13  -9  -5    1.57    0.54
  13  -9   5    2.16    0.45
 -13   9  -5    2.03    0.56
 -13   9  -5    2.54    0.58
  13   9   5    1.74    0.48
  15  -9   5    1.92    0.46
 -15   9  -5    2.30    0.62
  15   9   5    2.84    0.55
 -15   9  -5    2.27    0.61
 -20 -10   5    3.36    0.67
 -20  10   5    2.37    0.34
  20  10  -5    2.66    0.58
 -18 -10   5    1.24    0.54
  18  10  -5    0.75    0.44
 -18  10   5    0.98    0.30
 -16 -10   5   10.14    0.92
 -16  10   5   11.11    0.57
  16  10  -5   11.71    0.83
 -14 -10   5    3.00    0.58
 -14  10   5    2.83    0.35
  14  10  -5    3.31    0.55
  12 -10  -5    8.94    0.49
 -12 -10   5    8.33    0.77
 -12  10   5    9.26    0.51
  12  10  -5    9.29    0.72
 -10 -10   5    2.34    0.45
  10 -10  -5    2.41    0.32
  10  10  -5    2.28    0.46
 -10  10   5    2.07    0.34
   8 -10  -5    4.43    0.41
  -8 -10   5    4.92    0.57
   8  10  -5    4.96    0.58
  -8  10   5    4.45    0.42
   6 -10  -5    3.90    0.41
  -6 -10   5    2.90    0.47
  -6  10   5    3.25    0.40
   6  10  -5    4.12    0.50
   4 -10  -5    2.90    0.38
  -4 -10   5    2.21    0.44
  -4  10   5    2.59    0.39
  -4  10   5    2.95    0.34
   4  10  -5    3.39    0.47
   2 -10  -5    1.67    0.34
   2  10  -5    1.71    0.35
  -2  10   5    1.46    0.37
  -2  10   5    1.72    0.30
   0 -10   5    1.08    0.34
   0 -10  -5    0.76    0.33
   0  10   5    1.27    0.30
   0  10   5    1.21    0.35
   0  10  -5    0.82    0.33
   2 -10   5   35.31    1.31
  -2 -10  -5   34.76    1.29
   2  10   5   34.82    1.32
   2  10   5   35.37    1.24
  -2  10  -5   35.36    1.26
   4 -10   5    2.87    0.47
   4 -10   5    3.19    0.42
  -4 -10  -5    2.98    0.47
   4  10   5    3.08    0.49
  -4  10  -5    3.09    0.44
   4  10   5    3.59    0.47
   6 -10   5   11.26    0.74
  -6 -10  -5   12.33    0.77
  -6  10  -5   11.88    0.83
  -6  10  -5   12.42    0.72
   6  10   5    9.63    0.71
   8 -10   5    7.18    0.66
  -8 -10  -5    5.68    0.66
  -8  10  -5    6.18    0.72
   8  10   5    6.42    0.65
  -8  10  -5    5.61    0.67
  10 -10   5    2.47    0.46
 -10 -10  -5    3.35    0.57
 -10  10  -5    3.03    0.55
  10  10   5    3.10    0.51
 -10  10  -5    2.44    0.56
  12 -10   5    3.88    0.55
 -12 -10  -5    4.55    0.67
  12  10   5    5.59    0.67
 -12  10  -5    3.83    0.66
 -12  10  -5    4.31    0.66
  14 -10   5    0.06    0.31
  14  10   5    0.55    0.41
 -14  10  -5    0.96    0.52
 -14  10  -5    0.85    0.49
 -19 -11   5    1.19    0.56
  19  11  -5    1.94    0.52
 -19  11   5    1.43    0.29
 -17 -11   5    7.84    0.87
 -17  11   5    8.70    0.51
  17  11  -5    7.67    0.79
 -15 -11   5   10.53    0.93
 -15  11   5   11.44    0.56
  15  11  -5   10.69    0.81
 -13 -11   5    0.84    0.45
 -13  11   5    0.62    0.27
  13  11  -5    0.88    0.40
  11 -11  -5    2.40    0.31
 -11 -11   5    3.31    0.56
  11  11  -5    2.50    0.48
 -11  11   5    2.08    0.32
  -9 -11   5    8.77    0.73
   9 -11  -5    7.87    0.49
  -9  11   5    9.16    0.53
   9  11  -5    8.13    0.66
  -7 -11   5    1.54    0.42
   7 -11  -5    0.88    0.27
  -7  11   5    1.00    0.30
   7  11  -5    0.41    0.33
  -5 -11   5    2.62    0.43
   5 -11  -5    2.77    0.37
   5  11  -5    2.26    0.42
  -5  11   5    3.34    0.43
   3 -11  -5   -0.30    0.26
   3  11  -5    0.14    0.31
  -3  11   5   -0.20    0.18
  -3  11   5    0.08    0.30
   1 -11  -5   19.30    0.86
  -1  11   5   17.47    0.77
   1  11  -5   18.00    0.88
  -1  11   5   18.08    0.86
  -1 -11  -5    7.25    0.63
   1 -11   5    9.02    0.68
  -1  11  -5    6.11    0.58
   1  11   5    8.33    0.58
   1  11   5    8.42    0.69
  -3 -11  -5    9.15    0.66
   3 -11   5    9.77    0.69
   3  11   5    9.50    0.69
  -3  11  -5    9.02    0.64
   3  11   5    8.87    0.60
   5 -11   5    3.03    0.50
  -5 -11  -5    4.14    0.56
   5 -11   5    3.20    0.41
  -5  11  -5    3.52    0.48
   5  11   5    3.35    0.48
  -5  11  -5    3.74    0.55
   7 -11   5    2.58    0.46
  -7 -11  -5    2.94    0.50
   7  11   5    2.96    0.47
  -7  11  -5    2.81    0.52
  -9 -11  -5    4.79    0.64
   9 -11   5    4.75    0.56
   9  11   5    5.05    0.61
  -9  11  -5    5.94    0.70
  -9  11  -5    4.39    0.63
  11 -11   5    0.41    0.33
 -11 -11  -5    0.23    0.38
  11  11   5    0.38    0.34
 -11  11  -5   -0.29    0.40
 -11  11  -5    0.42    0.43
 -13 -11  -5    1.50    0.51
  13 -11   5    2.20    0.44
  13  11   5    2.10    0.52
 -13  11  -5    2.25    0.58
 -13  11  -5    1.62    0.55
 -18 -12   5    3.19    0.68
 -18  12   5    3.69    0.35
  18  12  -5    3.56    0.61
 -16 -12   5    5.62    0.76
  16  12  -5    4.52    0.66
 -16  12   5    5.42    0.40
 -14 -12   5    1.54    0.52
  14  12  -5    1.81    0.48
 -14  12   5    1.56    0.29
 -12 -12   5    3.15    0.54
 -12  12   5    3.66    0.36
  12  12  -5    3.17    0.55
  10 -12  -5    7.57    0.45
 -10 -12   5    7.20    0.73
 -10  12   5    6.97    0.48
  10  12  -5    6.31    0.66
   8 -12  -5    2.90    0.36
  -8 -12   5    2.80    0.48
   8  12  -5    2.44    0.47
  -8  12   5    2.84    0.38
   6 -12  -5   10.63    0.59
  -6 -12   5   11.30    0.73
  -6  12   5    9.05    0.60
   6  12  -5   10.86    0.75
   4 -12  -5    0.94    0.31
  -4  12   5    1.51    0.36
   4  12  -5    1.13    0.38
   4  12  -5    1.63    0.32
   2 -12  -5    3.14    0.44
  -2  12   5    3.34    0.45
  -2  12   5    4.63    0.42
   2  12  -5    2.88    0.46
   0 -12  -5   13.54    0.75
   0  12  -5   13.34    0.73
   0  12   5   12.58    0.74
   0  12  -5   12.81    0.74
   0  12   5   12.89    0.68
   2 -12   5    0.02    0.31
  -2 -12  -5    0.06    0.30
   2  12   5   -0.24    0.25
   2  12   5    0.09    0.35
  -2  12  -5    0.20    0.30
  -2  12  -5   -0.01    0.32
   4 -12   5   29.87    1.23
  -4 -12  -5   27.65    1.18
  -4  12  -5   31.16    1.16
   4  12   5   28.87    1.16
   4  12   5   27.26    1.21
  -4  12  -5   30.02    1.23
  -6 -12  -5    4.32    0.56
   6 -12   5    4.95    0.58
  -6  12  -5    4.26    0.59
   6  12   5    5.88    0.62
  -8 -12  -5    3.41    0.54
   8 -12   5    2.33    0.44
   8  12   5    2.78    0.47
  -8  12  -5    2.58    0.53
  10 -12   5    0.12    0.29
 -10 -12  -5    0.85    0.40
 -10  12  -5    0.71    0.42
  10  12   5    0.63    0.34
 -12 -12  -5    0.80    0.43
  12 -12   5    0.49    0.32
 -12  12  -5   -0.04    0.46
  12  12   5    0.02    0.37
 -12  12  -5    1.79    0.52
  14 -12   5    3.57    0.54
 -14  12  -5    3.40    0.66
 -14  12  -5    2.73    0.62
  14  12   5    3.93    0.63
 -19 -13   5    0.31    0.56
  19  13  -5    0.59    0.44
 -17 -13   5    1.31    0.58
  17  13  -5    2.18    0.54
 -15 -13   5    0.21    0.46
 -15  13   5    0.51    0.23
  15  13  -5    0.98    0.41
 -13 -13   5   -0.20    0.41
 -13  13   5   -0.12    0.21
  13  13  -5   -0.10    0.35
  11 -13  -5    1.86    0.29
 -11 -13   5    1.95    0.47
 -11  13   5    2.39    0.32
  11  13  -5    2.81    0.50
   9 -13  -5    3.33    0.36
  -9 -13   5    3.45    0.54
   9  13  -5    2.30    0.48
  -9  13   5    2.88    0.36
   7 -13  -5    8.56    0.53
  -7  13   5    7.94    0.54
   7  13  -5    8.60    0.67
   5 -13  -5    8.32    0.56
   5  13  -5    8.89    0.53
   5  13  -5    9.05    0.70
  -5  13   5    8.33    0.57
   3 -13  -5   13.80    0.71
  -3  13   5   14.44    0.75
   3  13  -5   12.96    0.76
   3  13  -5   12.91    0.69
   1 -13  -5    5.65    0.55
  -1  13   5    5.86    0.58
   1  13  -5    6.85    0.55
   1  13  -5    5.80    0.58
  -1  13   5    6.60    0.53
  -1 -13  -5    0.83    0.36
   1  13   5    1.22    0.32
   1  13   5    0.41    0.38
  -1  13  -5    0.77    0.34
  -1  13  -5    0.45    0.33
   3 -13   5   10.01    0.74
  -3 -13  -5   10.60    0.74
   3  13   5   11.39    0.80
  -3  13  -5   10.18    0.71
  -3  13  -5   10.70    0.67
   3  13   5    9.92    0.68
  -5 -13  -5    1.67    0.42
   5 -13   5    1.90    0.43
   5  13   5    2.92    0.54
  -5  13  -5    2.10    0.47
   5  13   5    1.72    0.41
   7 -13   5    0.84    0.37
  -7 -13  -5    0.79    0.42
   7  13   5    0.16    0.32
  -7  13  -5    0.53    0.39
  -9 -13  -5    0.61    0.42
   9 -13   5    0.96    0.36
   9  13   5    1.54    0.42
  -9  13  -5    1.06    0.42
  11 -13   5    5.77    0.62
 -11 -13  -5    7.04    0.76
 -11  13  -5    5.91    0.74
  11  13   5    8.02    0.78
 -13 -13  -5   -0.27    0.44
  13 -13   5    0.16    0.32
  13  13   5   -0.28    0.34
 -13  13  -5   -0.34    0.38
  18  14  -5    0.65    0.46
  16  14  -5    2.63    0.55
  14  14  -5    4.40    0.64
 -14  14   5    4.85    0.36
 -12  14   5   -0.07    0.22
  12  14  -5    0.44    0.37
  10 -14  -5    1.13    0.26
 -10  14   5    1.13    0.29
  10  14  -5    1.06    0.39
   8 -14  -5    0.67    0.25
   8  14  -5    0.77    0.39
  -8  14   5    0.77    0.29
   6 -14  -5    7.36    0.52
  -6  14   5    6.31    0.54
   6  14  -5    8.34    0.74
   4 -14  -5   14.84    0.75
  -4  14   5   15.33    0.79
   4  14  -5   16.39    0.72
   4  14  -5   14.75    0.83
   2 -14  -5    7.63    0.58
   2  14  -5    8.24    0.70
   2  14  -5    7.87    0.62
  -2  14   5    6.57    0.61
   0 -14  -5    9.68    0.68
   0  14   5   11.93    0.65
   0  14  -5   10.14    0.70
   0  14   5   11.46    0.76
   0  14  -5   11.74    0.74
  -2 -14  -5    1.40    0.38
   2 -14   5    1.10    0.37
   2  14   5    1.64    0.36
  -2  14  -5    1.94    0.41
   2  14   5    1.91    0.44
  -2  14  -5    0.96    0.36
  -4 -14  -5   34.24    1.34
   4 -14   5   31.39    1.31
   4  14   5   33.63    1.38
   4  14   5   33.47    1.28
  -4  14  -5   36.03    1.36
  -6 -14  -5   15.12    0.88
   6 -14   5   15.58    0.87
   6  14   5   14.17    0.85
  -6  14  -5   14.80    0.92
  -8 -14  -5    2.32    0.49
   8 -14   5    1.16    0.38
  -8  14  -5    1.16    0.46
   8  14   5    2.28    0.45
  10 -14   5    1.22    0.37
 -10 -14  -5    0.71    0.44
  10  14   5    1.09    0.42
 -10  14  -5    1.11    0.44
 -12 -14  -5    4.56    0.70
  12 -14   5    3.87    0.55
 -12  14  -5    4.22    0.68
  12  14   5    4.32    0.63
  17  15  -5    0.08    0.37
  15  15  -5    5.48    0.72
 -13  15   5    0.60    0.23
  13  15  -5    0.17    0.38
  11  15  -5    2.27    0.52
 -11  15   5    1.35    0.28
   9 -15  -5   21.30    0.79
   9  15  -5   21.86    1.11
  -9  15   5   20.78    0.80
   7 -15  -5    3.24    0.40
   7  15  -5    3.78    0.58
  -7  15   5    4.02    0.44
   5 -15  -5   12.50    0.68
  -5  15   5   13.56    0.73
   5  15  -5   14.68    0.87
   3 -15  -5    9.67    0.64
   3  15  -5    7.83    0.70
   3  15  -5    9.02    0.61
  -3  15   5    8.83    0.66
   1 -15  -5    2.97    0.44
   1  15  -5    3.69    0.44
  -1  15   5    2.83    0.47
  -1  15   5    4.01    0.44
   1  15  -5    3.11    0.47
  -1 -15  -5    1.23    0.39
   1  15   5    0.75    0.39
   1  15   5    0.45    0.28
  -1  15  -5    0.51    0.34
  -1  15  -5    0.91    0.35
   3 -15   5    1.33    0.43
  -3 -15  -5    1.52    0.40
   3  15   5    1.02    0.37
   3  15   5    1.74    0.47
  -3  15  -5    1.76    0.43
  -3  15  -5    2.33    0.42
   5 -15   5    8.08    0.73
  -5 -15  -5    6.53    0.67
  -5  15  -5    7.49    0.70
   5  15   5    7.97    0.77
   5  15   5    8.54    0.68
   7 -15   5    1.65    0.40
  -7 -15  -5    1.00    0.43
   7  15   5    1.59    0.43
  -7  15  -5    1.37    0.47
  -9 -15  -5    4.45    0.62
   9 -15   5    5.20    0.60
  -9  15  -5    4.38    0.64
   9  15   5    4.72    0.61
  11 -15   5    1.90    0.42
 -11 -15  -5    0.42    0.42
  11  15   5    1.49    0.46
 -11  15  -5    1.04    0.46
 -13 -15  -5    1.66    0.55
  13 -15   5    1.45    0.40
 -13  15  -5   -0.02    0.45
  13  15   5    0.37    0.40
  18  16  -5    1.23    0.50
  16  16  -5    0.16    0.42
  14  16  -5    0.58    0.43
 -14  16   5    0.69    0.19
  12  16  -5   10.58    0.84
  10  16  -5    8.60    0.82
 -10  16   5    7.93    0.48
   8 -16  -5    6.08    0.46
   8  16  -5    7.11    0.73
  -8  16   5    5.39    0.47
   6 -16  -5   11.03    0.61
   6  16  -5    9.48    0.83
  -6  16   5   10.55    0.65
   4 -16  -5    6.88    0.55
   4  16  -5    5.89    0.64
   4  16  -5    7.02    0.54
  -4  16   5    6.90    0.59
   2 -16  -5    4.82    0.52
  -2  16   5    3.92    0.51
   2  16  -5    4.85    0.57
   2  16  -5    4.46    0.48
   0 -16  -5    0.40    0.32
   0  16   5    0.58    0.30
   0  16  -5    0.00    0.30
   0  16  -5    1.14    0.38
   0  16   5   -0.64    0.30
  -2 -16  -5   10.79    0.73
   2  16   5   11.18    0.69
  -2  16  -5   10.14    0.70
  -2  16  -5   10.32    0.74
   2  16   5    9.89    0.77
   4 -16   5    4.28    0.58
  -4 -16  -5    4.75    0.59
   4  16   5    4.22    0.60
   4  16   5    4.80    0.55
  -4  16  -5    4.27    0.55
  -6 -16  -5    1.78    0.47
   6 -16   5    2.00    0.45
  -6  16  -5    1.67    0.44
   6  16   5    1.22    0.41
  -8 -16  -5    1.58    0.46
   8 -16   5    1.64    0.42
   8  16   5    1.99    0.48
  -8  16  -5    1.94    0.51
  10 -16   5    4.18    0.53
 -10 -16  -5    2.36    0.55
  10  16   5    2.69    0.55
 -10  16  -5    2.52    0.57
 -12 -16  -5    0.99    0.52
  12 -16   5    0.62    0.35
  12  16   5    1.30    0.45
 -12  16  -5    0.59    0.47
  17  17  -5    0.40    0.41
  15  17  -5    5.83    0.73
 -13  17   5   -0.19    0.18
  13  17  -5   -0.18    0.37
  11  17  -5    7.53    0.81
 -11  17   5    7.58    0.46
   9 -17  -5    0.15    0.23
  -9  17   5    0.69    0.28
   9  17  -5    0.19    0.37
   7 -17  -5    6.14    0.48
  -7  17   5    6.21    0.53
   7  17  -5    5.61    0.64
   5 -17  -5    6.19    0.54
   5  17  -5    6.46    0.69
  -5  17   5    6.27    0.56
   3 -17  -5   23.70    0.98
  -3  17   5   23.04    1.01
   3  17  -5   25.95    0.95
   3  17  -5   24.69    1.12
   1 -17  -5    3.65    0.48
   1  17  -5    3.09    0.45
   1  17  -5    2.81    0.49
  -1  17   5    4.53    0.55
  -1 -17  -5   -0.52    0.28
   1  17   5    0.06    0.36
  -1  17  -5    0.13    0.31
   1  17   5    0.14    0.28
  -1  17  -5    0.17    0.30
   3 -17   5    1.87    0.45
  -3 -17  -5    2.19    0.46
  -3  17  -5    1.78    0.43
   3  17   5    0.72    0.44
   3  17   5    0.95    0.36
   5 -17   5    2.54    0.50
  -5 -17  -5    3.42    0.55
   5  17   5    3.93    0.54
  -5  17  -5    3.38    0.56
  -7 -17  -5    1.20    0.44
   7 -17   5    2.16    0.45
  -7  17  -5    0.85    0.43
   7  17   5    1.91    0.47
   9 -17   5    2.52    0.48
  -9 -17  -5    1.93    0.51
  -9  17  -5    1.49    0.46
   9  17   5    1.58    0.48
  11 -17   5    7.31    0.70
 -11 -17  -5    6.16    0.76
  11  17   5    6.78    0.75
 -11  17  -5    6.02    0.76
  16  18  -5    8.88    0.93
  14  18  -5   -0.27    0.32
  12  18  -5    1.97    0.52
 -12  18   5    1.13    0.24
 -10  18   5    1.11    0.29
  10  18  -5    1.19    0.43
   8 -18  -5    6.81    0.50
  -8  18   5    5.80    0.48
   8  18  -5    8.11    0.78
   6 -18  -5    0.41    0.29
   6  18  -5    0.60    0.37
  -6  18   5    0.44    0.32
   4 -18  -5    1.91    0.37
   4  18  -5    1.23    0.44
  -4  18   5    1.63    0.41
   2 -18  -5    0.29    0.30
   2  18  -5    0.26    0.35
   2  18  -5    0.13    0.29
  -2  18   5    0.32    0.36
   0 -18  -5    1.50    0.39
   0  18   5    2.56    0.49
   0  18  -5    2.31    0.43
   0  18  -5    1.50    0.41
  -2 -18  -5    4.16    0.54
  -2  18  -5    3.35    0.50
   2  18   5    4.30    0.52
   2  18   5    5.27    0.64
   4 -18   5    2.32    0.47
  -4 -18  -5    2.70    0.50
   4  18   5    3.65    0.51
  -4  18  -5    2.79    0.51
   4  18   5    2.51    0.55
  -6 -18  -5    0.72    0.41
   6 -18   5    1.31    0.40
  -6  18  -5    1.01    0.45
   6  18   5    2.28    0.47
   8 -18   5    3.09    0.51
  -8 -18  -5    3.05    0.58
   8  18   5    3.25    0.56
  -8  18  -5    2.84    0.55
  10 -18   5    3.36    0.52
 -10 -18  -5    1.84    0.51
  10  18   5    2.39    0.52
 -10  18  -5    2.44    0.58
  12 -18   5    0.35    0.34
 -12 -18  -5    0.35    0.48
  12  18   5    0.02    0.40
 -12  18  -5    0.53    0.47
  17  19  -5    4.40    0.72
  15  19  -5    3.14    0.60
  13  19  -5    0.04    0.41
  11  19  -5    1.59    0.50
 -11  19   5    0.53    0.24
   9  19  -5   14.21    0.96
  -9  19   5   14.83    0.68
   7 -19  -5    2.73    0.38
  -7  19   5    2.54    0.40
   7  19  -5    3.53    0.55
   5 -19  -5    1.04    0.33
   5  19  -5    1.18    0.44
  -5  19   5    0.58    0.34
   3 -19  -5    9.47    0.66
   3  19  -5   10.92    0.68
  -3  19   5   10.50    0.73
   3  19  -5   11.46    0.80
   1 -19  -5   28.80    1.14
   1  19  -5   28.84    1.13
  -1  19   5   25.57    1.16
   1  19  -5   26.70    1.18
  -1 -19  -5    2.66    0.50
  -1  19  -5    4.16    0.53
   1  19   5    3.13    0.56
  -3 -19  -5    7.58    0.73
  -3  19  -5    7.88    0.72
   3  19   5    8.12    0.80
   3  19   5    8.43    0.66
  -5 -19  -5    1.85    0.48
   5 -19   5    3.67    0.56
  -5  19  -5    1.80    0.45
   5  19   5    3.83    0.55
   7 -19   5    1.92    0.45
  -7 -19  -5    1.78    0.47
   7  19   5    2.86    0.51
  -7  19  -5    2.92    0.56
   9 -19   5    4.52    0.59
  -9 -19  -5    3.97    0.66
   9  19   5    3.48    0.58
  -9  19  -5    2.39    0.56
  11 -19   5    0.59    0.37
 -11 -19  -5    1.53    0.53
  11  19   5    1.52    0.50
 -11  19  -5   -0.08    0.44
  16  20  -5   -0.30    0.43
  14  20  -5    5.66    0.75
  12  20  -5    0.58    0.39
 -12  20   5    1.06    0.23
 -10  20   5    5.44    0.43
  10  20  -5    5.54    0.72
   8 -20  -5    3.21    0.39
   8  20  -5    2.77    0.54
  -8  20   5    3.04    0.40
   6 -20  -5    7.25    0.55
  -6  20   5    6.89    0.55
   6  20  -5    6.90    0.73
   4 -20  -5    2.07    0.40
   4  20  -5    2.55    0.49
  -4  20   5    3.45    0.50
   2 -20  -5    5.18    0.56
  -2  20   5    5.76    0.61
   2  20  -5    5.48    0.64
   2  20  -5    5.51    0.55
   0 -20  -5   10.97    0.73
   0  20   5    9.45    0.75
   0  20  -5    9.47    0.70
  -2 -20  -5    3.56    0.53
  -2  20  -5    4.50    0.57
   2  20   5    3.83    0.58
   4 -20   5    1.12    0.42
  -4 -20  -5    0.78    0.39
  -4  20  -5    0.68    0.37
   4  20   5    1.58    0.47
   6 -20   5    2.82    0.50
  -6 -20  -5    2.42    0.53
   6  20   5    2.01    0.48
  -6  20  -5    3.61    0.60
   8 -20   5    3.18    0.53
  -8 -20  -5    3.33    0.61
   8  20   5    2.09    0.48
  -8  20  -5    3.75    0.63
 -10 -20  -5    1.64    0.54
  10 -20   5    2.03    0.46
  10  20   5    2.27    0.54
 -10  20  -5    2.20    0.56
  15  21  -5    1.56    0.56
  13  21  -5    1.15    0.49
  11  21  -5    5.43    0.73
 -11  21   5    4.39    0.38
   9  21  -5    1.37    0.49
  -9  21   5    1.78    0.34
   7 -21  -5    4.72    0.47
  -7  21   5    4.45    0.49
   7  21  -5    5.10    0.69
   5 -21  -5    7.85    0.58
  -5  21   5    8.22    0.62
   5  21  -5    8.98    0.84
   3 -21  -5    7.95    0.62
  -3  21   5    6.34    0.63
   3  21  -5    8.57    0.79
   1 -21  -5    2.15    0.44
  -1  21   5    2.04    0.48
   1  21  -5    2.43    0.42
  -1 -21  -5    2.27    0.46
  -1  21  -5    2.36    0.47
   1  21   5    2.09    0.50
  -3 -21  -5   11.09    0.80
   3  21   5   11.79    0.88
  -3  21  -5   11.00    0.82
   5 -21   5    6.58    0.70
  -5 -21  -5    7.12    0.74
  -5  21  -5    5.28    0.66
   7 -21   5    0.39    0.39
  -7 -21  -5    1.01    0.46
  -7  21  -5    0.13    0.42
   7  21   5    0.44    0.39
  -9 -21  -5    1.71    0.55
   9 -21   5    3.40    0.53
   9  21   5    3.63    0.61
  -9  21  -5    2.36    0.58
  14  22  -5    2.98    0.67
  12  22  -5    5.13    0.76
 -10  22   5    1.67    0.32
  10  22  -5    2.01    0.52
  -8  22   5    9.48    0.59
   8  22  -5    8.52    0.84
   6 -22  -5    2.58    0.40
   6  22  -5    1.13    0.48
  -6  22   5    1.86    0.40
   4 -22  -5    8.64    0.62
   4  22  -5    7.92    0.78
  -4  22   5    7.87    0.68
   2 -22  -5    2.20    0.43
  -2  22   5    4.00    0.56
   0 -22  -5    6.86    0.67
   0  22  -5    7.21    0.66
   0  22   5    8.09    0.76
  -2 -22  -5    3.20    0.53
  -2  22  -5    3.51    0.54
   2  22   5    1.79    0.51
   4 -22   5    3.08    0.56
  -4 -22  -5    3.03    0.55
  -4  22  -5    2.13    0.50
   4  22   5    4.10    0.66
   6 -22   5   10.97    0.84
  -6 -22  -5   12.21    0.89
  -6  22  -5   11.37    0.91
  -8 -22  -5    0.97    0.47
   8 -22   5    1.51    0.44
   8  22   5    0.53    0.43
  -8  22  -5    0.77    0.47
  10 -22   5    1.78    0.49
 -10  22  -5    2.75    0.59
  10  22   5    1.60    0.53
  13  23  -5    2.17    0.59
  11  23  -5    1.78    0.57
 -11  23   5    0.76    0.24
   9  23  -5    6.15    0.77
  -9  23   5    5.41    0.49
   7  23  -5   12.55    0.93
  -7  23   5   12.50    0.71
   5 -23  -5    0.64    0.32
   5  23  -5    0.41    0.42
  -5  23   5    1.05    0.37
   3 -23  -5   13.83    0.79
  -3  23   5   11.86    0.80
   1 -23  -5    1.44    0.43
   1  23  -5    1.45    0.40
  -1  23   5    1.18    0.45
  -1 -23  -5    6.33    0.66
  -1  23  -5    5.75    0.63
   1  23   5    5.23    0.67
  -3 -23  -5    0.36    0.38
  -3  23  -5    0.78    0.42
   3  23   5    0.95    0.49
   5 -23   5    0.38    0.38
  -5 -23  -5    0.44    0.41
  -5  23  -5    0.90    0.44
   7 -23   5    5.60    0.68
  -7 -23  -5    5.14    0.71
  -7  23  -5    7.07    0.78
   9 -23   5    7.10    0.75
  -9  23  -5    5.37    0.76
   9  23   5    7.40    0.81
  12  24  -5    0.29    0.47
  10  24  -5    1.46    0.56
 -10  24   5    1.89    0.33
   8  24  -5    6.67    0.81
  -8  24   5    7.54    0.57
   6 -24  -5    5.93    0.55
   6  24  -5    5.67    0.74
  -6  24   5    5.91    0.58
   4 -24  -5    1.03    0.37
  -4  24   5    1.18    0.42
   2 -24  -5    4.10    0.53
  -2  24   5    3.16    0.55
   0 -24  -5    6.89    0.69
   0  24   5    9.54    0.84
   0  24  -5   10.08    0.76
  -2 -24  -5    3.28    0.54
  -2  24  -5    3.68    0.57
   2  24   5    4.13    0.66
  -4 -24  -5    0.26    0.38
   4 -24   5   -0.33    0.37
   4  24   5   -0.19    0.42
  -4  24  -5    0.87    0.42
  -6 -24  -5    1.17    0.48
   6 -24   5    1.37    0.46
  -6  24  -5    1.64    0.53
   8 -24   5    7.80    0.78
  -8  24  -5    5.58    0.76
  11  25  -5    0.47    0.50
 -11  25   5    0.82    0.26
  -9  25   5    2.27    0.39
   9  25  -5    2.58    0.63
   7  25  -5    0.42    0.45
  -7  25   5    0.48    0.34
   5 -25  -5    8.78    0.65
  -5  25   5    8.44    0.67
   3 -25  -5    1.76    0.43
  -3  25   5    2.13    0.49
   1 -25  -5    4.78    0.59
  -1  25   5    5.98    0.70
  -1 -25  -5    1.93    0.47
  -1  25  -5    1.75    0.48
   1  25   5    1.03    0.48
  -3 -25  -5    1.12    0.44
   3  25   5    2.27    0.58
  -3  25  -5    3.02    0.55
  -5 -25  -5    0.69    0.42
   5 -25   5    0.49    0.40
  -5  25  -5    0.98    0.47
   7 -25   5    0.41    0.38
  -7  25  -5    1.57    0.53
 -10  26   5    3.63    0.39
  10  26  -5    4.65    0.75
   8  26  -5    1.37    0.54
  -8  26   5    0.84    0.34
  -6  26   5    2.81    0.48
   4 -26  -5    3.88    0.51
  -4  26   5    3.10    0.53
   2 -26  -5    0.12    0.32
  -2  26   5    0.45    0.40
   0 -26  -5    0.71    0.39
   0  26   5    0.68    0.43
   0  26  -5    0.15    0.37
  -2 -26  -5    4.50    0.64
   2  26   5    6.10    0.76
  -2  26  -5    5.61    0.67
  -4  26  -5    2.97    0.59
   4  26   5    2.31    0.60
   6 -26   5    2.58    0.54
  -6  26  -5    1.61    0.50
   9  27  -5    0.35    0.49
  -9  27   5    0.22    0.29
  -7  27   5    4.16    0.47
  -5  27   5    6.33    0.66
  -3  27   5    2.03    0.50
  -1  27   5    0.89    0.46
  -1  27  -5    0.88    0.43
   1  27   5    0.32    0.48
   3  27   5    5.85    0.79
  -3  27  -5    5.12    0.66
   5 -27   5    3.98    0.65
  -5  27  -5    3.50    0.62
  -8  28   5    2.27    0.42
  -6  28   5    1.02    0.40
  -4  28   5   -0.27    0.36
  -2  28   5    4.92    0.66
   0  28   5    4.21    0.64
   2  28   5    0.60    0.50
  -2  28  -5   -0.10    0.39
  -5  29   5    3.85    0.56
  -3  29   5    1.96    0.50
  -1  29   5    4.24    0.67
   1  29   5    0.76    0.48
  -2  30   5   -0.38    0.42
 -20   0   6    6.91    0.74
  20   0  -6    7.42    0.72
 -18   0   6    1.24    0.48
  18   0  -6    1.58    0.44
 -16   0   6    0.85    0.42
  16   0  -6    0.53    0.34
 -16   0   6    0.91    0.26
 -14   0   6   12.45    0.79
  14   0  -6   11.68    0.77
 -14   0   6   16.07    0.65
 -12   0   6   19.49    0.76
 -12   0   6   19.45    0.95
  12   0  -6   19.21    0.91
 -10   0   6    1.69    0.31
  10   0  -6    1.13    0.37
 -10   0   6    1.65    0.40
  -8   0   6   20.70    0.95
  -8   0   6   21.08    0.83
   8   0  -6   21.16    0.93
  -8   0   6   20.29    0.92
  -6   0   6  101.12    2.78
  -6   0   6   97.31    2.71
   6   0  -6  102.17    2.70
  -6   0   6   98.62    2.69
  -4   0   6    4.47    0.52
  -4   0   6    3.87    0.40
  -4   0   6    4.21    0.51
   4   0  -6    4.07    0.47
  -2   0   6    5.57    0.47
  -2   0   6    6.05    0.58
  -2   0   6    5.55    0.55
   2   0  -6    5.35    0.53
   0   0   6   35.92    1.31
   0   0   6   37.00    1.34
   0   0  -6   37.48    1.33
   0   0   6   35.18    1.27
   2   0   6    4.43    0.49
   2   0   6    4.45    0.52
  -2   0  -6    3.73    0.53
  -4   0  -6    4.07    0.59
  -4   0  -6    3.80    0.54
   4   0   6    4.67    0.55
  -6   0  -6    4.72    0.61
   6   0   6    4.22    0.53
  -6   0  -6    3.98    0.64
  -8   0  -6   15.51    0.93
  -8   0  -6   14.43    1.08
   8   0   6   15.33    0.89
  10   0   6   10.96    0.77
 -10   0  -6    9.61    0.94
  12   0   6   12.85    0.87
  14   0   6   -0.07    0.33
  19  -1  -6    1.48    0.43
 -19  -1   6    1.98    0.52
  19   1  -6    2.11    0.48
 -19   1   6    2.23    0.51
  17  -1  -6   -0.24    0.28
 -17  -1   6    0.24    0.40
  17   1  -6   -0.05    0.32
 -17   1   6   -0.18    0.37
  15  -1  -6   11.25    0.72
 -15  -1   6   11.07    0.77
 -15   1   6   11.11    0.76
 -15   1   6   11.67    0.52
  15   1  -6   10.54    0.75
  13  -1  -6    4.65    0.52
 -13  -1   6    4.04    0.55
 -13   1   6    4.79    0.54
  13   1  -6    4.70    0.55
 -13   1   6    4.77    0.41
 -11  -1   6    9.45    0.69
  11  -1  -6    8.66    0.65
 -11   1   6    9.01    0.65
  11   1  -6    9.80    0.69
 -11   1   6    9.04    0.52
  -9  -1   6    2.25    0.42
   9  -1  -6    2.90    0.42
  -9  -1   6    2.77    0.46
  -9   1   6    2.89    0.45
   9   1  -6    3.26    0.46
  -9   1   6    2.94    0.35
  -7  -1   6   75.17    2.20
  -7  -1   6   74.27    2.20
   7  -1  -6   78.00    2.17
  -7  -1   6   80.42    2.21
   7   1  -6   76.12    2.19
  -7   1   6   74.84    2.18
  -7   1   6   74.79    2.15
  -7   1   6   76.01    2.18
  -5  -1   6   34.34    1.26
  -5  -1   6   33.23    1.16
   5  -1  -6   35.05    1.23
  -5  -1   6   33.26    1.24
   5   1  -6   34.17    1.24
  -5   1   6   33.26    1.20
  -5   1   6   33.90    1.16
  -5   1   6   32.14    1.21
  -3  -1   6    2.29    0.44
  -3  -1   6    2.27    0.35
  -3  -1   6    2.89    0.46
   3  -1  -6    3.35    0.45
  -3   1   6    3.27    0.39
  -3   1   6    2.53    0.45
  -3   1   6    2.87    0.43
   3   1  -6    2.50    0.41
   1  -1  -6    7.71    0.58
  -1  -1   6    7.19    0.60
  -1  -1   6    8.04    0.65
  -1  -1   6    7.51    0.57
   1   1  -6    7.72    0.62
  -1   1   6    8.13    0.66
  -1   1   6    8.55    0.59
  -1   1   6    7.96    0.59
  -1  -1  -6   23.01    0.98
   1  -1   6   21.83    0.99
   1  -1   6   21.18    0.93
   1  -1   6   21.49    0.98
   1   1   6   21.14    0.99
   1   1   6   22.38    0.94
   1   1   6   22.00    1.02
  -1   1  -6   22.10    1.00
  -1   1  -6   21.08    1.11
   3  -1   6    3.04    0.47
   3  -1   6    3.34    0.45
  -3  -1  -6    2.63    0.46
  -3   1  -6    3.71    0.52
   3   1   6    2.71    0.46
  -3   1  -6    2.74    0.55
   5  -1   6    2.84    0.48
  -5  -1  -6    2.21    0.47
  -5   1  -6    3.09    0.57
  -5   1  -6    2.39    0.47
   5   1   6    1.58    0.41
  -7  -1  -6    6.43    0.68
   7  -1   6    7.66    0.70
   7   1   6    8.41    0.65
  -7   1  -6    8.11    0.81
  -7   1  -6    6.37    0.68
  -9  -1  -6    4.05    0.59
   9  -1   6    3.13    0.51
  -9   1  -6    3.88    0.68
   9   1   6    3.48    0.51
  -9   1  -6    2.24    0.51
  11  -1   6    5.16    0.63
 -11   1  -6    5.22    0.75
  11   1   6    4.09    0.60
  13  -1   6    3.92    0.60
  13   1   6    3.23    0.56
 -13   1  -6    3.63    0.73
 -20  -2   6    0.29    0.46
  20   2  -6    0.26    0.38
 -20   2   6    0.83    0.45
  18  -2  -6    5.22    0.58
 -18  -2   6    5.88    0.71
 -18   2   6    5.48    0.64
  18   2  -6    6.14    0.66
  16  -2  -6   -0.35    0.27
 -16  -2   6   -0.46    0.38
 -16   2   6    0.53    0.38
  16   2  -6   -0.53    0.26
  14  -2  -6    0.75    0.34
 -14  -2   6    1.05    0.43
  14   2  -6    1.55    0.40
 -14   2   6    1.01    0.39
 -14   2   6    1.15    0.25
  12  -2  -6   13.31    0.76
 -12  -2   6   12.99    0.83
 -12   2   6   14.39    0.61
  12   2  -6   13.21    0.78
 -12   2   6   12.96    0.78
 -10  -2   6   14.74    0.84
 -10  -2   6   15.32    0.82
  10  -2  -6   14.70    0.77
 -10   2   6   15.15    0.80
 -10   2   6   15.71    0.67
  10   2  -6   16.08    0.84
  -8  -2   6    9.75    0.69
  -8  -2   6    9.38    0.66
   8  -2  -6    7.94    0.60
  -8   2   6    8.00    0.53
   8   2  -6    7.98    0.63
  -8   2   6    9.51    0.64
  -8   2   6    9.64    0.64
   6  -2  -6   14.45    0.75
  -6  -2   6   13.48    0.76
  -6  -2   6   13.90    0.76
  -6   2   6   14.51    0.78
  -6   2   6   14.33    0.65
   6   2  -6   13.47    0.76
  -6   2   6   12.65    0.72
  -4  -2   6   21.38    1.00
  -4  -2   6   23.64    0.98
  -4  -2   6   22.77    0.88
   4  -2  -6   22.00    0.93
  -4   2   6   22.50    0.99
  -4   2   6   21.58    0.95
   4   2  -6   23.28    0.98
  -4   2   6   22.97    0.89
  -2  -2   6    2.25    0.43
  -2  -2   6    2.07    0.36
   2  -2  -6    2.26    0.41
  -2  -2   6    3.10    0.47
  -2   2   6    2.32    0.36
  -2   2   6    2.73    0.46
  -2   2   6    2.00    0.38
   2   2  -6    2.51    0.43
   0  -2  -6    6.15    0.58
   0  -2   6    5.37    0.49
   0  -2   6    5.59    0.58
   0  -2   6    5.38    0.57
   0   2   6    5.04    0.58
   0   2   6    4.99    0.53
   0   2   6    5.08    0.48
   0   2  -6    4.80    0.53
   2  -2   6    2.25    0.42
  -2  -2  -6    2.37    0.44
   2  -2   6    1.97    0.40
   2   2   6    2.58    0.45
  -2   2  -6    1.98    0.43
  -2   2  -6    2.85    0.52
   2   2   6    2.68    0.46
   4  -2   6   10.24    0.68
  -4  -2  -6    8.90    0.76
   4  -2   6    8.90    0.65
  -4   2  -6    9.07    0.80
   4   2   6    8.70    0.65
  -4   2  -6    9.08    0.71
  -6  -2  -6    8.03    0.74
   6  -2   6    8.33    0.68
  -6   2  -6    8.05    0.79
   6   2   6    9.17    0.70
  -6   2  -6    7.34    0.69
   8  -2   6    2.18    0.45
  -8  -2  -6    1.95    0.50
  -8   2  -6    2.82    0.58
   8   2   6    2.35    0.46
  -8   2  -6    2.43    0.51
  10  -2   6    3.11    0.49
 -10  -2  -6    3.08    0.58
  10   2   6    4.30    0.57
 -10   2  -6    2.79    0.61
  12  -2   6    2.33    0.49
  12   2   6    2.38    0.49
 -12   2  -6    2.57    0.65
  14  -2   6    9.17    0.84
 -14   2  -6    8.07    0.97
 -14   2  -6    8.52    0.90
  14   2   6    8.27    0.83
 -19  -3   6    5.02    0.69
 -19   3   6    4.61    0.59
  19   3  -6    4.08    0.61
  17  -3  -6    4.37    0.54
 -17  -3   6    4.35    0.62
  17   3  -6    5.67    0.64
 -17   3   6    4.90    0.59
 -15  -3   6    0.61    0.40
  15  -3  -6   -0.16    0.27
  15   3  -6    0.90    0.39
 -15   3   6    0.20    0.34
 -13  -3   6    1.74    0.47
  13  -3  -6    1.36    0.37
 -13   3   6    1.79    0.40
  13   3  -6    1.56    0.41
 -13   3   6    1.88    0.28
 -11  -3   6    0.82    0.38
  11  -3  -6    0.26    0.29
 -11   3   6    0.41    0.34
 -11   3   6    0.79    0.27
  11   3  -6    0.52    0.33
   9  -3  -6   26.10    1.04
  -9  -3   6   27.65    1.10
  -9  -3   6   27.31    1.12
   9   3  -6   26.57    1.11
  -9   3   6   25.88    1.05
  -9   3   6   26.39    0.92
  -7  -3   6   13.86    0.80
  -7  -3   6   13.31    0.76
   7  -3  -6   13.49    0.73
  -7   3   6   13.01    0.74
  -7   3   6   14.14    0.75
   7   3  -6   13.74    0.75
  -7   3   6   13.40    0.65
   5  -3  -6    5.30    0.52
  -5  -3   6    5.28    0.55
  -5  -3   6    5.55    0.58
  -5   3   6    6.38    0.56
   5   3  -6    6.43    0.59
  -5   3   6    6.01    0.56
  -5   3   6    5.71    0.47
   3  -3  -6   29.56    1.12
  -3  -3   6   30.82    1.16
  -3  -3   6   30.71    1.20
  -3  -3   6   29.93    1.08
  -3   3   6   28.54    1.05
   3   3  -6   28.56    1.14
  -3   3   6   30.30    1.13
  -3   3   6   28.01    1.11
  -1  -3   6    1.71    0.39
  -1  -3   6    1.75    0.40
  -1  -3   6    2.61    0.39
   1  -3  -6    2.21    0.42
  -1   3   6    1.79    0.38
  -1   3   6    2.01    0.36
   1   3  -6    1.49    0.37
  -1   3   6    1.99    0.40
  -1  -3  -6    3.62    0.49
   1  -3   6    4.16    0.44
   1  -3   6    4.20    0.52
   1   3   6    3.47    0.49
   1   3   6    4.05    0.53
  -1   3  -6    2.91    0.45
  -1   3  -6    3.88    0.55
  -3  -3  -6    4.09    0.53
   3  -3   6    4.45    0.55
   3  -3   6    4.12    0.48
  -3   3  -6    4.56    0.61
   3   3   6    4.47    0.54
  -3   3  -6    4.16    0.51
   5  -3   6   10.40    0.72
  -5  -3  -6   11.54    0.77
   5  -3   6   12.02    0.73
   5   3   6   13.11    0.78
  -5   3  -6   12.07    0.76
  -5   3  -6   12.93    0.90
  -7  -3  -6    2.27    0.51
   7  -3   6    2.38    0.45
  -7   3  -6    1.50    0.44
   7   3   6    2.62    0.48
  -7   3  -6    1.93    0.53
  -9  -3  -6    1.12    0.42
   9  -3   6    0.35    0.34
  -9   3  -6    0.70    0.49
   9   3   6    0.88    0.36
  11  -3   6    4.57    0.60
  11   3   6    4.63    0.64
 -11   3  -6    5.19    0.76
  13  -3   6    4.45    0.62
  13   3   6    4.78    0.65
 -13   3  -6    4.85    0.78
 -20  -4   6    0.60    0.51
  20   4  -6    0.20    0.37
 -20   4   6    0.15    0.39
 -18  -4   6    0.78    0.48
  18   4  -6    1.73    0.46
 -18   4   6    0.89    0.38
  16  -4  -6    2.84    0.45
 -16  -4   6    3.46    0.59
  16   4  -6    3.41    0.53
 -16   4   6    3.70    0.51
 -14  -4   6    8.39    0.75
  14  -4  -6    8.52    0.62
  14   4  -6    8.21    0.74
 -14   4   6    9.25    0.66
 -12  -4   6    1.90    0.46
  12  -4  -6    1.63    0.36
 -12   4   6    1.41    0.26
  12   4  -6    1.16    0.38
 -12   4   6    1.36    0.38
  10  -4  -6    7.57    0.58
 -10  -4   6    6.63    0.65
  10   4  -6    6.59    0.63
 -10   4   6    6.34    0.57
 -10   4   6    6.64    0.46
   8  -4  -6    0.29    0.30
  -8  -4   6   -0.37    0.32
   8   4  -6    0.25    0.33
  -8   4   6    0.14    0.32
  -8   4   6    0.58    0.29
  -6  -4   6    1.22    0.36
  -6  -4   6    0.35    0.34
   6  -4  -6    0.84    0.33
  -6   4   6    1.37    0.38
  -6   4   6    1.64    0.31
   6   4  -6    0.78    0.31
  -6   4   6    0.74    0.31
  -4  -4   6   -0.10    0.28
  -4  -4   6   -0.07    0.32
   4  -4  -6    0.20    0.28
  -4   4   6   -0.15    0.26
  -4   4   6   -0.09    0.30
  -4   4   6   -0.20    0.26
   4   4  -6    0.50    0.30
  -2  -4   6    5.62    0.58
   2  -4  -6    6.46    0.58
  -2  -4   6    5.86    0.59
  -2  -4   6    5.25    0.47
   2   4  -6    5.76    0.58
  -2   4   6    5.88    0.55
  -2   4   6    5.73    0.57
   0  -4   6    0.72    0.31
   0  -4  -6    0.58    0.34
   0  -4   6    0.73    0.34
   0   4   6    0.56    0.31
   0   4  -6    1.08    0.34
   0   4   6    0.54    0.36
  -2  -4  -6    1.83    0.44
   2  -4   6    2.08    0.39
   2  -4   6    2.46    0.47
  -2   4  -6    1.19    0.40
   2   4   6    1.46    0.44
  -2   4  -6    1.84    0.50
   2   4   6    1.91    0.39
  -4  -4  -6    2.60    0.48
   4  -4   6    2.50    0.46
   4  -4   6    4.05    0.48
  -4   4  -6    3.11    0.50
   4   4   6    3.12    0.47
  -4   4  -6    3.36    0.59
   6  -4   6    0.74    0.36
  -6  -4  -6    0.17    0.38
   6  -4   6    0.43    0.33
  -6   4  -6    0.47    0.44
   6   4   6    0.64    0.34
  -6   4  -6    1.05    0.40
   8  -4   6    2.85    0.48
  -8  -4  -6    2.82    0.55
   8   4   6    3.62    0.53
  -8   4  -6    3.29    0.55
  -8   4  -6    2.77    0.60
 -10  -4  -6    3.24    0.60
  10  -4   6    2.07    0.47
 -10   4  -6    2.76    0.60
  10   4   6    2.76    0.49
  12  -4   6    5.41    0.66
  12   4   6    5.81    0.69
 -12   4  -6    5.51    0.78
  14  -4   6    0.71    0.41
 -14   4  -6    1.36    0.59
 -14   4  -6    2.26    0.59
  14   4   6    0.64    0.39
 -19  -5   6    0.13    0.49
  19   5  -6   -0.41    0.34
 -19   5   6    0.09    0.31
 -17  -5   6    1.81    0.55
  17  -5  -6    2.06    0.40
  17   5  -6    2.18    0.50
 -17   5   6    1.74    0.43
  15  -5  -6    6.04    0.54
 -15  -5   6    5.14    0.65
  15   5  -6    5.96    0.66
 -15   5   6    6.09    0.59
  13  -5  -6   -0.19    0.25
 -13  -5   6    0.10    0.37
 -13   5   6   -0.01    0.33
  13   5  -6    0.22    0.32
 -11  -5   6    3.15    0.52
  11  -5  -6    4.03    0.45
  11   5  -6    4.09    0.54
 -11   5   6    3.40    0.46
   9  -5  -6   32.43    1.18
  -9  -5   6   36.40    1.34
   9   5  -6   34.04    1.29
  -9   5   6   33.80    1.21
  -7  -5   6   26.74    1.11
   7  -5  -6   27.34    1.03
  -7   5   6   25.55    1.04
   7   5  -6   27.76    1.14
  -5  -5   6   10.48    0.69
  -5  -5   6   10.99    0.72
   5  -5  -6   10.43    0.65
  -5   5   6   10.64    0.64
  -5   5   6   10.74    0.69
   5   5  -6   11.63    0.74
   3  -5  -6   18.92    0.87
  -3  -5   6   18.24    0.93
  -3  -5   6   17.42    0.87
   3   5  -6   17.87    0.88
  -3   5   6   17.97    0.85
  -3   5   6   17.30    0.82
  -1  -5   6   13.33    0.83
  -1  -5   6   12.81    0.76
  -1  -5   6   12.82    0.71
   1  -5  -6   13.18    0.76
   1   5  -6   13.92    0.80
  -1   5   6   13.35    0.74
  -1   5   6   12.82    0.78
  -1  -5  -6    3.35    0.50
   1  -5   6    3.08    0.49
   1  -5   6    3.13    0.42
  -1   5  -6    3.91    0.51
   1   5   6    2.02    0.39
   1   5   6    2.62    0.46
   3  -5   6    6.94    0.68
  -3  -5  -6    6.25    0.65
   3  -5   6    7.34    0.61
  -3   5  -6    7.14    0.65
  -3   5  -6    6.62    0.72
   3   5   6    6.85    0.64
  -5  -5  -6    8.10    0.76
   5  -5   6   10.38    0.73
   5  -5   6    9.25    0.67
   5   5   6    8.83    0.68
  -5   5  -6   10.24    0.88
  -5   5  -6    8.23    0.72
   7  -5   6    4.01    0.54
  -7  -5  -6    4.63    0.63
   7  -5   6    5.13    0.55
  -7   5  -6    5.36    0.71
   7   5   6    4.89    0.59
  -7   5  -6    5.43    0.62
  -9  -5  -6    3.98    0.60
   9  -5   6    3.13    0.50
   9   5   6    4.07    0.56
  -9   5  -6    3.89    0.67
 -11  -5  -6   10.04    0.89
  11  -5   6    8.81    0.79
 -11   5  -6    8.66    0.93
  11   5   6    8.21    0.80
  13  -5   6    0.61    0.38
 -13   5  -6    0.56    0.50
 -13   5  -6    0.02    0.49
  13   5   6    0.82    0.40
 -20  -6   6    2.44    0.63
 -20   6   6    2.48    0.47
  20   6  -6    1.07    0.47
 -18  -6   6    0.12    0.45
 -18   6   6    0.93    0.38
  18   6  -6    1.21    0.44
  16  -6  -6    1.64    0.35
 -16  -6   6    0.49    0.46
  16   6  -6    0.60    0.38
 -16   6   6    0.69    0.38
 -14  -6   6    1.86    0.49
  14  -6  -6    0.26    0.30
  14   6  -6    0.73    0.39
 -14   6   6    0.79    0.33
  12  -6  -6    2.29    0.37
 -12  -6   6    2.80    0.53
 -12   6   6    2.51    0.41
  12   6  -6    1.81    0.44
  10  -6  -6    2.69    0.39
 -10  -6   6    2.38    0.49
 -10   6   6    1.83    0.40
  10   6  -6    1.76    0.40
   8  -6  -6   11.00    0.64
  -8  -6   6   11.30    0.77
   8   6  -6   11.91    0.76
  -8   6   6   11.37    0.68
   6  -6  -6   15.83    0.77
  -6  -6   6   15.59    0.84
  -6   6   6   15.00    0.79
  -6   6   6   15.75    0.74
   6   6  -6   15.69    0.83
  -4  -6   6    2.52    0.47
  -4  -6   6    2.13    0.43
   4  -6  -6    2.52    0.41
  -4   6   6    2.08    0.41
  -4   6   6    2.60    0.38
   4   6  -6    2.25    0.42
  -2  -6   6    6.99    0.63
  -2  -6   6    6.84    0.67
   2  -6  -6    7.15    0.62
   2   6  -6    6.03    0.59
  -2   6   6    6.96    0.63
  -2   6   6    6.63    0.58
   0  -6  -6   31.17    1.21
   0  -6   6   29.62    1.13
   0  -6   6   31.98    1.28
   0   6  -6   31.27    1.19
   0   6   6   30.16    1.16
   0   6   6   29.23    1.19
   2  -6   6    0.92    0.34
  -2  -6  -6    0.62    0.38
   2  -6   6    1.17    0.39
  -2   6  -6    1.15    0.39
   2   6   6    0.61    0.40
   2   6   6    1.34    0.36
   4  -6   6    1.38    0.41
  -4  -6  -6    0.85    0.39
   4  -6   6    1.85    0.40
   4   6   6    1.42    0.37
  -4   6  -6    2.50    0.55
  -4   6  -6    2.63    0.47
   6  -6   6   12.96    0.81
   6  -6   6   14.12    0.79
  -6  -6  -6   11.97    0.85
  -6   6  -6   13.35    0.83
  -6   6  -6   12.49    0.99
   6   6   6   14.08    0.81
   8  -6   6    2.49    0.48
  -8  -6  -6    3.58    0.56
  -8   6  -6    3.03    0.58
   8   6   6    2.42    0.48
  10  -6   6    2.87    0.52
 -10  -6  -6    2.37    0.53
 -10   6  -6    2.93    0.65
  10   6   6    2.78    0.52
  12  -6   6    1.53    0.44
 -12   6  -6    1.10    0.55
 -12   6  -6    1.27    0.51
  12   6   6    1.39    0.45
 -19  -7   6    2.58    0.63
 -19   7   6    2.34    0.43
  19   7  -6    1.33    0.50
 -17  -7   6    0.70    0.50
 -17   7   6    0.85    0.36
  17   7  -6    0.72    0.40
  15  -7  -6    2.09    0.38
 -15  -7   6    2.08    0.53
 -15   7   6    2.23    0.41
  15   7  -6    1.97    0.50
  13  -7  -6    0.24    0.24
 -13  -7   6   -0.21    0.38
  13   7  -6    0.05    0.32
 -13   7   6    0.90    0.34
 -11  -7   6    4.82    0.62
  11  -7  -6    5.12    0.48
 -11   7   6    4.65    0.48
  11   7  -6    3.79    0.56
   9  -7  -6    8.83    0.58
  -9  -7   6    9.02    0.68
   9   7  -6    9.21    0.71
  -9   7   6    8.09    0.60
   7  -7  -6    4.23    0.47
  -7  -7   6    5.28    0.58
  -7   7   6    4.72    0.51
   7   7  -6    5.02    0.59
   5  -7  -6    2.64    0.40
  -5  -7   6    2.78    0.49
  -5   7   6    2.23    0.41
   5   7  -6    2.20    0.44
  -5   7   6    3.65    0.41
   3  -7  -6    3.45    0.47
  -3  -7   6    3.96    0.53
  -3  -7   6    3.39    0.52
   3   7  -6    3.76    0.51
  -3   7   6    2.77    0.40
  -3   7   6    3.22    0.47
   1  -7  -6    0.05    0.32
  -1  -7   6   -0.05    0.32
  -1   7   6    0.38    0.25
   1   7  -6    0.92    0.36
  -1   7   6   -0.23    0.31
   1  -7   6    7.28    0.70
  -1  -7  -6    7.79    0.68
   1  -7   6    7.54    0.60
   1   7   6    7.93    0.66
   1   7   6    7.42    0.66
  -1   7  -6    7.94    0.61
   3  -7   6    3.61    0.52
  -3  -7  -6    2.97    0.49
   3  -7   6    3.54    0.43
   3   7   6    3.08    0.47
  -3   7  -6    3.58    0.49
   3   7   6    3.83    0.58
   5  -7   6    3.81    0.54
  -5  -7  -6    3.56    0.57
   5  -7   6    3.88    0.49
   5   7   6    5.08    0.58
  -5   7  -6    4.62    0.57
  -5   7  -6    4.39    0.65
  -7  -7  -6    3.18    0.57
   7  -7   6    4.86    0.58
   7  -7   6    6.50    0.59
  -7   7  -6    4.08    0.66
   7   7   6    4.12    0.56
   9  -7   6    2.56    0.49
  -9  -7  -6    1.23    0.44
  -9   7  -6    2.04    0.58
   9   7   6    2.04    0.44
 -11  -7  -6   -0.11    0.41
  11  -7   6    0.15    0.31
 -11   7  -6   -0.14    0.43
  11   7   6   -0.44    0.26
 -11   7  -6    0.11    0.47
  13  -7   6    0.55    0.38
 -13   7  -6   -0.25    0.42
  13   7   6   -0.25    0.36
 -13   7  -6   -0.26    0.49
 -18  -8   6    4.88    0.73
  18   8  -6    4.98    0.67
 -18   8   6    4.54    0.51
 -16  -8   6    1.24    0.51
  16   8  -6    1.73    0.49
 -16   8   6    2.07    0.40
 -14  -8   6    0.47    0.43
  14  -8  -6    1.22    0.31
  14   8  -6    0.55    0.37
 -14   8   6    0.88    0.34
 -12  -8   6    2.36    0.51
  12  -8  -6    3.48    0.41
  12   8  -6    4.03    0.58
 -12   8   6    2.78    0.41
 -10  -8   6    0.15    0.35
  10  -8  -6    0.75    0.30
 -10   8   6    0.93    0.35
  10   8  -6    1.08    0.38
  -8  -8   6    0.36    0.39
   8  -8  -6    0.76    0.29
  -8   8   6   -0.01    0.30
   8   8  -6    0.53    0.37
   6  -8  -6   20.28    0.89
  -6  -8   6   22.17    1.03
   6   8  -6   21.25    1.03
  -6   8   6   20.94    0.94
  -4  -8   6    2.20    0.46
   4  -8  -6    1.71    0.38
   4   8  -6    2.25    0.43
  -4   8   6    2.19    0.35
  -4   8   6    2.67    0.43
   2  -8  -6    2.45    0.43
  -2  -8   6    1.59    0.43
   2   8  -6    2.11    0.41
  -2   8   6    1.65    0.36
  -2   8   6    1.45    0.41
   0  -8   6   39.07    1.47
   0  -8  -6   37.02    1.38
   0   8  -6   37.84    1.39
   0   8   6   39.30    1.34
   0   8   6   36.50    1.40
  -2  -8  -6   12.23    0.81
   2  -8   6   12.46    0.71
   2  -8   6   10.54    0.77
   2   8   6   12.17    0.74
   2   8   6   12.99    0.81
  -2   8  -6   10.46    0.75
   4  -8   6    1.39    0.39
  -4  -8  -6    1.11    0.44
   4  -8   6    1.43    0.37
   4   8   6    1.29    0.36
  -4   8  -6    1.03    0.39
   6  -8   6    2.96    0.45
   6  -8   6    2.59    0.46
  -6  -8  -6    3.03    0.53
  -6   8  -6    3.32    0.60
   6   8   6    2.62    0.48
  -6   8  -6    1.87    0.44
  -8  -8  -6    8.49    0.81
   8  -8   6    8.36    0.76
  -8   8  -6    8.39    0.84
   8   8   6    8.65    0.77
 -10  -8  -6    2.49    0.56
  10  -8   6    1.78    0.44
  10   8   6    2.43    0.52
 -10   8  -6    1.00    0.46
 -10   8  -6    3.67    0.66
 -12  -8  -6    1.19    0.53
  12  -8   6    0.81    0.37
 -12   8  -6    0.65    0.52
 -12   8  -6    0.55    0.48
  12   8   6    1.93    0.50
 -19  -9   6    2.51    0.65
 -19   9   6    3.41    0.45
  19   9  -6    3.84    0.64
 -17  -9   6   -0.12    0.45
 -17   9   6    0.83    0.35
  17   9  -6    1.49    0.46
 -15  -9   6    0.04    0.43
 -15   9   6    0.28    0.31
  15   9  -6    0.71    0.40
  13  -9  -6    0.20    0.25
 -13  -9   6   -0.09    0.40
  13   9  -6   -0.23    0.32
 -13   9   6    0.40    0.29
 -11  -9   6    0.38    0.41
  11  -9  -6    0.15    0.26
  11   9  -6   -0.04    0.33
 -11   9   6   -0.02    0.30
  -9  -9   6    1.48    0.45
   9  -9  -6    2.07    0.36
   9   9  -6    1.55    0.45
  -9   9   6    1.45    0.37
   7  -9  -6    7.84    0.55
  -7  -9   6    7.50    0.70
   7   9  -6    8.92    0.71
  -7   9   6    7.66    0.62
  -5  -9   6    9.66    0.73
   5  -9  -6    9.15    0.62
   5   9  -6    7.82    0.71
  -5   9   6    9.79    0.66
  -3  -9   6    4.91    0.60
   3  -9  -6    5.32    0.56
  -3   9   6    4.97    0.56
   3   9  -6    4.87    0.59
  -3   9   6    5.57    0.51
  -1  -9   6   11.30    0.81
   1  -9  -6   13.07    0.74
  -1   9   6   11.38    0.77
   1   9  -6   11.48    0.73
  -1   9   6   11.85    0.68
   1  -9   6    5.49    0.62
  -1  -9  -6    6.37    0.64
   1  -9   6    6.14    0.55
   1   9   6    6.74    0.65
  -1   9  -6    6.73    0.63
   1   9   6    6.91    0.62
   3  -9   6    0.62    0.37
  -3  -9  -6    1.22    0.40
   3  -9   6    0.82    0.34
   3   9   6    0.74    0.35
  -3   9  -6    1.50    0.41
   3   9   6    1.20    0.43
   5  -9   6    4.78    0.59
   5  -9   6    4.75    0.51
  -5  -9  -6    3.98    0.56
   5   9   6    3.90    0.52
  -5   9  -6    4.70    0.58
  -7  -9  -6    2.39    0.53
   7  -9   6    2.33    0.46
  -7   9  -6    2.34    0.55
   7   9   6    1.92    0.45
   9  -9   6    2.76    0.49
  -9  -9  -6    2.07    0.54
  -9   9  -6    2.13    0.52
   9   9   6    2.27    0.49
  -9   9  -6    2.59    0.61
  11  -9   6    1.70    0.43
 -11  -9  -6    1.88    0.55
 -11   9  -6    2.03    0.56
  11   9   6    1.98    0.50
 -11   9  -6    1.38    0.58
  13  -9   6   -0.37    0.30
  13   9   6    0.75    0.41
 -13   9  -6    0.86    0.48
 -13   9  -6    0.66    0.52
 -18 -10   6    3.14    0.71
  18  10  -6    3.98    0.64
 -18  10   6    2.43    0.40
 -16 -10   6    0.41    0.49
  16  10  -6    0.65    0.42
 -16  10   6    0.64    0.30
 -14 -10   6    1.27    0.48
 -14  10   6    0.32    0.28
  14  10  -6    1.16    0.43
 -12 -10   6    5.14    0.67
  12 -10  -6    3.78    0.41
 -12  10   6    3.39    0.42
  12  10  -6    3.72    0.56
 -10 -10   6    4.02    0.60
  10 -10  -6    4.59    0.45
 -10  10   6    5.25    0.49
  10  10  -6    4.15    0.57
  -8 -10   6    2.60    0.49
   8 -10  -6    2.61    0.39
   8  10  -6    2.66    0.47
  -8  10   6    2.77    0.42
   6 -10  -6    2.25    0.39
  -6 -10   6    2.70    0.47
   6  10  -6    1.31    0.43
  -6  10   6    1.76    0.41
   4 -10  -6    8.34    0.63
   4  10  -6    8.27    0.73
  -4  10   6    7.86    0.63
   2 -10  -6    8.14    0.64
  -2 -10   6    9.70    0.76
  -2  10   6    9.06    0.69
  -2  10   6    9.42    0.62
   2  10  -6    8.57    0.70
   0 -10  -6    4.32    0.55
   0 -10   6    5.61    0.62
   0  10   6    5.78    0.63
   0  10  -6    5.50    0.60
   0  10   6    6.20    0.57
   2 -10   6   14.86    0.86
   2 -10   6   13.74    0.78
  -2 -10  -6   12.75    0.83
   2  10   6   13.59    0.79
   2  10   6   13.62    0.89
  -2  10  -6   13.56    0.78
  -4 -10  -6    6.22    0.67
   4 -10   6    6.59    0.58
   4 -10   6    7.02    0.69
  -4  10  -6    6.58    0.65
   4  10   6    6.67    0.65
  -6 -10  -6    5.48    0.68
   6 -10   6    7.35    0.71
   6  10   6    6.52    0.67
   8 -10   6    0.50    0.34
  -8 -10  -6    0.80    0.45
   8  10   6    0.81    0.38
  -8  10  -6    0.98    0.45
  10 -10   6    0.10    0.34
 -10 -10  -6   -0.11    0.42
 -10  10  -6    0.14    0.49
 -10  10  -6    0.08    0.43
  10  10   6   -0.04    0.30
 -12 -10  -6    0.46    0.46
  12 -10   6    1.13    0.40
 -12  10  -6    0.97    0.57
  12  10   6    0.89    0.45
 -12  10  -6   -0.01    0.46
 -19 -11   6    0.36    0.54
 -19  11   6    0.29    0.28
  19  11  -6    0.40    0.45
 -17 -11   6    1.60    0.58
  17  11  -6    2.96    0.59
 -17  11   6    2.11    0.38
 -15 -11   6    1.47    0.54
 -15  11   6    0.90    0.32
  15  11  -6    0.96    0.43
 -13 -11   6    3.51    0.61
  13  11  -6    2.86    0.53
 -13  11   6    2.08    0.37
  11 -11  -6    0.02    0.26
 -11 -11   6    0.25    0.39
 -11  11   6    0.17    0.28
  11  11  -6    1.04    0.40
  -9 -11   6   12.24    0.88
   9 -11  -6   14.59    0.71
   9  11  -6   15.03    0.89
  -9  11   6   14.22    0.73
   7 -11  -6    4.31    0.47
  -7  11   6    5.36    0.54
   7  11  -6    4.54    0.60
   5 -11  -6    5.25    0.52
   5  11  -6    4.76    0.59
  -5  11   6    4.24    0.51
   3 -11  -6   22.29    0.97
   3  11  -6   21.22    1.04
  -3  11   6   21.12    0.99
   1 -11  -6    1.58    0.40
  -1 -11   6    0.89    0.41
  -1  11   6    1.81    0.46
  -1  11   6    1.89    0.38
   1  11  -6    1.85    0.43
  -1 -11  -6    4.32    0.58
   1 -11   6    4.63    0.60
   1  11   6    5.11    0.62
  -1  11  -6    4.62    0.55
   1  11   6    4.90    0.54
  -3 -11  -6    2.41    0.48
   3 -11   6    2.15    0.42
   3 -11   6    1.61    0.44
  -3  11  -6    1.98    0.44
   3  11   6    2.19    0.48
   3  11   6    1.56    0.40
  -5 -11  -6    9.22    0.73
   5 -11   6    8.23    0.77
   5  11   6    9.37    0.71
   7 -11   6    2.00    0.46
  -7 -11  -6    2.86    0.57
   7  11   6    1.92    0.44
  -7  11  -6    1.90    0.52
   9 -11   6    0.28    0.34
  -9 -11  -6    0.18    0.42
  -9  11  -6    0.22    0.41
   9  11   6    0.19    0.31
 -11 -11  -6    0.91    0.47
  11 -11   6    0.66    0.38
 -11  11  -6    2.16    0.55
  11  11   6    1.03    0.45
 -18 -12   6    1.50    0.60
 -18  12   6    1.49    0.31
  18  12  -6    1.49    0.50
 -16 -12   6    9.09    0.94
  16  12  -6    9.92    0.91
 -16  12   6    9.74    0.58
 -14 -12   6    1.79    0.53
  14  12  -6    1.97    0.50
 -14  12   6    1.48    0.34
 -12 -12   6    3.69    0.63
  12 -12  -6    4.05    0.41
 -12  12   6    3.64    0.42
  12  12  -6    3.25    0.57
  10 -12  -6    0.82    0.28
  10  12  -6    0.55    0.40
 -10  12   6    0.85    0.34
   8 -12  -6    4.46    0.46
   8  12  -6    3.09    0.54
  -8  12   6    3.47    0.45
   6 -12  -6    0.79    0.31
  -6  12   6    1.05    0.38
   6  12  -6    0.98    0.41
   4 -12  -6    5.21    0.54
  -4  12   6    6.07    0.60
   4  12  -6    6.88    0.68
   2 -12  -6    7.20    0.65
  -2  12   6    7.21    0.66
   2  12  -6    7.83    0.71
  -2  12   6    6.80    0.54
   0 -12  -6    4.98    0.59
   0 -12   6    7.39    0.71
   0  12   6    6.81    0.59
   0  12   6    6.05    0.65
   0  12  -6    7.53    0.69
  -2 -12  -6   10.48    0.76
   2 -12   6    9.91    0.77
  -2  12  -6   11.95    0.76
   2  12   6    9.99    0.76
   2  12   6    9.97    0.70
   4 -12   6    1.56    0.38
   4 -12   6    1.63    0.42
  -4 -12  -6    1.21    0.42
  -4  12  -6    0.83    0.38
  -4  12  -6    0.32    0.40
   4  12   6    1.07    0.38
  -6 -12  -6    1.08    0.43
   6 -12   6    1.11    0.40
  -6  12  -6    0.79    0.41
   6  12   6    1.15    0.40
  -8 -12  -6    2.41    0.52
   8 -12   6    2.19    0.47
   8  12   6    2.86    0.52
  -8  12  -6    2.81    0.59
  10 -12   6    1.86    0.45
 -10 -12  -6    0.99    0.45
 -10  12  -6    1.45    0.51
  10  12   6    2.62    0.54
  12 -12   6    1.97    0.47
 -12 -12  -6    2.86    0.65
 -12  12  -6    1.94    0.58
  12  12   6    1.74    0.52
  17  13  -6    0.61    0.43
 -17  13   6    1.55    0.32
  15  13  -6    4.19    0.63
  13  13  -6   -0.20    0.37
 -13  13   6    0.25    0.27
  11 -13  -6    2.72    0.35
 -11  13   6    1.92    0.35
  11  13  -6    3.54    0.60
   9 -13  -6   19.91    0.82
  -9  13   6   17.25    0.81
   9  13  -6   16.17    0.99
   7 -13  -6    3.61    0.45
   7  13  -6    3.44    0.54
  -7  13   6    3.82    0.47
   5 -13  -6    1.47    0.38
  -5  13   6    2.19    0.43
   5  13  -6    2.37    0.46
   3 -13  -6   13.61    0.77
   3  13  -6   12.09    0.83
  -3  13   6   13.63    0.80
  -1 -13   6    2.13    0.47
   1 -13  -6    3.20    0.49
   1  13  -6    3.38    0.52
  -1  13   6    3.50    0.44
  -1  13   6    2.77    0.53
   1 -13   6    0.31    0.34
  -1 -13  -6    0.99    0.38
   1  13   6    0.14    0.34
  -1  13  -6    0.49    0.35
   1  13   6    0.44    0.31
  -1  13  -6    0.77    0.38
   3 -13   6   15.41    0.94
  -3 -13  -6   17.07    0.96
  -3  13  -6   16.31    0.97
   3  13   6   16.13    0.90
  -3  13  -6   18.33    0.93
   3  13   6   16.91    0.96
   5 -13   6    2.58    0.48
  -5 -13  -6    1.58    0.45
  -5  13  -6    1.17    0.42
   5  13   6    2.92    0.50
  -7 -13  -6    1.99    0.52
   7 -13   6    2.60    0.52
   7  13   6    2.41    0.49
  -7  13  -6    2.45    0.55
   9 -13   6    0.57    0.38
  -9 -13  -6    1.29    0.48
   9  13   6    1.59    0.46
  -9  13  -6    1.32    0.51
  11 -13   6    2.28    0.50
 -11 -13  -6    2.30    0.56
 -11  13  -6    1.93    0.53
  11  13   6    1.27    0.48
  18  14  -6    0.87    0.49
 -18  14   6    0.73    0.24
  16  14  -6    2.09    0.55
 -16  14   6    1.68    0.31
 -14  14   6    2.01    0.33
  14  14  -6    2.21    0.54
 -12  14   6    0.09    0.26
  12  14  -6    0.23    0.39
  10 -14  -6    5.38    0.46
 -10  14   6    4.76    0.48
  10  14  -6    5.80    0.70
   8 -14  -6    3.05    0.41
   8  14  -6    1.99    0.49
  -8  14   6    3.01    0.44
   6 -14  -6   12.25    0.70
   6  14  -6   10.25    0.80
  -6  14   6   11.69    0.70
   4 -14  -6    2.42    0.43
  -4  14   6    2.08    0.43
   4  14  -6    1.61    0.45
   4  14  -6    2.42    0.40
   2 -14  -6    9.59    0.69
   2  14  -6   10.07    0.72
  -2  14   6    9.11    0.72
   2  14  -6    8.70    0.78
   0 -14   6    4.01    0.59
   0 -14  -6    3.57    0.53
   0  14  -6    3.76    0.51
   0  14  -6    4.00    0.55
   0  14   6    4.44    0.59
   0  14   6    3.43    0.49
  -2 -14  -6    2.14    0.48
   2 -14   6    3.54    0.55
   2  14   6    3.66    0.51
   2  14   6    2.58    0.54
  -2  14  -6    3.27    0.50
  -2  14  -6    3.98    0.53
  -4 -14  -6    5.29    0.67
   4 -14   6    6.71    0.71
   4  14   6    7.04    0.68
  -4  14  -6    6.34    0.69
  -6 -14  -6    2.68    0.54
   6 -14   6    1.87    0.45
  -6  14  -6    2.65    0.54
   6  14   6    1.95    0.44
  -8 -14  -6    7.23    0.79
   8 -14   6    7.18    0.74
  -8  14  -6    6.65    0.77
   8  14   6    6.39    0.72
  10 -14   6    3.41    0.56
 -10 -14  -6    4.20    0.68
 -10  14  -6    2.50    0.59
  10  14   6    3.98    0.65
 -17  15   6    0.78    0.24
  17  15  -6    1.14    0.48
  15  15  -6    1.11    0.48
 -15  15   6    0.42    0.26
 -13  15   6    5.09    0.45
  13  15  -6    4.54    0.69
 -11  15   6    2.62    0.39
  11  15  -6    4.20    0.64
   9 -15  -6    1.76    0.34
  -9  15   6    1.64    0.37
   9  15  -6    1.25    0.46
   7 -15  -6    0.08    0.28
  -7  15   6    0.26    0.32
   7  15  -6   -0.21    0.35
   5 -15  -6    0.44    0.31
  -5  15   6    0.28    0.34
   5  15  -6   -0.02    0.34
   3 -15  -6    0.54    0.35
  -3  15   6    0.16    0.36
   3  15  -6    0.51    0.35
   3  15  -6    1.10    0.35
   1 -15  -6    2.29    0.45
   1  15  -6    1.71    0.44
   1  15  -6    1.98    0.45
  -1  15   6    1.44    0.45
   1 -15   6    3.62    0.56
  -1 -15  -6    3.25    0.49
   1  15   6    2.72    0.53
   1  15   6    4.09    0.52
  -1  15  -6    3.08    0.51
  -1  15  -6    3.31    0.53
  -3 -15  -6    0.50    0.37
   3 -15   6    0.15    0.34
  -3  15  -6    0.87    0.37
   3  15   6    0.91    0.46
   3  15   6    0.16    0.32
   5 -15   6    7.18    0.74
  -5 -15  -6    6.18    0.70
  -5  15  -6    6.92    0.73
   5  15   6    7.22    0.69
   7 -15   6    0.52    0.37
  -7 -15  -6    1.36    0.48
  -7  15  -6    0.23    0.44
   7  15   6    1.24    0.46
  -9 -15  -6    1.68    0.52
   9 -15   6    1.56    0.45
  -9  15  -6    2.85    0.61
   9  15   6    2.24    0.52
 -11 -15  -6    7.52    0.88
  11 -15   6    7.79    0.78
  11  15   6    8.53    0.88
 -11  15  -6    7.53    0.88
 -16  16   6    2.87    0.31
  16  16  -6    2.56    0.60
  14  16  -6    1.41    0.51
 -14  16   6    0.49    0.26
  12  16  -6    5.05    0.69
 -12  16   6    5.96    0.48
  10 -16  -6    0.57    0.29
 -10  16   6    0.80    0.30
  10  16  -6    0.63    0.43
   8 -16  -6    5.69    0.51
   8  16  -6    5.53    0.67
  -8  16   6    5.39    0.52
   6 -16  -6    0.81    0.33
  -6  16   6    1.07    0.38
   6  16  -6    0.62    0.40
   4 -16  -6   10.73    0.70
  -4  16   6    9.68    0.74
   4  16  -6   10.11    0.80
   2 -16  -6    0.75    0.36
   2  16  -6    1.95    0.47
   2  16  -6    1.83    0.39
  -2  16   6    0.90    0.42
   0 -16  -6    4.26    0.56
   0  16  -6    4.25    0.55
   0  16   6    4.70    0.61
   0  16  -6    5.33    0.63
  -2 -16  -6    4.02    0.56
   2 -16   6    4.83    0.63
  -2  16  -6    3.97    0.55
   2  16   6    4.58    0.64
   2  16   6    5.17    0.57
  -4 -16  -6    1.23    0.46
   4 -16   6    2.83    0.52
  -4  16  -6    2.45    0.51
   4  16   6    1.39    0.42
  -6 -16  -6    5.54    0.71
   6 -16   6    6.74    0.73
  -6  16  -6    6.49    0.73
   6  16   6    7.80    0.75
  -8 -16  -6    3.12    0.61
   8 -16   6    2.77    0.52
   8  16   6    1.98    0.52
  -8  16  -6    2.31    0.56
  10 -16   6    6.19    0.69
 -10 -16  -6    5.48    0.77
 -10  16  -6    4.38    0.72
  10  16   6    5.04    0.71
  17  17  -6   -0.27    0.40
 -15  17   6    1.69    0.28
  15  17  -6    2.83    0.61
 -13  17   6    2.58    0.35
  13  17  -6    2.29    0.57
 -11  17   6    1.96    0.36
  11  17  -6    1.61    0.52
   9 -17  -6    7.84    0.55
  -9  17   6    6.86    0.55
   9  17  -6    7.53    0.81
   7 -17  -6    3.02    0.44
   7  17  -6    2.23    0.51
  -7  17   6    2.53    0.44
   5 -17  -6    8.61    0.62
  -5  17   6    8.91    0.69
   5  17  -6    9.64    0.85
   3 -17  -6    2.34    0.44
  -3  17   6    2.84    0.51
   3  17  -6    3.33    0.56
   3  17  -6    2.76    0.42
   1 -17  -6    0.97    0.37
  -1  17   6    0.98    0.43
   1  17  -6    1.33    0.39
   1  17  -6    2.02    0.48
  -1 -17  -6    3.04    0.52
   1 -17   6    3.76    0.56
  -1  17  -6    4.47    0.57
  -1  17  -6    5.42    0.62
   1  17   6    4.61    0.64
   3 -17   6    9.89    0.78
  -3 -17  -6    7.98    0.78
   3  17   6    9.45    0.73
  -3  17  -6    8.24    0.76
   3  17   6    9.70    0.88
   5 -17   6    0.90    0.41
  -5 -17  -6    1.58    0.47
  -5  17  -6    0.65    0.41
   5  17   6    0.08    0.36
  -7 -17  -6    1.63    0.50
   7 -17   6    1.65    0.45
   7  17   6    1.93    0.49
  -7  17  -6    1.84    0.52
  -9 -17  -6    1.27    0.52
   9 -17   6    2.92    0.53
  -9  17  -6    1.94    0.55
   9  17   6    1.97    0.53
  16  18  -6    2.74    0.65
  14  18  -6    5.59    0.77
  12  18  -6    7.01    0.81
 -12  18   6    7.18    0.49
  10  18  -6    5.21    0.70
 -10  18   6    4.60    0.47
   8 -18  -6    3.45    0.43
   8  18  -6    2.06    0.54
  -8  18   6    2.72    0.43
   6 -18  -6    7.56    0.59
   6  18  -6    7.60    0.78
  -6  18   6    6.39    0.62
   4 -18  -6    2.73    0.45
  -4  18   6    1.44    0.44
   4  18  -6    2.80    0.55
   2 -18  -6    0.61    0.35
   2  18  -6    0.95    0.35
  -2  18   6    0.50    0.41
   2  18  -6    0.93    0.39
   0 -18  -6    5.73    0.64
   0  18   6    4.02    0.61
   0  18  -6    4.62    0.60
   0  18  -6    5.05    0.57
  -2 -18  -6    9.99    0.76
   2 -18   6    8.04    0.81
   2  18   6   10.66    0.81
  -2  18  -6    8.47    0.76
   4 -18   6    1.52    0.48
  -4 -18  -6    0.83    0.44
   4  18   6    1.74    0.44
  -4  18  -6    1.52    0.48
  -6 -18  -6    0.45    0.42
   6 -18   6    0.32    0.36
  -6  18  -6   -0.21    0.38
   6  18   6    0.13    0.35
  -8 -18  -6    4.01    0.67
   8 -18   6    3.31    0.57
  -8  18  -6    2.74    0.61
   8  18   6    2.24    0.52
  10 -18   6    3.34    0.57
 -10 -18  -6    2.61    0.61
  10  18   6    2.60    0.58
 -10  18  -6    2.82    0.65
  15  19  -6    3.00    0.66
 -13  19   6   -0.10    0.24
  13  19  -6    0.14    0.44
 -11  19   6    4.29    0.44
  11  19  -6    3.60    0.66
   9  19  -6    3.09    0.61
  -9  19   6    3.55    0.45
   7 -19  -6   10.60    0.66
   7  19  -6   11.71    0.87
  -7  19   6    9.64    0.67
   5 -19  -6   11.81    0.73
   5  19  -6   10.91    0.85
  -5  19   6   11.84    0.75
   3 -19  -6    5.22    0.57
  -3  19   6    4.27    0.57
   3  19  -6    4.74    0.65
   1 -19  -6    1.21    0.40
  -1  19   6    1.13    0.45
   1  19  -6    1.67    0.47
   1  19  -6    1.98    0.44
  -1 -19  -6    3.76    0.55
   1  19   6    2.40    0.55
  -1  19  -6    2.70    0.50
  -3 -19  -6    5.40    0.65
   3 -19   6    6.45    0.73
   3  19   6    5.43    0.74
  -3  19  -6    5.90    0.68
  -5 -19  -6    2.56    0.53
   5 -19   6    2.99    0.54
  -5  19  -6    3.47    0.59
   5  19   6    2.94    0.53
  -7 -19  -6    0.01    0.42
   7 -19   6    0.17    0.36
  -7  19  -6    1.32    0.48
   7  19   6   -0.02    0.34
   9 -19   6    1.72    0.49
  -9 -19  -6    1.64    0.53
   9  19   6    0.74    0.46
  -9  19  -6    1.52    0.53
 -14  20   6    1.02    0.24
  14  20  -6    0.82    0.51
 -12  20   6    2.96    0.37
  12  20  -6    2.76    0.63
 -10  20   6    0.98    0.33
  10  20  -6    1.14    0.47
   8 -20  -6    2.55    0.40
  -8  20   6    3.14    0.47
   8  20  -6    3.69    0.65
   6 -20  -6    1.51    0.36
  -6  20   6    0.85    0.40
   6  20  -6    1.26    0.46
   4 -20  -6    6.52    0.62
  -4  20   6    6.74    0.68
   4  20  -6    8.35    0.82
   2 -20  -6    4.88    0.58
  -2  20   6    6.15    0.66
   2  20  -6    6.10    0.69
   2  20  -6    4.92    0.58
   0 -20  -6    3.87    0.56
   0  20   6    3.98    0.62
   0  20  -6    4.39    0.57
  -2 -20  -6    0.71    0.40
   2 -20   6    0.75    0.41
   2  20   6    0.47    0.46
  -2  20  -6    0.17    0.37
  -4 -20  -6    1.47    0.48
   4 -20   6    1.33    0.46
  -4  20  -6    1.20    0.47
  -6 -20  -6    3.95    0.65
   6 -20   6    3.76    0.61
  -6  20  -6    3.94    0.64
   8 -20   6    1.71    0.49
  -8 -20  -6    1.62    0.55
   8  20   6    1.56    0.51
  -8  20  -6    2.01    0.57
 -13  21   6    1.32    0.27
  13  21  -6    0.96    0.50
 -11  21   6    1.77    0.35
  11  21  -6    2.13    0.57
  -9  21   6    4.22    0.47
   9  21  -6    3.81    0.67
   7 -21  -6    4.65    0.52
   7  21  -6    4.62    0.70
  -7  21   6    4.76    0.53
   5 -21  -6    0.92    0.37
  -5  21   6    1.40    0.43
   5  21  -6    0.92    0.48
   3 -21  -6    2.28    0.46
   3  21  -6    2.65    0.55
  -3  21   6    2.58    0.50
   1 -21  -6    5.42    0.63
   1  21  -6    5.23    0.61
  -1  21   6    5.36    0.68
  -1 -21  -6    1.29    0.43
   1  21   6    0.80    0.46
  -1  21  -6    0.38    0.39
  -3 -21  -6   -0.33    0.32
   3 -21   6   -0.21    0.34
   3  21   6    0.11    0.42
  -3  21  -6    0.26    0.39
   5 -21   6    0.63    0.42
  -5 -21  -6    0.57    0.40
  -5  21  -6   -0.08    0.35
   7 -21   6   -0.35    0.31
  -7 -21  -6    0.64    0.47
  -7  21  -6   -0.65    0.40
  12  22  -6    1.29    0.52
 -12  22   6    1.09    0.26
 -10  22   6    3.42    0.43
  10  22  -6    4.57    0.74
  -8  22   6    9.15    0.66
   8  22  -6    8.07    0.89
   6 -22  -6    2.86    0.45
   6  22  -6    4.77    0.70
  -6  22   6    3.24    0.52
   4 -22  -6   10.48    0.72
   4  22  -6   11.19    0.89
  -4  22   6    9.59    0.76
   2 -22  -6    8.03    0.72
  -2  22   6    6.42    0.71
   0 -22  -6    0.88    0.41
   0  22   6    0.26    0.42
   0  22  -6    0.65    0.38
  -2 -22  -6    1.26    0.44
   2 -22   6    1.36    0.49
  -2  22  -6    0.43    0.40
   2  22   6    1.15    0.51
   4 -22   6    5.27    0.70
  -4 -22  -6    4.69    0.66
  -4  22  -6    4.89    0.67
   6 -22   6    1.14    0.47
  -6 -22  -6    0.52    0.43
  -6  22  -6    2.17    0.55
 -13  23   6    0.38    0.22
  13  23  -6    0.05    0.47
 -11  23   6    8.43    0.53
  11  23  -6    7.80    0.91
  -9  23   6   -0.12    0.31
   9  23  -6    0.07    0.44
   7 -23  -6    1.39    0.37
  -7  23   6    0.47    0.39
   7  23  -6    0.55    0.48
   5 -23  -6    0.70    0.36
   5  23  -6    0.91    0.46
  -5  23   6    0.92    0.41
   3 -23  -6    4.11    0.55
  -3  23   6    4.02    0.60
   1 -23  -6    8.08    0.74
  -1  23   6    7.11    0.75
  -1 -23  -6    1.03    0.43
  -1  23  -6    0.92    0.44
   1  23   6    1.09    0.50
   3 -23   6    3.10    0.59
  -3 -23  -6    3.53    0.61
   3  23   6    3.30    0.65
  -3  23  -6    2.54    0.53
  -5 -23  -6    0.71    0.44
   5 -23   6    2.05    0.52
  -5  23  -6    1.81    0.53
  12  24  -6    3.70    0.72
 -10  24   6    0.93    0.32
  10  24  -6    0.26    0.49
  -8  24   6    1.68    0.40
   8  24  -6    0.88    0.49
   6 -24  -6    1.31    0.40
   6  24  -6    0.63    0.48
  -6  24   6    0.97    0.41
   4 -24  -6    2.57    0.47
  -4  24   6    2.05    0.51
   2 -24  -6    0.70    0.37
  -2  24   6    0.78    0.45
   0 -24  -6    4.54    0.63
   0  24  -6    5.34    0.64
   0  24   6    5.44    0.71
   2 -24   6    1.14    0.47
  -2 -24  -6    1.71    0.48
   2  24   6    2.13    0.57
  -2  24  -6    1.63    0.48
   4 -24   6    2.41    0.55
  -4 -24  -6    0.80    0.44
  -4  24  -6    1.58    0.50
   9  25  -6    0.01    0.47
  -9  25   6    0.27    0.31
   7  25  -6    1.11    0.52
  -7  25   6    1.54    0.43
   5 -25  -6    6.89    0.68
  -5  25   6    7.52    0.72
   3 -25  -6    1.32    0.43
  -3  25   6    2.79    0.55
   1 -25  -6    1.30    0.46
  -1  25   6    2.57    0.56
  -1 -25  -6    4.52    0.66
   1  25   6    5.36    0.74
  -1  25  -6    5.49    0.66
  -3 -25  -6    3.41    0.62
   3 -25   6    3.88    0.67
   3  25   6    4.96    0.76
  -3  25  -6    3.18    0.59
   8  26  -6    0.21    0.47
  -8  26   6   -0.47    0.28
  -6  26   6    5.60    0.63
   4 -26  -6    2.75    0.49
  -4  26   6    1.57    0.47
   2 -26  -6    2.27    0.50
  -2  26   6    2.90    0.58
   0 -26  -6    3.22    0.58
   0  26   6    3.19    0.62
  -2 -26  -6    8.26    0.85
  -2  26  -6    8.10    0.82
   2  26   6    7.45    0.86
   5 -27  -6    1.94    0.48
  -5  27   6    2.20    0.49
   3 -27  -6    1.69    0.47
  -3  27   6    1.94    0.53
   1 -27  -6   11.59    0.87
  -1  27   6    8.91    0.90
  -1 -27  -6    2.59    0.54
   1  27   6    3.42    0.66
  18   0  -7   -0.10    0.33
 -18   0   7    0.62    0.45
  16   0  -7   -0.12    0.33
 -16   0   7   -0.35    0.24
 -16   0   7   -0.44    0.36
  14   0  -7    0.01    0.33
 -14   0   7    0.22    0.27
 -14   0   7    0.23    0.39
 -12   0   7    0.44    0.40
 -12   0   7    0.37    0.30
  12   0  -7   -0.56    0.26
 -10   0   7   -0.31    0.27
 -10   0   7   -0.26    0.35
  10   0  -7   -0.34    0.27
  -8   0   7    0.32    0.38
  -8   0   7    0.10    0.31
  -8   0   7   -0.32    0.29
   8   0  -7    0.17    0.28
  -6   0   7    0.00    0.31
  -6   0   7   -0.19    0.30
   6   0  -7    0.22    0.33
  -6   0   7    0.52    0.37
  -4   0   7    0.08    0.35
  -4   0   7    0.50    0.32
   4   0  -7    0.04    0.28
  -4   0   7    0.24    0.33
  -2   0   7    0.24    0.32
  -2   0   7    0.02    0.29
  -2   0   7    0.18    0.38
   2   0  -7   -0.36    0.27
   0   0   7   -0.11    0.31
   0   0  -7    0.07    0.34
   0   0   7    0.15    0.33
  -2   0  -7    0.69    0.39
   2   0   7   -0.26    0.33
   2   0   7    0.27    0.33
   4   0   7   -0.18    0.29
  -4   0  -7   -0.49    0.33
  -6   0  -7   -0.06    0.36
   6   0   7    0.03    0.32
   8   0   7   -0.28    0.31
  -8   0  -7    0.14    0.41
  10   0   7   -0.22    0.32
  12   0   7   -0.05    0.33
  19  -1  -7   -0.20    0.34
 -19  -1   7    0.69    0.47
  19   1  -7    0.08    0.38
 -19   1   7   -0.04    0.43
 -17  -1   7    4.81    0.66
  17  -1  -7    4.08    0.58
 -17   1   7    4.98    0.65
  17   1  -7    4.92    0.61
 -15  -1   7    7.97    0.77
  15  -1  -7    8.88    0.70
 -15  -1   7    9.38    0.54
 -15   1   7    7.41    0.73
 -15   1   7    8.54    0.50
  15   1  -7    9.17    0.71
 -13  -1   7    4.23    0.42
  13  -1  -7    3.22    0.49
 -13  -1   7    3.81    0.56
 -13   1   7    2.81    0.49
  13   1  -7    3.45    0.53
 -13   1   7    4.08    0.41
 -11  -1   7    9.59    0.74
  11  -1  -7    9.97    0.70
 -11  -1   7   10.09    0.60
 -11   1   7   10.08    0.72
  11   1  -7   10.88    0.73
 -11   1   7    9.95    0.60
  -9  -1   7    5.04    0.60
  -9  -1   7    4.97    0.46
   9  -1  -7    4.69    0.56
  -9   1   7    5.36    0.47
  -9   1   7    4.55    0.57
   9   1  -7    4.38    0.56
  -7  -1   7   21.76    0.91
   7  -1  -7   20.77    0.96
  -7  -1   7   19.00    0.97
  -7  -1   7   20.80    1.01
  -7   1   7   20.60    0.97
  -7   1   7   20.61    1.01
  -7   1   7   22.25    0.90
   7   1  -7   20.26    0.99
   5  -1  -7    6.55    0.62
  -5  -1   7    5.34    0.50
  -5  -1   7    5.21    0.59
  -5  -1   7    5.14    0.61
  -5   1   7    5.54    0.52
  -5   1   7    6.75    0.64
  -5   1   7    6.63    0.65
   5   1  -7    5.78    0.62
  -3  -1   7   16.13    0.89
  -3  -1   7   15.15    0.89
  -3  -1   7   16.82    0.82
   3  -1  -7   16.85    0.90
  -3   1   7   15.95    0.80
  -3   1   7   15.34    0.90
  -3   1   7   16.94    0.93
   3   1  -7   18.20    0.93
  -1  -1   7    0.36    0.31
   1  -1  -7   -0.01    0.33
  -1  -1   7   -0.12    0.31
  -1   1   7   -0.46    0.30
  -1   1   7   -0.78    0.34
  -1   1   7    0.09    0.32
   1   1  -7   -0.06    0.34
   1  -1   7    3.62    0.53
   1  -1   7    3.54    0.48
  -1  -1  -7    3.90    0.55
   1   1   7    3.72    0.54
  -1   1  -7    3.28    0.53
   1   1   7    3.56    0.50
  -3  -1  -7    9.05    0.71
   3  -1   7    9.46    0.71
   3  -1   7    9.58    0.82
   3   1   7    9.52    0.74
  -3   1  -7   10.38    0.75
   5  -1   7    4.81    0.62
  -5  -1  -7    4.46    0.62
  -5   1  -7    3.75    0.56
   5   1   7    3.95    0.57
  -7  -1  -7    3.15    0.59
   7  -1   7    3.51    0.57
  -7   1  -7    3.96    0.62
   7   1   7    4.07    0.57
  -9  -1  -7    0.47    0.46
   9  -1   7    0.26    0.36
   9   1   7    0.80    0.40
  11  -1   7   19.18    1.09
  11   1   7   18.16    1.08
 -18  -2   7    0.20    0.44
  18  -2  -7    0.38    0.34
 -18   2   7    0.28    0.40
  18   2  -7   -0.30    0.34
 -16  -2   7    2.25    0.37
  16  -2  -7    1.31    0.40
 -16  -2   7    1.56    0.49
  16   2  -7    1.82    0.46
 -16   2   7    1.99    0.49
 -14  -2   7    1.98    0.38
 -14  -2   7    2.25    0.51
  14  -2  -7    2.34    0.45
 -14   2   7    3.03    0.35
 -14   2   7    2.68    0.51
  14   2  -7    2.90    0.51
 -12  -2   7   -0.01    0.31
  12  -2  -7    0.98    0.36
 -12  -2   7    0.82    0.40
  12   2  -7    0.63    0.36
 -12   2   7    0.57    0.40
 -12   2   7    0.51    0.30
 -10  -2   7    1.70    0.44
  10  -2  -7    1.86    0.41
 -10  -2   7    1.79    0.36
  10   2  -7    1.72    0.42
 -10   2   7    1.37    0.32
 -10   2   7    2.17    0.45
  -8  -2   7    0.82    0.40
   8  -2  -7    0.77    0.35
  -8  -2   7    0.89    0.33
  -8  -2   7   -0.03    0.38
  -8   2   7    0.76    0.39
   8   2  -7    0.90    0.35
  -8   2   7    0.71    0.32
  -6  -2   7   10.38    0.77
  -6  -2   7   10.65    0.76
   6  -2  -7    9.93    0.70
  -6  -2   7   10.10    0.65
  -6   2   7    7.51    0.69
  -6   2   7    8.79    0.64
   6   2  -7   10.02    0.73
  -6   2   7    9.72    0.69
  -4  -2   7    3.62    0.52
  -4  -2   7    4.67    0.57
   4  -2  -7    4.76    0.56
  -4  -2   7    4.06    0.46
  -4   2   7    4.88    0.56
  -4   2   7    4.77    0.48
   4   2  -7    4.65    0.55
  -4   2   7    4.21    0.57
  -2  -2   7    9.36    0.67
  -2  -2   7   10.04    0.75
  -2  -2   7   10.32    0.78
   2  -2  -7   11.10    0.73
  -2   2   7    9.42    0.76
  -2   2   7   11.47    0.68
  -2   2   7   10.70    0.75
   2   2  -7   10.34    0.71
   0  -2  -7    1.57    0.42
   0  -2   7    2.00    0.46
   0  -2   7    1.13    0.38
   0   2  -7    2.17    0.44
   0   2   7    2.29    0.47
  -2  -2  -7    6.93    0.70
   2  -2   7    9.25    0.64
   2  -2   7    8.54    0.76
  -2   2  -7    7.15    0.71
   2   2   7    8.97    0.71
   4  -2   7    3.78    0.55
   4  -2   7    4.24    0.54
  -4  -2  -7    2.82    0.52
  -4   2  -7    3.67    0.56
   4   2   7    3.50    0.54
   6  -2   7    3.44    0.53
  -6  -2  -7    3.15    0.55
   6   2   7    2.40    0.51
  -6   2  -7    2.71    0.52
   8  -2   7    3.03    0.55
  -8  -2  -7    4.05    0.63
   8   2   7    2.57    0.51
  -8   2  -7    4.21    0.64
  10  -2   7    0.73    0.40
  10   2   7    1.75    0.45
 -19  -3   7    0.52    0.49
  19   3  -7    0.91    0.43
 -19   3   7    0.59    0.43
 -17  -3   7    0.43    0.32
  17  -3  -7    1.00    0.37
 -17  -3   7    1.27    0.50
 -17   3   7    1.28    0.46
  17   3  -7    1.54    0.47
  15  -3  -7    0.10    0.30
 -15  -3   7   -0.32    0.39
 -15   3   7   -0.43    0.34
  15   3  -7    0.18    0.35
 -13  -3   7    0.73    0.43
  13  -3  -7    1.13    0.37
 -13   3   7    1.40    0.41
  13   3  -7    0.64    0.37
 -13   3   7    0.57    0.28
  11  -3  -7    2.27    0.43
 -11  -3   7    1.64    0.47
  11   3  -7    2.64    0.49
 -11   3   7    1.80    0.34
 -11   3   7    2.45    0.46
   9  -3  -7   13.79    0.78
  -9  -3   7   13.57    0.86
  -9  -3   7   14.91    0.87
  -9   3   7   13.89    0.82
   9   3  -7   13.70    0.83
  -9   3   7   13.61    0.67
  -7  -3   7    5.35    0.61
  -7  -3   7    5.24    0.50
  -7  -3   7    4.71    0.60
   7  -3  -7    5.37    0.58
  -7   3   7    5.58    0.49
   7   3  -7    5.48    0.59
  -7   3   7    5.39    0.59
  -5  -3   7    4.57    0.59
  -5  -3   7    5.04    0.48
   5  -3  -7    3.94    0.50
  -5  -3   7    4.07    0.56
  -5   3   7    4.09    0.45
  -5   3   7    3.66    0.54
   5   3  -7    3.45    0.52
  -5   3   7    4.03    0.51
  -3  -3   7    2.13    0.47
   3  -3  -7    3.07    0.48
  -3  -3   7    2.56    0.50
  -3  -3   7    2.58    0.41
  -3   3   7    2.19    0.41
   3   3  -7    2.91    0.48
  -3   3   7    2.63    0.45
  -3   3   7    2.16    0.48
  -1  -3   7   10.56    0.76
   1  -3  -7    9.83    0.73
  -1  -3   7    9.94    0.68
  -1   3   7    9.49    0.72
   1   3  -7    9.38    0.74
  -1   3   7    8.75    0.76
   1  -3   7    5.11    0.61
  -1  -3  -7    4.61    0.60
   1  -3   7    5.50    0.56
  -1   3  -7    4.83    0.61
   1   3   7    4.53    0.56
   3  -3   7    2.71    0.49
   3  -3   7    3.09    0.48
  -3  -3  -7    2.25    0.51
  -3   3  -7    3.15    0.54
   3   3   7    2.58    0.47
   5  -3   7    2.03    0.46
  -5  -3  -7    2.65    0.50
   5  -3   7    2.99    0.52
  -5   3  -7    1.73    0.45
   5   3   7    1.77    0.45
  -7  -3  -7    3.25    0.60
   7  -3   7    3.14    0.53
   7   3   7    2.43    0.49
  -7   3  -7    2.67    0.56
  -9  -3  -7    1.59    0.52
   9  -3   7    1.35    0.44
   9   3   7    1.37    0.45
  11  -3   7    0.44    0.36
  11   3   7    0.89    0.46
 -18  -4   7    8.63    0.86
 -18   4   7    9.21    0.75
  18   4  -7    8.65    0.83
 -16  -4   7    0.34    0.45
  16  -4  -7    0.07    0.32
  16   4  -7    0.43    0.39
 -16   4   7    0.27    0.38
 -14  -4   7    5.57    0.68
  14  -4  -7    6.12    0.59
 -14   4   7    5.09    0.57
  14   4  -7    6.31    0.68
 -12  -4   7    1.59    0.48
  12  -4  -7    1.09    0.35
 -12   4   7    1.01    0.38
  12   4  -7    2.19    0.47
 -10  -4   7    3.55    0.55
 -10  -4   7    2.66    0.52
  10  -4  -7    3.29    0.46
 -10   4   7    3.49    0.51
 -10   4   7    3.14    0.37
  10   4  -7    3.72    0.53
  -8  -4   7    8.41    0.75
   8  -4  -7    8.18    0.66
  -8  -4   7    9.59    0.80
   8   4  -7    9.81    0.70
  -8   4   7    9.01    0.69
  -8   4   7    8.54    0.57
   6  -4  -7   17.11    0.86
  -6  -4   7   16.29    0.95
  -6  -4   7   16.54    0.94
  -6  -4   7   17.28    0.84
  -6   4   7   16.40    0.90
   6   4  -7   16.24    0.91
  -6   4   7   17.02    0.88
  -6   4   7   16.35    0.79
  -4  -4   7    6.02    0.56
   4  -4  -7    5.46    0.59
  -4  -4   7    7.28    0.71
  -4  -4   7    6.46    0.67
   4   4  -7    6.00    0.63
  -4   4   7    6.86    0.62
  -4   4   7    6.21    0.64
   2  -4  -7    3.34    0.48
  -2  -4   7    2.70    0.42
  -2  -4   7    3.30    0.52
  -2   4   7    3.43    0.51
   2   4  -7    2.84    0.47
  -2   4   7    3.29    0.56
   0  -4   7   15.11    0.80
   0  -4   7   15.21    0.91
   0  -4  -7   13.35    0.86
   0   4   7   13.78    0.85
   0   4   7   14.66    0.86
   0   4  -7   14.88    0.85
   2  -4   7    4.31    0.59
   2  -4   7    3.08    0.47
  -2  -4  -7    2.85    0.52
  -2   4  -7    3.55    0.55
   2   4   7    3.40    0.52
   4  -4   7    9.51    0.67
   4  -4   7    9.33    0.75
  -4  -4  -7    9.33    0.75
   4   4   7   11.74    0.80
  -4   4  -7   11.41    0.82
   6  -4   7    0.66    0.38
  -6  -4  -7    1.59    0.49
   6   4   7    1.04    0.41
  -6   4  -7    1.75    0.50
  -8  -4  -7    9.18    0.88
   8  -4   7   10.97    0.81
   8   4   7   11.32    0.83
  10  -4   7    0.37    0.36
 -10  -4  -7    0.26    0.44
  10   4   7    0.13    0.33
 -19  -5   7    1.27    0.57
  19   5  -7    0.75    0.46
 -17  -5   7    0.95    0.51
  17  -5  -7    0.70    0.36
 -17   5   7    1.23    0.45
  17   5  -7    1.69    0.50
 -15  -5   7    2.59    0.55
  15  -5  -7    3.10    0.45
 -15   5   7    3.04    0.53
  15   5  -7    3.35    0.56
 -13  -5   7    1.45    0.49
  13  -5  -7    1.39    0.38
  13   5  -7    2.00    0.46
 -13   5   7    1.25    0.41
 -11  -5   7    3.38    0.55
  11  -5  -7    2.88    0.44
  11   5  -7    2.12    0.48
 -11   5   7    2.33    0.45
   9  -5  -7    4.51    0.53
  -9  -5   7    6.15    0.66
  -9  -5   7    4.48    0.61
  -9   5   7    4.88    0.56
   9   5  -7    4.50    0.56
   7  -5  -7    2.65    0.43
  -7  -5   7    2.27    0.50
  -7  -5   7    2.72    0.52
   7   5  -7    2.31    0.48
  -7   5   7    2.86    0.50
  -5  -5   7    6.13    0.66
   5  -5  -7    4.73    0.55
  -5  -5   7    4.78    0.51
  -5  -5   7    4.84    0.62
   5   5  -7    5.23    0.60
  -5   5   7    5.03    0.53
  -5   5   7    3.60    0.54
  -3  -5   7    3.82    0.54
   3  -5  -7    3.00    0.49
  -3  -5   7    3.92    0.46
  -3   5   7    3.57    0.52
   3   5  -7    3.82    0.52
  -3   5   7    3.89    0.50
  -1  -5   7   12.76    0.83
  -1  -5   7   13.68    0.72
   1  -5  -7   12.81    0.82
   1   5  -7   13.47    0.84
  -1   5   7   13.10    0.77
  -1   5   7   13.01    0.85
   1  -5   7   16.50    0.93
  -1  -5  -7   16.60    0.94
   1  -5   7   13.79    0.82
  -1   5  -7   16.41    0.89
   1   5   7   16.59    0.87
   3  -5   7    6.86    0.63
  -3  -5  -7    6.41    0.70
   3  -5   7    5.87    0.67
   3   5   7    6.77    0.69
  -3   5  -7    5.89    0.66
   5  -5   7    0.87    0.37
  -5  -5  -7   -0.05    0.39
   5  -5   7    0.53    0.37
   5   5   7   -0.23    0.32
  -5   5  -7    0.01    0.39
   7  -5   7    0.40    0.33
  -7  -5  -7    0.89    0.46
  -7   5  -7    1.24    0.46
   7   5   7    0.03    0.35
  -9  -5  -7    1.70    0.54
   9  -5   7    1.47    0.44
   9   5   7    0.94    0.43
  11  -5   7    1.10    0.41
  11   5   7    1.16    0.46
 -18  -6   7   -0.59    0.43
  18   6  -7    0.27    0.43
 -18   6   7    0.68    0.40
 -16  -6   7    1.86    0.55
  16  -6  -7    2.30    0.44
  16   6  -7    1.47    0.47
 -16   6   7    2.44    0.49
  14  -6  -7    0.01    0.30
 -14  -6   7    0.58    0.42
  14   6  -7    0.38    0.38
 -14   6   7   -0.09    0.34
  12  -6  -7    7.64    0.59
 -12   6   7    7.95    0.65
  12   6  -7    6.39    0.69
 -10  -6   7    2.70    0.53
  10  -6  -7    3.13    0.45
  10   6  -7    1.99    0.46
 -10   6   7    2.91    0.46
  -8  -6   7    2.49    0.49
   8  -6  -7    2.29    0.43
  -8  -6   7    2.36    0.51
  -8   6   7    1.65    0.45
   8   6  -7    2.95    0.51
   6  -6  -7   14.15    0.81
  -6  -6   7   15.81    0.93
  -6  -6   7   16.98    0.96
   6   6  -7   16.13    0.89
  -6   6   7   14.68    0.85
  -4  -6   7    8.94    0.66
   4  -6  -7    8.03    0.65
  -4  -6   7    7.04    0.71
  -4   6   7    7.24    0.68
  -4   6   7    8.38    0.63
   4   6  -7    7.30    0.72
   2  -6  -7    8.03    0.71
  -2  -6   7    7.35    0.57
  -2  -6   7    7.06    0.73
  -2   6   7    8.03    0.70
  -2   6   7    8.52    0.66
   2   6  -7    7.85    0.72
   0  -6   7   -0.34    0.30
   0  -6  -7    0.31    0.32
   0  -6   7   -0.56    0.32
   0   6   7    0.41    0.34
   0   6  -7    0.25    0.35
   0   6   7   -0.05    0.35
  -2  -6  -7   14.44    0.91
   2  -6   7   15.54    0.83
   2  -6   7   14.86    0.92
   2   6   7   14.76    0.88
  -2   6  -7   13.85    0.89
   4  -6   7    7.96    0.67
  -4  -6  -7    7.28    0.78
   4  -6   7    8.21    0.78
  -4   6  -7    7.71    0.75
   4   6   7    8.40    0.75
   6  -6   7    1.72    0.43
  -6  -6  -7    2.41    0.51
   6  -6   7    2.06    0.48
   6   6   7    1.70    0.43
  -6   6  -7    2.36    0.52
  -8  -6  -7    1.62    0.52
   8  -6   7    1.56    0.43
   8   6   7    1.28    0.42
  10  -6   7    4.57    0.64
 -10  -6  -7    3.56    0.66
  10   6   7    4.87    0.66
 -17  -7   7    3.46    0.64
 -17   7   7    3.62    0.51
  17   7  -7    3.88    0.63
 -15  -7   7    2.98    0.60
  15  -7  -7    1.30    0.37
  15   7  -7    2.29    0.53
 -15   7   7    1.95    0.43
  13  -7  -7    1.57    0.38
 -13  -7   7    1.42    0.49
  13   7  -7    1.82    0.46
 -13   7   7    1.45    0.40
 -11  -7   7    1.03    0.46
  11  -7  -7    1.25    0.35
  11   7  -7    1.78    0.45
 -11   7   7    1.59    0.41
  -9  -7   7    1.50    0.47
   9  -7  -7    0.34    0.32
  -9   7   7    0.82    0.37
   9   7  -7    1.30    0.43
  -7  -7   7    4.58    0.62
  -7  -7   7    3.46    0.54
   7  -7  -7    3.25    0.46
   7   7  -7    3.56    0.55
  -7   7   7    4.31    0.54
   5  -7  -7    6.67    0.62
  -5  -7   7    6.53    0.71
  -5   7   7    7.65    0.68
   5   7  -7    6.04    0.67
   3  -7  -7   16.04    0.88
  -3  -7   7   18.28    0.89
  -3  -7   7   15.63    0.95
   3   7  -7   16.17    0.90
  -3   7   7   16.82    0.85
  -3   7   7   14.86    0.89
  -1  -7   7    1.26    0.38
   1  -7  -7    1.24    0.41
  -1  -7   7    1.42    0.42
  -1   7   7    0.46    0.42
   1   7  -7    1.09    0.40
  -1   7   7    0.99    0.36
  -1  -7  -7    1.26    0.40
   1  -7   7    0.15    0.30
   1  -7   7    0.59    0.36
   1   7   7    1.18    0.45
   1   7   7    0.45    0.35
  -1   7  -7    0.82    0.40
  -3  -7  -7    6.27    0.72
   3  -7   7    7.53    0.75
   3  -7   7    6.86    0.63
  -3   7  -7    6.55    0.67
   3   7   7    7.42    0.68
   5  -7   7   10.53    0.77
   5  -7   7   11.44    0.77
  -5  -7  -7   10.85    0.85
  -5   7  -7   13.00    0.87
   5   7   7   10.33    0.77
   7  -7   7    0.84    0.40
  -7  -7  -7    1.12    0.47
   7   7   7    0.46    0.40
  -7   7  -7    1.21    0.56
   9  -7   7   -0.35    0.29
  -9  -7  -7   -0.06    0.44
   9   7   7    0.51    0.40
  -9   7  -7    0.72    0.52
  11  -7   7    8.61    0.84
 -11  -7  -7    8.71    0.91
  11   7   7    8.65    0.87
 -11   7  -7    7.21    0.93
 -18  -8   7    3.87    0.72
  18   8  -7    4.00    0.66
 -18   8   7    5.17    0.56
 -16  -8   7    2.31    0.57
  16   8  -7    0.75    0.44
 -16   8   7    1.21    0.40
 -14  -8   7    0.04    0.43
  14  -8  -7    0.77    0.32
 -14   8   7    1.50    0.39
  14   8  -7    0.74    0.42
  12  -8  -7    0.32    0.29
 -12  -8   7    0.98    0.48
  12   8  -7    0.77    0.40
 -12   8   7    0.08    0.33
  10  -8  -7    5.24    0.53
 -10  -8   7    4.70    0.65
 -10   8   7    3.81    0.52
  10   8  -7    5.82    0.66
   8  -8  -7    3.21    0.46
  -8  -8   7    3.95    0.61
  -8   8   7    4.00    0.53
   8   8  -7    3.34    0.55
  -6  -8   7    3.33    0.55
   6  -8  -7    4.12    0.51
   6   8  -7    3.41    0.55
  -6   8   7    2.37    0.47
  -4  -8   7    4.58    0.64
   4  -8  -7    3.45    0.51
  -4   8   7    4.07    0.56
   4   8  -7    4.24    0.58
  -2  -8   7    1.60    0.45
   2  -8  -7    2.12    0.45
  -2  -8   7    1.89    0.42
  -2   8   7    2.36    0.50
  -2   8   7    1.23    0.38
   2   8  -7    1.86    0.45
   0  -8   7    7.42    0.75
   0  -8   7    6.88    0.56
   0  -8  -7    7.63    0.71
   0   8  -7    6.60    0.66
   0   8   7    6.41    0.71
   0   8   7    7.66    0.67
  -2  -8  -7    0.57    0.40
   2  -8   7    1.18    0.42
   2  -8   7    0.75    0.36
   2   8   7    0.22    0.32
  -2   8  -7    0.89    0.39
   4  -8   7   13.68    0.91
  -4  -8  -7   13.27    0.88
   4  -8   7   13.59    0.80
  -4   8  -7   14.82    0.91
   4   8   7   12.57    0.84
   6  -8   7    2.35    0.50
   6  -8   7    2.27    0.46
  -6  -8  -7    3.25    0.57
   6   8   7    1.95    0.48
  -8  -8  -7    2.70    0.56
   8  -8   7    2.16    0.49
   8   8   7    1.94    0.49
  -8   8  -7    3.26    0.68
 -10  -8  -7    2.10    0.58
  10  -8   7    2.97    0.55
  10   8   7    1.25    0.46
 -10   8  -7    2.03    0.66
 -10   8  -7    1.27    0.57
 -17  -9   7    4.10    0.73
  17   9  -7    5.19    0.72
 -17   9   7    4.50    0.51
 -15  -9   7    2.78    0.61
 -15   9   7    2.98    0.47
  15   9  -7    3.01    0.60
  13  -9  -7    0.89    0.33
 -13  -9   7    1.22    0.49
  13   9  -7    1.80    0.46
 -13   9   7    1.14    0.39
  11  -9  -7    0.77    0.31
 -11  -9   7    0.80    0.45
  11   9  -7    0.86    0.40
 -11   9   7    1.23    0.38
  -9  -9   7    5.79    0.69
   9  -9  -7    6.88    0.59
   9   9  -7    5.77    0.67
  -9   9   7    6.19    0.60
   7  -9  -7   11.00    0.70
   7   9  -7   12.82    0.84
  -7   9   7   11.09    0.74
   5  -9  -7    4.34    0.53
  -5  -9   7    4.29    0.59
   5   9  -7    3.68    0.55
  -5   9   7    4.36    0.55
  -3  -9   7    2.25    0.51
   3  -9  -7    2.41    0.46
   3   9  -7    2.34    0.49
  -3   9   7    1.59    0.45
  -1  -9   7   13.41    0.90
  -1  -9   7   14.37    0.81
   1  -9  -7   14.76    0.87
  -1   9   7   13.33    0.79
  -1   9   7   12.60    0.87
   1   9  -7   14.11    0.88
   1  -9   7   11.64    0.81
   1  -9   7   10.32    0.70
  -1  -9  -7   10.45    0.79
  -1   9  -7    9.87    0.73
   1   9   7   10.09    0.86
   1   9   7   10.55    0.73
   3  -9   7    8.61    0.67
   3  -9   7    9.37    0.84
  -3  -9  -7    8.54    0.80
  -3   9  -7    8.89    0.78
   3   9   7    8.15    0.74
  -5  -9  -7    1.06    0.43
   5  -9   7    0.97    0.39
   5  -9   7    0.96    0.39
  -5   9  -7    1.22    0.45
   5   9   7    0.85    0.37
   7  -9   7    3.72    0.57
  -7  -9  -7    4.73    0.67
   7   9   7    3.18    0.54
   9  -9   7    2.75    0.53
  -9  -9  -7    4.25    0.70
   9   9   7    3.74    0.60
  -9   9  -7    2.24    0.57
 -11  -9  -7    1.95    0.60
  11  -9   7    2.10    0.48
 -11   9  -7    2.83    0.66
 -11   9  -7    1.27    0.61
  11   9   7    2.77    0.57
 -18 -10   7    0.52    0.52
 -18  10   7    1.56    0.38
  18  10  -7    1.05    0.48
 -16 -10   7    0.06    0.46
 -16  10   7   -0.11    0.31
  16  10  -7    0.30    0.41
 -14 -10   7    3.52    0.64
 -14  10   7    3.30    0.47
  14  10  -7    3.03    0.58
  12 -10  -7    0.46    0.30
 -12 -10   7    0.19    0.44
 -12  10   7   -0.02    0.32
  12  10  -7    0.74    0.40
  10 -10  -7    5.15    0.52
  10  10  -7    5.74    0.70
 -10  10   7    6.56    0.60
   8 -10  -7    2.49    0.42
   8  10  -7    2.54    0.51
  -8  10   7    2.73    0.47
   6 -10  -7    2.87    0.46
  -6  10   7    2.26    0.46
   6  10  -7    3.62    0.56
   4 -10  -7    3.06    0.50
  -4 -10   7    4.17    0.62
  -4  10   7    4.60    0.57
   4  10  -7    3.61    0.56
   2 -10  -7    7.06    0.68
  -2 -10   7    5.99    0.70
  -2  10   7    6.80    0.61
   2  10  -7    6.63    0.67
  -2  10   7    7.45    0.71
   0 -10  -7    3.50    0.53
   0 -10   7    4.29    0.54
   0 -10   7    3.84    0.58
   0  10  -7    3.40    0.53
   0  10   7    2.79    0.56
   0  10   7    3.80    0.51
   2 -10   7    1.28    0.38
   2 -10   7    0.36    0.39
  -2 -10  -7    0.76    0.43
   2  10   7    1.25    0.40
  -2  10  -7    1.00    0.39
   4 -10   7    5.43    0.67
   4 -10   7    5.28    0.55
  -4 -10  -7    6.48    0.74
   4  10   7    5.03    0.60
  -4  10  -7    6.09    0.68
   6 -10   7    0.97    0.39
  -6 -10  -7    1.31    0.46
   6  10   7    0.98    0.42
  -8 -10  -7    3.91    0.66
   8 -10   7    2.88    0.56
   8  10   7    4.06    0.64
  -8  10  -7    3.62    0.65
 -10 -10  -7   -0.33    0.43
  10 -10   7    0.19    0.37
  10  10   7   -0.34    0.35
 -10  10  -7   -0.14    0.43
 -17 -11   7    0.40    0.52
 -17  11   7    1.18    0.36
  17  11  -7    1.62    0.51
 -15 -11   7    1.07    0.54
 -15  11   7    0.20    0.32
  15  11  -7    0.91    0.46
  13 -11  -7    0.52    0.29
  13  11  -7    1.26    0.48
 -13  11   7    1.19    0.37
  11 -11  -7    2.06    0.38
  11  11  -7    2.62    0.53
 -11  11   7    2.33    0.43
   9 -11  -7    2.34    0.41
   9  11  -7    2.83    0.53
  -9  11   7    2.07    0.45
   7 -11  -7    3.88    0.50
  -7  11   7    3.80    0.51
   7  11  -7    4.74    0.61
   5 -11  -7    3.93    0.52
   5  11  -7    3.10    0.57
  -5  11   7    3.21    0.50
  -3 -11   7    7.64    0.76
   3 -11  -7    7.18    0.68
   3  11  -7    6.61    0.69
  -3  11   7    7.91    0.71
   1 -11  -7    2.83    0.50
  -1 -11   7    1.91    0.49
  -1  11   7    2.55    0.44
  -1  11   7    2.46    0.54
   1  11  -7    2.78    0.52
   1 -11   7    3.86    0.51
  -1 -11  -7    2.59    0.52
   1 -11   7    2.71    0.55
  -1  11  -7    3.66    0.57
   1  11   7    2.57    0.52
   1  11   7    2.47    0.47
   3 -11   7    2.52    0.53
  -3 -11  -7    2.78    0.55
   3 -11   7    2.86    0.46
   3  11   7    3.20    0.53
  -3  11  -7    3.19    0.55
   5 -11   7    5.91    0.70
  -5 -11  -7    6.64    0.77
   5  11   7    6.14    0.67
  -7 -11  -7    0.27    0.43
   7 -11   7    0.78    0.38
   7  11   7    0.21    0.35
  -7  11  -7   -0.07    0.43
   9 -11   7   -0.56    0.29
  -9 -11  -7    0.10    0.46
  -9  11  -7   -0.08    0.40
   9  11   7    0.10    0.38
  16  12  -7    2.72    0.61
 -16  12   7    3.44    0.43
 -14  12   7    1.09    0.35
  14  12  -7    1.22    0.47
  12 -12  -7   12.30    0.69
  12  12  -7   13.77    0.95
  10 -12  -7   -0.22    0.27
  10  12  -7   -0.54    0.30
 -10  12   7   -0.23    0.32
   8 -12  -7    2.03    0.40
  -8  12   7    1.30    0.41
   8  12  -7    2.27    0.48
   6 -12  -7    7.62    0.61
  -6  12   7    5.91    0.63
   6  12  -7    7.92    0.78
  -4 -12   7    1.44    0.46
   4 -12  -7    1.31    0.39
   4  12  -7    1.00    0.45
  -4  12   7    1.78    0.45
  -2 -12   7    2.41    0.51
   2 -12  -7    3.59    0.54
   2  12  -7    3.86    0.58
  -2  12   7    3.56    0.54
   0 -12   7   -0.19    0.36
   0 -12  -7   -0.16    0.34
   0  12   7   -0.35    0.35
   0  12   7   -0.11    0.29
   0  12  -7    0.47    0.40
   2 -12   7   27.29    1.30
   2 -12   7   26.33    1.13
  -2 -12  -7   26.32    1.25
   2  12   7   26.67    1.18
  -2  12  -7   26.65    1.22
   4 -12   7    3.98    0.60
  -4 -12  -7    4.02    0.63
   4 -12   7    4.05    0.52
   4  12   7    3.34    0.55
   6 -12   7    1.42    0.44
  -6 -12  -7    0.78    0.43
   6  12   7    1.76    0.48
  -6  12  -7    1.55    0.53
   8 -12   7    2.62    0.54
  -8 -12  -7    3.29    0.64
   8  12   7    3.57    0.61
  -8  12  -7    2.47    0.61
 -10 -12  -7    3.32    0.70
  10 -12   7    2.95    0.57
 -10  12  -7    2.82    0.64
  10  12   7    1.86    0.52
 -17  13   7    2.71    0.40
  17  13  -7    2.20    0.57
 -15  13   7    1.28    0.35
  15  13  -7    0.81    0.46
  13  13  -7    2.17    0.57
 -13  13   7    3.00    0.44
  11 -13  -7    5.03    0.51
 -11  13   7    4.43    0.50
  11  13  -7    2.46    0.56
   9 -13  -7    1.17    0.35
   9  13  -7    1.05    0.45
  -9  13   7    0.71    0.38
   7 -13  -7    0.78    0.34
  -7  13   7    0.61    0.35
   7  13  -7    0.32    0.42
   5 -13  -7    2.77    0.46
   5  13  -7    2.40    0.51
  -5  13   7    2.53    0.50
   3 -13  -7    1.34    0.41
  -3 -13   7    1.28    0.44
  -3  13   7    0.96    0.44
   3  13  -7    0.92    0.40
  -1 -13   7    1.30    0.45
   1 -13  -7    1.35    0.43
   1  13  -7    1.19    0.45
  -1  13   7    2.17    0.49
  -1 -13  -7    1.04    0.43
   1 -13   7    0.54    0.40
   1  13   7    0.44    0.35
   1  13   7   -0.22    0.37
  -1  13  -7    0.61    0.37
   3 -13   7    2.69    0.52
   3 -13   7    3.12    0.49
  -3 -13  -7    4.24    0.64
   3  13   7    3.50    0.56
  -3  13  -7    3.31    0.57
   5 -13   7    1.40    0.47
  -5 -13  -7    1.84    0.50
  -5  13  -7    1.56    0.48
   5  13   7    1.79    0.47
  -7 -13  -7    0.66    0.47
   7 -13   7    0.24    0.35
  -7  13  -7    0.02    0.44
   7  13   7    0.16    0.39
  -9 -13  -7    0.64    0.49
   9 -13   7    0.71    0.40
   9  13   7    1.12    0.48
  -9  13  -7    0.26    0.46
  16  14  -7    0.95    0.48
 -16  14   7    0.38    0.30
  14  14  -7   -0.22    0.40
 -14  14   7    0.30    0.30
 -12  14   7    4.58    0.51
  12  14  -7    5.27    0.71
  10 -14  -7    0.34    0.31
  10  14  -7    0.62    0.39
 -10  14   7    0.73    0.38
   8 -14  -7    2.16    0.42
   8  14  -7    2.28    0.49
  -8  14   7    2.37    0.45
   6 -14  -7    4.12    0.53
  -6  14   7    5.21    0.60
   6  14  -7    4.53    0.65
   4 -14  -7    1.09    0.39
  -4  14   7    0.30    0.37
   4  14  -7    0.75    0.37
   4  14  -7    0.75    0.39
   2 -14  -7    0.94    0.39
  -2 -14   7    0.28    0.40
   2  14  -7    0.81    0.40
  -2  14   7    0.86    0.43
   2  14  -7    0.50    0.40
   0 -14  -7   -0.32    0.33
   0 -14   7    0.04    0.36
   0  14  -7    0.49    0.38
   0  14   7    0.19    0.43
   0  14  -7    0.31    0.39
   2 -14   7    5.94    0.62
   2 -14   7    5.42    0.67
  -2 -14  -7    5.84    0.70
  -2  14  -7    6.67    0.71
  -2  14  -7    7.90    0.75
   2  14   7    6.29    0.67
  -4 -14  -7    0.20    0.41
   4 -14   7    0.07    0.38
   4  14   7    0.16    0.32
  -4  14  -7    0.68    0.46
   6 -14   7    0.55    0.39
  -6 -14  -7    0.29    0.42
   6  14   7    1.33    0.44
  -6  14  -7   -0.22    0.41
   8 -14   7    0.67    0.41
  -8 -14  -7    1.34    0.53
  -8  14  -7    1.28    0.55
   8  14   7    0.70    0.46
  15  15  -7    2.55    0.60
 -15  15   7    2.19    0.37
  13  15  -7    0.22    0.42
 -13  15   7   -0.10    0.31
  11 -15  -7    3.81    0.46
  11  15  -7    2.82    0.57
 -11  15   7    2.88    0.46
   9 -15  -7    0.65    0.33
  -9  15   7    0.73    0.38
   9  15  -7    1.01    0.43
   7 -15  -7   -0.13    0.30
  -7  15   7   -0.18    0.34
   7  15  -7    0.89    0.43
   5 -15  -7    0.31    0.35
  -5  15   7    0.44    0.38
   5  15  -7    0.52    0.43
   3 -15  -7    0.75    0.41
   3  15  -7    1.42    0.46
   3  15  -7    1.55    0.42
  -3  15   7    1.30    0.46
   1 -15  -7    0.65    0.39
  -1 -15   7    1.13    0.46
   1  15  -7    1.15    0.41
   1  15  -7    1.12    0.41
  -1  15   7    1.21    0.48
   1 -15   7    3.84    0.64
  -1 -15  -7    3.53    0.58
   1  15   7    3.49    0.63
  -1  15  -7    3.19    0.55
  -1  15  -7    3.61    0.57
  -3 -15  -7    0.02    0.36
   3 -15   7    1.07    0.45
   3  15   7    1.20    0.41
  -3  15  -7    0.74    0.43
  -5 -15  -7    2.34    0.56
   5 -15   7    2.60    0.54
   5  15   7    1.38    0.45
  -5  15  -7    0.51    0.46
   7 -15   7    0.37    0.40
  -7 -15  -7    0.74    0.49
  -7  15  -7    1.19    0.51
   7  15   7    0.48    0.43
  -9 -15  -7    0.26    0.48
  14  16  -7    0.92    0.52
 -14  16   7    0.86    0.29
  12  16  -7    1.74    0.56
 -12  16   7    2.59    0.42
  10 -16  -7    0.48    0.31
 -10  16   7    0.52    0.36
  10  16  -7    0.87    0.46
   8 -16  -7    3.34    0.47
  -8  16   7    3.05    0.50
   8  16  -7    3.09    0.60
   6 -16  -7    1.12    0.39
   6  16  -7    1.43    0.48
  -6  16   7    1.72    0.46
   4 -16  -7   -0.23    0.31
   4  16  -7    0.16    0.35
  -4  16   7   -0.37    0.34
   2 -16  -7    1.42    0.44
  -2 -16   7    1.27    0.48
  -2  16   7    1.38    0.47
   2  16  -7    1.14    0.40
   2  16  -7    0.82    0.43
   0 -16   7    4.87    0.69
   0 -16  -7    4.27    0.61
   0  16  -7    5.27    0.68
   0  16   7    4.72    0.68
   0  16  -7    4.84    0.60
  -2 -16  -7    3.99    0.61
   2 -16   7    3.70    0.61
   2  16   7    5.59    0.70
  -2  16  -7    3.08    0.56
   4 -16   7    0.40    0.38
  -4 -16  -7    0.38    0.41
  -4  16  -7   -0.01    0.40
   4  16   7    0.19    0.38
   6 -16   7    0.94    0.42
  -6 -16  -7   -1.06    0.35
  -6  16  -7   -0.18    0.38
   6  16   7    0.17    0.37
   8 -16   7    1.94    0.49
  -8 -16  -7    1.52    0.53
   8  16   7    1.90    0.50
  -8  16  -7    0.51    0.44
  15  17  -7    4.24    0.74
  13  17  -7    1.77    0.59
  11  17  -7    2.06    0.53
 -11  17   7    1.82    0.40
   9 -17  -7   10.63    0.70
  -9  17   7    9.96    0.72
   9  17  -7   11.60    0.88
   7 -17  -7    1.81    0.42
  -7  17   7    1.60    0.43
   7  17  -7    2.04    0.52
   5 -17  -7    3.85    0.53
  -5  17   7    2.64    0.53
   5  17  -7    3.52    0.62
   3 -17  -7    1.49    0.44
   3  17  -7    1.41    0.48
  -3  17   7    1.88    0.49
  -1 -17   7    3.08    0.58
   1 -17  -7    1.70    0.47
   1  17  -7    3.13    0.56
   1  17  -7    2.83    0.50
  -1  17   7    2.58    0.55
  -1 -17  -7    4.16    0.61
   1 -17   7    5.34    0.70
   1  17   7    4.64    0.69
  -1  17  -7    5.01    0.63
   3 -17   7    2.02    0.50
  -3 -17  -7    1.74    0.50
  -3  17  -7    2.72    0.54
   5 -17   7    0.56    0.40
  -5 -17  -7    0.47    0.43
  -5  17  -7    0.49    0.46
   5  17   7    0.57    0.42
  -7 -17  -7    0.78    0.49
   7 -17   7    1.22    0.48
  -7  17  -7    1.34    0.53
   7  17   7    1.28    0.51
  14  18  -7    4.33    0.74
 -12  18   7    1.32    0.35
  12  18  -7    1.42    0.53
  10  18  -7    6.56    0.79
 -10  18   7    7.14    0.63
   8 -18  -7    3.38    0.49
  -8  18   7    1.94    0.46
   8  18  -7    3.02    0.61
   6 -18  -7    0.36    0.33
   6  18  -7    0.84    0.48
  -6  18   7    0.05    0.35
   4 -18  -7    4.64    0.58
  -4  18   7    3.10    0.56
   4  18  -7    4.48    0.69
   2 -18  -7    0.07    0.36
   2  18  -7   -0.21    0.37
  -2  18   7    0.44    0.44
   2  18  -7    0.24    0.36
   0 -18  -7   -0.05    0.36
   0 -18   7   -0.65    0.34
   0  18  -7    0.27    0.37
   0  18   7    0.43    0.45
  -2 -18  -7    0.01    0.36
   2 -18   7    0.35    0.39
   2  18   7   -0.11    0.46
  -2  18  -7    0.65    0.40
  -4 -18  -7    1.57    0.51
   4 -18   7    1.55    0.48
  -4  18  -7    1.34    0.49
   6 -18   7    0.32    0.40
  -6 -18  -7    1.13    0.51
  -6  18  -7    1.58    0.54
  13  19  -7    8.23    0.94
  11  19  -7   15.51    1.09
 -11  19   7   13.94    0.76
   9 -19  -7    0.62    0.34
   9  19  -7    0.70    0.46
  -9  19   7    0.42    0.35
   7 -19  -7    4.66    0.55
  -7  19   7    3.78    0.54
   7  19  -7    5.30    0.74
   5 -19  -7    4.62    0.57
   5  19  -7    4.46    0.68
  -5  19   7    3.77    0.59
   3  19  -7    6.94    0.79
  -3  19   7    7.72    0.76
  -1 -19   7    0.40    0.42
   1 -19  -7    1.71    0.45
  -1  19   7    0.44    0.46
   1  19  -7    1.66    0.46
   1 -19   7    0.69    0.43
  -1 -19  -7    0.67    0.40
  -1  19  -7    0.52    0.40
   1  19   7    1.16    0.53
  -3 -19  -7    6.70    0.76
   3 -19   7    7.54    0.82
  -3  19  -7    6.36    0.74
  -5 -19  -7    5.95    0.78
   5 -19   7    7.16    0.82
  -5  19  -7    7.04    0.81
 -12  20   7    2.92    0.43
  12  20  -7    4.21    0.74
 -10  20   7    0.66    0.35
  10  20  -7    0.72    0.48
   8 -20  -7    2.47    0.44
   8  20  -7    1.90    0.54
  -8  20   7    2.23    0.48
   6 -20  -7    4.21    0.56
  -6  20   7    4.49    0.60
   6  20  -7    5.90    0.77
   4 -20  -7    3.23    0.54
  -4  20   7    2.67    0.54
   4  20  -7    2.81    0.60
   2 -20  -7   -0.22    0.36
  -2  20   7    0.02    0.41
   0 -20  -7    0.24    0.38
   0 -20   7   -0.37    0.37
   0  20   7   -0.50    0.45
   0  20  -7   -0.26    0.36
   2 -20   7    0.56    0.42
  -2 -20  -7    0.36    0.42
  -2  20  -7    0.75    0.44
   2  20   7    1.70    0.54
  -4 -20  -7   -0.02    0.42
   4 -20   7    0.33    0.41
  -4  20  -7    0.09    0.41
 -11  21   7    3.59    0.44
  11  21  -7    3.58    0.69
   9  21  -7   16.39    1.12
  -9  21   7   15.86    0.86
   7 -21  -7    5.28    0.57
  -7  21   7    3.71    0.57
   7  21  -7    5.32    0.76
   5 -21  -7    1.66    0.44
  -5  21   7    2.41    0.54
   5  21  -7    1.96    0.53
   3 -21  -7    1.71    0.47
  -3  21   7    1.43    0.51
   3  21  -7    1.42    0.51
   1 -21  -7    7.72    0.78
  -1  21   7    7.86    0.83
   1 -21   7    2.78    0.59
  -1 -21  -7    1.70    0.52
  -1  21  -7    3.05    0.57
   1  21   7    1.91    0.57
   3 -21   7    1.18    0.49
  -3 -21  -7   -0.03    0.39
  -3  21  -7    0.87    0.46
  -5 -21  -7    4.20    0.68
  -5  21  -7    2.97    0.63
 -10  22   7    2.89    0.45
  10  22  -7    2.61    0.61
   8  22  -7    2.98    0.63
  -8  22   7    1.95    0.48
   6 -22  -7    0.41    0.36
   6  22  -7   -0.26    0.42
  -6  22   7    0.18    0.39
   4 -22  -7    1.86    0.47
   4  22  -7    1.90    0.54
  -4  22   7    1.67    0.51
   2 -22  -7    1.40    0.46
  -2  22   7    2.41    0.56
   0 -22   7    2.05    0.56
   0 -22  -7    2.20    0.53
   0  22   7    2.95    0.62
   0  22  -7    3.48    0.58
  -2 -22  -7    0.94    0.45
   2 -22   7    0.45    0.42
  -2  22  -7    1.67    0.52
  -4 -22  -7    0.49    0.41
   9  23  -7    1.85    0.63
  -9  23   7    1.64    0.43
   7 -23  -7    1.95    0.44
   7  23  -7    2.11    0.59
  -7  23   7    1.73    0.49
   5 -23  -7    5.63    0.64
  -5  23   7    7.44    0.76
   5  23  -7    8.87    0.93
   3 -23  -7    1.74    0.49
  -3  23   7    2.49    0.56
   1 -23  -7    1.81    0.50
  -1  23   7    2.34    0.58
  -1 -23  -7    1.82    0.51
   1 -23   7    2.24    0.57
   1  23   7    1.14    0.55
  -1  23  -7    0.20    0.40
   8  24  -7    0.37    0.51
   6 -24  -7    1.38    0.44
   6  24  -7    1.87    0.60
  -6  24   7    1.86    0.49
   4 -24  -7    2.93    0.54
  -4  24   7    5.34    0.68
   2 -24  -7    0.61    0.43
  -2  24   7    0.86    0.47
   0 -24   7    0.04    0.46
   0 -24  -7    0.33    0.41
   0  24   7    0.53    0.47
   5 -25  -7    0.76    0.42
  -5  25   7    1.09    0.49
   3 -25  -7    3.27    0.56
  -3  25   7    2.72    0.61
 -16   0   8    2.82    0.59
 -16   0   8    3.74    0.41
  16   0  -8    3.06    0.55
 -14   0   8    0.92    0.46
  14   0  -8    1.38    0.46
 -14   0   8    2.76    0.40
 -12   0   8   12.07    0.69
  12   0  -8   10.08    0.76
 -12   0   8   11.75    0.85
 -10   0   8    5.96    0.56
 -10   0   8    5.04    0.65
  10   0  -8    6.92    0.68
  -8   0   8   -0.18    0.29
   8   0  -8   -0.03    0.32
  -8   0   8    0.21    0.40
  -6   0   8    1.99    0.40
  -6   0   8    1.90    0.46
  -6   0   8    1.48    0.48
   6   0  -8    1.08    0.39
   4   0  -8    4.83    0.60
  -4   0   8    3.98    0.50
  -4   0   8    2.96    0.54
  -4   0   8    4.71    0.62
  -2   0   8    4.06    0.59
  -2   0   8    4.43    0.54
   2   0  -8    4.50    0.62
   0   0   8    1.45    0.44
   0   0  -8    1.19    0.44
   0   0   8    1.47    0.43
  -2   0  -8    1.16    0.47
   2   0   8    1.39    0.44
  -4   0  -8    0.71    0.44
   4   0   8    1.15    0.43
   6   0   8    3.63    0.60
  -6   0  -8    5.44    0.74
  -8   0  -8    0.92    0.51
   8   0   8    1.04    0.45
  17  -1  -8    5.97    0.69
 -17  -1   8    5.55    0.70
 -17   1   8    5.38    0.68
  17   1  -8    6.12    0.70
 -15  -1   8    0.99    0.47
  15  -1  -8    0.50    0.39
 -15  -1   8    0.98    0.35
  15   1  -8    1.17    0.41
 -15   1   8    0.08    0.43
 -15   1   8    0.93    0.32
 -13  -1   8    1.82    0.38
  13  -1  -8    1.64    0.43
 -13  -1   8    0.66    0.45
 -13   1   8    1.21    0.47
  13   1  -8    1.88    0.47
 -13   1   8    2.46    0.39
 -11  -1   8    3.46    0.58
  11  -1  -8    3.49    0.54
 -11  -1   8    3.92    0.46
  11   1  -8    3.75    0.54
 -11   1   8    3.81    0.60
 -11   1   8    3.83    0.45
  -9  -1   8    9.32    0.66
   9  -1  -8    8.72    0.70
  -9  -1   8    8.66    0.79
   9   1  -8    7.99    0.75
  -9   1   8    9.53    0.65
  -9   1   8    8.70    0.78
  -7  -1   8    4.30    0.50
  -7  -1   8    5.51    0.63
  -7  -1   8    4.07    0.61
   7  -1  -8    3.83    0.55
   7   1  -8    3.98    0.54
  -7   1   8    4.54    0.50
  -7   1   8    3.41    0.58
  -5  -1   8    4.64    0.62
  -5  -1   8    3.97    0.49
  -5  -1   8    3.03    0.57
   5  -1  -8    3.32    0.53
  -5   1   8    3.56    0.46
   5   1  -8    3.52    0.56
  -5   1   8    4.01    0.60
  -5   1   8    4.25    0.60
  -3  -1   8    3.84    0.59
   3  -1  -8    2.35    0.49
  -3  -1   8    3.04    0.48
   3   1  -8    3.62    0.54
  -3   1   8    2.18    0.48
  -3   1   8    2.89    0.46
  -1  -1   8    7.13    0.64
  -1  -1   8    6.60    0.70
   1  -1  -8    6.49    0.70
  -1   1   8    5.56    0.59
  -1   1   8    6.68    0.70
   1   1  -8    6.69    0.71
  -1  -1  -8    3.87    0.61
   1  -1   8    4.63    0.56
   1  -1   8    3.32    0.53
   1   1   8    4.63    0.61
  -1   1  -8    3.77    0.58
   3  -1   8    0.16    0.38
  -3  -1  -8    0.40    0.42
  -3   1  -8    1.02    0.46
   3   1   8    0.28    0.38
   5  -1   8    3.45    0.60
  -5  -1  -8    3.87    0.63
   5   1   8    3.84    0.59
  -5   1  -8    4.37    0.66
   7  -1   8    0.60    0.42
  -7  -1  -8    0.72    0.49
  -7   1  -8   -0.15    0.42
   7   1   8    0.44    0.40
   9  -1   8    3.30    0.58
   9   1   8    2.98    0.60
 -16  -2   8    0.86    0.35
 -16  -2   8    1.37    0.48
  16  -2  -8    0.50    0.39
 -16   2   8    1.09    0.47
  16   2  -8    0.19    0.34
 -14  -2   8    4.80    0.70
 -14  -2   8    6.75    0.57
  14  -2  -8    5.77    0.63
  14   2  -8    5.91    0.68
 -14   2   8    6.49    0.49
 -14   2   8    5.11    0.66
  12  -2  -8    2.72    0.49
 -12  -2   8    2.97    0.43
 -12  -2   8    2.33    0.53
 -12   2   8    3.01    0.42
  12   2  -8    3.56    0.56
 -12   2   8    3.03    0.54
 -10  -2   8    8.63    0.62
  10  -2  -8    6.03    0.64
 -10  -2   8    6.69    0.72
 -10   2   8    6.76    0.70
  10   2  -8    7.40    0.72
 -10   2   8    7.55    0.58
  -8  -2   8    1.09    0.36
  -8  -2   8    1.53    0.47
   8  -2  -8    1.18    0.40
  -8   2   8    1.32    0.46
   8   2  -8    1.17    0.42
  -8   2   8    1.03    0.36
  -6  -2   8    3.24    0.58
  -6  -2   8    3.97    0.59
   6  -2  -8    2.86    0.49
  -6  -2   8    3.66    0.48
  -6   2   8    3.62    0.57
   6   2  -8    2.67    0.50
  -6   2   8    2.90    0.44
   4  -2  -8    0.69    0.39
  -4  -2   8    1.26    0.37
  -4  -2   8    1.32    0.42
  -4   2   8    1.34    0.48
  -4   2   8    0.77    0.35
  -4   2   8    0.42    0.36
   4   2  -8    1.30    0.42
  -2  -2   8    3.89    0.52
  -2  -2   8    2.93    0.55
   2  -2  -8    2.82    0.52
  -2   2   8    3.21    0.54
   2   2  -8    3.17    0.56
   0  -2   8    3.68    0.59
   0  -2   8    3.43    0.51
   0  -2  -8    2.61    0.53
   0   2  -8    2.02    0.50
   0   2   8    4.37    0.60
  -2  -2  -8   10.08    0.79
   2  -2   8   11.86    0.78
   2  -2   8   10.72    0.79
  -2   2  -8   10.95    0.85
   2   2   8   11.07    0.79
  -4  -2  -8   -0.03    0.36
   4  -2   8   -0.18    0.34
   4   2   8   -0.16    0.32
  -4   2  -8   -0.33    0.35
   6  -2   8   -0.59    0.28
  -6  -2  -8    0.18    0.41
  -6   2  -8    0.09    0.37
   6   2   8   -0.28    0.33
   8  -2   8   11.22    0.90
  -8  -2  -8   10.30    0.99
   8   2   8   11.01    0.88
 -17  -3   8    1.01    0.35
 -17  -3   8    0.10    0.48
  17  -3  -8    0.67    0.39
 -17   3   8    1.27    0.47
  17   3  -8    0.55    0.44
  15  -3  -8    2.80    0.51
 -15  -3   8    3.85    0.64
 -15  -3   8    4.61    0.48
 -15   3   8    4.19    0.62
  15   3  -8    3.95    0.60
  13  -3  -8    4.68    0.57
 -13  -3   8    5.58    0.53
 -13  -3   8    3.86    0.63
 -13   3   8    4.08    0.58
  13   3  -8    3.93    0.61
 -11  -3   8    1.52    0.50
 -11  -3   8    1.06    0.36
  11  -3  -8    1.15    0.41
  11   3  -8    1.76    0.46
 -11   3   8    1.16    0.35
 -11   3   8    0.86    0.42
   9  -3  -8   18.57    0.98
  -9  -3   8   19.69    0.92
  -9  -3   8   20.83    1.10
  -9   3   8   19.35    1.03
  -9   3   8   20.63    0.88
  -7  -3   8    4.35    0.60
  -7  -3   8    3.35    0.46
   7  -3  -8    3.39    0.52
  -7  -3   8    3.64    0.60
  -7   3   8    2.94    0.53
   7   3  -8    2.27    0.48
  -7   3   8    3.14    0.45
  -5  -3   8    0.30    0.36
   5  -3  -8    0.81    0.36
  -5  -3   8    0.57    0.35
  -5   3   8   -0.45    0.28
  -5   3   8   -0.16    0.31
   5   3  -8    0.47    0.38
  -5   3   8   -0.04    0.38
  -3  -3   8    7.63    0.75
  -3  -3   8    7.64    0.64
   3  -3  -8    6.68    0.68
  -3   3   8    7.64    0.78
   3   3  -8    6.72    0.71
  -3   3   8    7.43    0.72
  -1  -3   8    4.25    0.53
   1  -3  -8    3.63    0.58
  -1  -3   8    4.02    0.60
  -1   3   8    2.53    0.48
   1   3  -8    4.36    0.60
   1  -3   8    3.97    0.54
  -1  -3  -8    2.44    0.55
   1  -3   8    4.46    0.62
   1   3   8    4.20    0.59
  -1   3  -8    3.89    0.57
   3  -3   8    9.82    0.78
   3  -3   8   10.97    0.77
  -3  -3  -8    9.63    0.88
  -3   3  -8   10.69    0.87
   3   3   8   11.30    0.83
   5  -3   8    0.34    0.40
  -5  -3  -8    0.75    0.44
   5   3   8   -0.03    0.35
  -5   3  -8    0.58    0.47
  -7  -3  -8    4.79    0.71
   7  -3   8    4.99    0.66
   7   3   8    5.74    0.73
  -9  -3  -8    6.62    0.85
   9  -3   8    8.28    0.84
   9   3   8    6.76    0.79
 -16  -4   8    2.02    0.56
 -16  -4   8    1.84    0.40
  16  -4  -8    1.67    0.43
  16   4  -8    1.56    0.51
 -16   4   8    1.53    0.46
 -14  -4   8    0.03    0.42
  14  -4  -8    0.23    0.33
 -14  -4   8   -0.19    0.32
  14   4  -8    0.37    0.40
 -14   4   8    0.05    0.39
 -12  -4   8    3.17    0.46
  12  -4  -8    2.47    0.48
 -12  -4   8    3.79    0.60
  12   4  -8    4.19    0.61
 -12   4   8    3.03    0.53
 -10  -4   8    0.84    0.44
 -10  -4   8    1.41    0.40
  10  -4  -8    1.02    0.37
  10   4  -8    1.45    0.46
 -10   4   8    1.62    0.45
  -8  -4   8    0.19    0.37
  -8  -4   8    0.06    0.36
   8  -4  -8    0.63    0.36
  -8  -4   8    0.64    0.35
  -8   4   8    0.03    0.38
   8   4  -8    0.62    0.38
   6  -4  -8   -0.22    0.29
  -6  -4   8   -0.04    0.31
  -6  -4   8    0.18    0.35
   6   4  -8    0.02    0.32
  -6   4   8    0.06    0.39
   4  -4  -8    1.13    0.40
  -4  -4   8    0.85    0.41
  -4  -4   8    0.72    0.37
   4   4  -8    0.29    0.36
  -4   4   8    0.54    0.35
  -4   4   8    1.09    0.47
  -2  -4   8    2.34    0.44
  -2  -4   8    2.39    0.52
   2  -4  -8    1.96    0.49
  -2   4   8    2.45    0.54
  -2   4   8    2.16    0.46
   2   4  -8    1.61    0.43
   0  -4  -8    0.28    0.40
   0  -4   8   -0.25    0.34
   0  -4   8    0.23    0.36
   0   4   8   -0.24    0.32
   0   4  -8   -0.10    0.34
   2  -4   8    0.88    0.40
   2  -4   8    0.27    0.38
  -2  -4  -8    1.26    0.44
  -2   4  -8    0.41    0.42
   2   4   8    0.23    0.36
  -4  -4  -8    0.68    0.49
   4  -4   8    0.01    0.38
   4  -4   8    0.59    0.41
  -4   4  -8    0.69    0.46
   4   4   8   -0.02    0.31
  -6  -4  -8    1.40    0.49
   6  -4   8    1.13    0.46
   6   4   8    1.35    0.46
  -6   4  -8    0.83    0.46
   8  -4   8    0.60    0.40
  -8  -4  -8   -0.56    0.42
   8   4   8    0.38    0.42
 -17  -5   8    2.61    0.62
  17  -5  -8    3.27    0.53
 -17   5   8    1.87    0.52
  17   5  -8    3.26    0.62
 -15  -5   8   -0.13    0.43
  15  -5  -8    0.22    0.32
 -15  -5   8    0.00    0.35
  15   5  -8   -0.08    0.39
 -15   5   8    0.18    0.39
 -13  -5   8    2.78    0.59
  13  -5  -8    3.06    0.49
  13   5  -8    2.94    0.56
 -13   5   8    2.16    0.50
  11  -5  -8    5.48    0.60
 -11  -5   8    4.76    0.69
  11   5  -8    6.10    0.69
 -11   5   8    5.87    0.65
  -9  -5   8    6.83    0.75
  -9  -5   8    7.40    0.62
   9  -5  -8    6.96    0.67
  -9  -5   8    5.44    0.69
   9   5  -8    6.90    0.71
  -9   5   8    7.41    0.71
  -7  -5   8    5.32    0.68
   7  -5  -8    4.54    0.58
  -7  -5   8    5.57    0.55
  -7   5   8    5.23    0.65
   7   5  -8    5.84    0.67
  -5  -5   8    0.50    0.34
   5  -5  -8   -0.09    0.31
  -5  -5   8    0.92    0.44
  -5   5   8    0.99    0.43
   5   5  -8    0.81    0.40
   3  -5  -8    5.71    0.66
  -3  -5   8    7.04    0.73
  -3  -5   8    7.08    0.63
  -3   5   8    7.11    0.71
  -3   5   8    5.30    0.62
   3   5  -8    7.09    0.71
   1  -5  -8    5.11    0.63
  -1  -5   8    5.31    0.59
  -1  -5   8    6.04    0.69
   1   5  -8    5.41    0.67
  -1   5   8    5.16    0.63
   1  -5   8   -0.27    0.32
  -1  -5  -8   -0.13    0.34
   1  -5   8    0.06    0.35
   1   5   8    0.26    0.35
  -1   5  -8    0.27    0.39
   3  -5   8    2.93    0.53
   3  -5   8    3.36    0.53
  -3  -5  -8    3.76    0.60
  -3   5  -8    3.47    0.62
   3   5   8    1.89    0.46
   5  -5   8    8.64    0.85
   5  -5   8    6.53    0.70
  -5  -5  -8    8.50    0.87
  -5   5  -8    8.82    0.87
   5   5   8    8.38    0.81
   7  -5   8   -0.17    0.35
  -7  -5  -8    0.67    0.49
   7   5   8    0.23    0.34
  -9  -5  -8    4.26    0.73
  16  -6  -8    1.06    0.39
 -16  -6   8    0.93    0.53
  16   6  -8    0.95    0.47
 -16   6   8    0.84    0.45
  14  -6  -8    1.91    0.42
 -14  -6   8    1.73    0.56
 -14   6   8    1.75    0.48
  14   6  -8    1.96    0.51
  12  -6  -8    0.15    0.31
 -12  -6   8   -0.40    0.40
  12   6  -8   -0.14    0.35
 -12   6   8   -0.05    0.39
  10  -6  -8   -0.03    0.30
 -10  -6   8    1.57    0.49
  10   6  -8    0.14    0.37
 -10   6   8    0.65    0.40
  -8  -6   8    1.31    0.42
  -8  -6   8    1.62    0.44
   8  -6  -8    0.30    0.33
   8   6  -8    1.56    0.44
  -8   6   8    1.33    0.47
   6  -6  -8    0.82    0.38
  -6  -6   8    1.22    0.40
  -6  -6   8    0.88    0.41
  -6   6   8    0.66    0.41
   6   6  -8    0.55    0.39
   4  -6  -8    0.81    0.38
  -4  -6   8    0.42    0.35
  -4  -6   8    0.81    0.44
   4   6  -8    0.03    0.38
  -4   6   8    1.06    0.42
   2  -6  -8    0.38    0.38
  -2  -6   8    0.82    0.43
  -2  -6   8    0.92    0.39
  -2   6   8    0.55    0.40
   2   6  -8    0.57    0.40
  -2   6   8    1.18    0.41
   0  -6  -8    3.18    0.56
   0  -6   8    3.11    0.55
   0  -6   8    2.97    0.49
   0   6   8    3.15    0.51
   0   6  -8    2.56    0.49
  -2  -6  -8    1.31    0.46
   2  -6   8    0.14    0.38
   2  -6   8    1.05    0.42
  -2   6  -8    0.15    0.37
   2   6   8    0.44    0.37
   4  -6   8    0.37    0.35
  -4  -6  -8    0.13    0.39
   4  -6   8   -0.14    0.37
  -4   6  -8   -0.16    0.40
   4   6   8   -0.23    0.34
  -6  -6  -8    1.19    0.48
   6  -6   8    1.30    0.45
   6  -6   8    1.33    0.43
   6   6   8    1.37    0.46
   8  -6   8    0.81    0.43
  -8  -6  -8    1.21    0.55
   8   6   8    1.07    0.42
 -17  -7   8    0.57    0.51
  17   7  -8    0.72    0.46
 -15  -7   8    1.85    0.58
  15  -7  -8    2.53    0.47
  15   7  -8    2.31    0.55
 -15   7   8    1.61    0.45
 -13  -7   8    0.66    0.48
  13  -7  -8    0.23    0.32
  13   7  -8    0.51    0.40
 -13   7   8    0.06    0.39
  11  -7  -8    1.09    0.38
 -11  -7   8    0.66    0.48
  11   7  -8    1.00    0.43
 -11   7   8    0.45    0.38
  -9  -7   8    3.00    0.57
   9  -7  -8    3.54    0.52
   9   7  -8    2.86    0.56
  -9   7   8    2.64    0.50
  -7  -7   8    0.02    0.37
  -7  -7   8    0.36    0.36
   7  -7  -8    0.64    0.34
   7   7  -8    0.28    0.38
  -7   7   8    0.64    0.42
  -5  -7   8    3.77    0.51
  -5  -7   8    3.25    0.58
   5  -7  -8    2.86    0.50
   5   7  -8    2.40    0.49
  -5   7   8    3.80    0.58
  -3  -7   8    1.38    0.47
  -3  -7   8    0.88    0.39
   3  -7  -8    1.04    0.41
   3   7  -8    0.47    0.41
  -3   7   8    1.50    0.49
  -1  -7   8    0.82    0.44
   1  -7  -8    1.27    0.43
  -1  -7   8    1.01    0.40
  -1   7   8    1.20    0.40
   1   7  -8    0.96    0.41
  -1  -7  -8    2.70    0.55
   1  -7   8    3.72    0.53
   1  -7   8    3.09    0.58
   1   7   8    3.06    0.53
  -1   7  -8    3.23    0.58
   3  -7   8    6.89    0.77
  -3  -7  -8    6.87    0.78
   3  -7   8    8.98    0.72
   3   7   8    6.55    0.72
  -3   7  -8   10.16    0.89
   5  -7   8   -0.32    0.35
   5  -7   8    0.28    0.41
  -5  -7  -8    0.89    0.46
  -5   7  -8    0.13    0.43
   5   7   8    0.24    0.40
   7  -7   8    1.53    0.50
  -7  -7  -8    0.99    0.54
   7   7   8    2.08    0.53
 -16  -8   8    1.73    0.60
  16   8  -8    0.92    0.49
 -16   8   8    2.01    0.47
 -14  -8   8   -0.23    0.44
  14  -8  -8    0.65    0.34
  14   8  -8    0.21    0.40
 -14   8   8    0.53    0.39
  12  -8  -8    2.78    0.47
 -12  -8   8    2.35    0.57
 -12   8   8    2.31    0.49
  12   8  -8    2.14    0.51
  10  -8  -8    3.65    0.51
 -10  -8   8    4.32    0.66
  10   8  -8    4.09    0.62
 -10   8   8    4.19    0.58
   8  -8  -8    0.53    0.35
  -8  -8   8    1.03    0.46
  -8   8   8    0.05    0.37
   8   8  -8   -0.05    0.36
  -6  -8   8    3.39    0.60
   6  -8  -8    3.24    0.52
  -6   8   8    4.07    0.60
   6   8  -8    4.01    0.60
   4  -8  -8    6.12    0.67
  -4  -8   8    6.67    0.77
  -4  -8   8    8.58    0.67
  -4   8   8    7.43    0.73
   4   8  -8    6.00    0.68
  -2  -8   8    6.63    0.62
  -2  -8   8    6.02    0.73
   2  -8  -8    5.09    0.64
   2   8  -8    5.83    0.66
  -2   8   8    6.80    0.71
  -2   8   8    5.85    0.64
   0  -8   8   10.41    0.93
   0  -8  -8   12.82    0.89
   0  -8   8   13.30    0.79
   0   8  -8   12.84    0.90
   0   8   8   11.39    0.77
  -2  -8  -8    5.52    0.71
   2  -8   8    5.16    0.60
   2  -8   8    4.34    0.65
   2   8   8    4.24    0.60
  -2   8  -8    3.84    0.63
   4  -8   8    3.29    0.54
  -4  -8  -8    2.96    0.57
   4  -8   8    2.59    0.55
   4   8   8    3.11    0.56
  -4   8  -8    3.11    0.59
  -6  -8  -8    3.46    0.66
   6  -8   8    2.78    0.52
   6  -8   8    2.38    0.54
   6   8   8    2.55    0.56
  -8  -8  -8    2.48    0.59
   8  -8   8    1.90    0.53
   8   8   8    3.29    0.62
 -15  -9   8    1.82    0.59
 -15   9   8    0.96    0.42
  15   9  -8    1.31    0.50
  13  -9  -8    0.31    0.33
 -13   9   8    0.66    0.39
  13   9  -8    0.04    0.42
  11  -9  -8    1.04    0.36
  11   9  -8    0.81    0.43
 -11   9   8    0.30    0.38
  -9  -9   8   -0.82    0.36
   9  -9  -8    0.75    0.37
   9   9  -8    0.84    0.43
  -9   9   8   -0.11    0.35
   7  -9  -8    0.74    0.40
  -7  -9   8    0.58    0.44
   7   9  -8    1.13    0.44
  -7   9   8    0.85    0.43
  -5  -9   8   -0.32    0.36
   5  -9  -8    0.38    0.35
   5   9  -8    0.34    0.36
  -5   9   8   -0.22    0.37
  -3  -9   8    1.99    0.52
   3  -9  -8    1.12    0.42
  -3  -9   8    1.53    0.40
  -3   9   8    2.04    0.51
   3   9  -8    2.45    0.51
  -1  -9   8    1.14    0.40
  -1  -9   8    0.34    0.41
   1  -9  -8    0.78    0.41
   1   9  -8    0.87    0.41
  -1   9   8    0.56    0.40
  -1   9   8    0.84    0.38
   1  -9   8    0.24    0.36
  -1  -9  -8    0.81    0.43
   1  -9   8   -0.09    0.37
   1   9   8    0.17    0.35
  -1   9  -8    0.52    0.41
   3  -9   8    1.85    0.48
   3  -9   8    2.81    0.51
  -3  -9  -8    2.70    0.60
   3   9   8    2.54    0.52
  -3   9  -8    1.63    0.51
  -5  -9  -8    2.86    0.64
   5  -9   8    2.68    0.56
   5  -9   8    3.13    0.54
   5   9   8    3.39    0.60
   7  -9   8    0.89    0.41
  -7  -9  -8    0.73    0.52
   7   9   8    0.41    0.42
  16  10  -8   -0.15    0.37
 -16  10   8   -0.01    0.38
  14 -10  -8    2.92    0.45
 -14  10   8    3.33    0.51
  14  10  -8    3.33    0.59
  12 -10  -8    6.88    0.65
  12  10  -8    6.96    0.80
 -10 -10   8    2.45    0.61
  10 -10  -8    1.41    0.40
  10  10  -8    2.11    0.53
 -10  10   8    2.14    0.47
   8 -10  -8    3.23    0.50
  -8 -10   8    3.85    0.64
   8  10  -8    4.66    0.66
  -8  10   8    4.21    0.58
   6 -10  -8    2.08    0.46
  -6 -10   8    2.74    0.57
  -6  10   8    2.46    0.52
   6  10  -8    3.09    0.57
   4 -10  -8   -0.13    0.31
  -4 -10   8    0.18    0.38
   4  10  -8   -0.35    0.36
  -4  10   8    0.82    0.43
   2 -10  -8    1.25    0.43
  -2 -10   8    0.81    0.44
  -2 -10   8    1.62    0.44
   2  10  -8    2.08    0.50
  -2  10   8    1.65    0.52
   0 -10   8   19.09    1.10
   0 -10   8   19.63    0.96
   0  10   8   18.12    0.98
   0  10  -8   19.07    1.10
  -2 -10  -8   12.34    0.92
   2 -10   8   13.22    0.83
   2 -10   8   12.11    0.92
   2  10   8   11.10    0.80
  -2  10  -8   12.88    0.92
  -4 -10  -8    0.17    0.39
   4 -10   8   -0.57    0.35
   4 -10   8    0.33    0.40
   4  10   8   -0.14    0.34
  -6 -10  -8    0.32    0.42
   6 -10   8    0.04    0.35
   6  10   8    0.09    0.40
 -15  11   8    2.70    0.48
  15  11  -8    2.95    0.60
  13 -11  -8    1.07    0.38
 -13  11   8    0.86    0.40
  13  11  -8    1.48    0.50
  11 -11  -8    0.71    0.35
 -11  11   8    1.23    0.43
  11  11  -8    1.60    0.52
  -9 -11   8    1.05    0.52
   9 -11  -8    0.83    0.36
   9  11  -8    0.23    0.40
  -9  11   8    0.38    0.39
  -7 -11   8    1.95    0.56
   7 -11  -8    1.58    0.44
   7  11  -8    1.53    0.49
  -7  11   8    1.70    0.47
  -5 -11   8    2.95    0.58
   5 -11  -8    1.48    0.43
  -5  11   8    2.26    0.51
   5  11  -8    1.80    0.52
  -3 -11   8    4.29    0.66
  -3 -11   8    3.43    0.52
   3 -11  -8    2.84    0.54
  -3  11   8    4.23    0.63
   3  11  -8    4.64    0.65
   1 -11  -8    4.46    0.64
  -1 -11   8    5.41    0.61
  -1 -11   8    4.90    0.69
  -1  11   8    5.16    0.69
   1  11  -8    4.05    0.63
   1 -11   8    2.53    0.48
   1 -11   8    3.76    0.63
  -1 -11  -8    1.63    0.51
  -1  11  -8    2.96    0.59
   1  11   8    1.53    0.46
  -3 -11  -8    6.47    0.78
   3 -11   8    6.73    0.69
   3 -11   8    5.96    0.74
   3  11   8    6.21    0.72
  -3  11  -8    6.45    0.76
   5 -11   8    1.47    0.48
  -5 -11  -8    0.54    0.47
   5  11   8    0.56    0.41
  -7 -11  -8    3.90    0.69
   7 -11   8    4.76    0.68
  -7  11  -8    3.74    0.72
   7  11   8    3.81    0.64
  14  12  -8    1.68    0.50
  12 -12  -8    1.84    0.43
 -12  12   8    2.56    0.48
  12  12  -8    1.71    0.50
  10 -12  -8    6.92    0.65
 -10  12   8    5.96    0.66
  10  12  -8    7.38    0.81
   8 -12  -8    3.55    0.53
  -8 -12   8    4.27    0.70
   8  12  -8    3.25    0.61
  -8  12   8    3.62    0.58
   6 -12  -8    3.22    0.53
  -6 -12   8    3.98    0.68
   6  12  -8    3.27    0.59
  -6  12   8    3.94    0.58
  -4 -12   8    7.27    0.81
   4 -12  -8    6.68    0.69
  -4  12   8    6.71    0.72
   4  12  -8    5.20    0.68
  -2 -12   8    5.69    0.63
   2 -12  -8    4.12    0.62
  -2 -12   8    4.65    0.69
   2  12  -8    4.39    0.66
  -2  12   8    4.07    0.64
   0 -12   8    3.61    0.53
   0 -12   8    2.73    0.58
   0 -12  -8    3.65    0.61
   0  12  -8    3.50    0.59
   2 -12   8    3.07    0.59
   2 -12   8    3.75    0.55
  -2 -12  -8    3.06    0.58
   2  12   8    3.12    0.57
  -2  12  -8    3.33    0.61
  -4 -12  -8    1.62    0.55
   4 -12   8    3.37    0.62
   4  12   8    3.03    0.56
  -6 -12  -8    2.97    0.65
   6 -12   8    1.97    0.51
  -6  12  -8    2.62    0.64
   6  12   8    3.33    0.61
  15  13  -8    1.20    0.48
 -13  13   8    0.41    0.38
  13  13  -8    0.15    0.41
  11 -13  -8    6.45    0.62
 -11  13   8    7.01    0.67
  11  13  -8    8.48    0.89
   9 -13  -8    1.79    0.44
  -9  13   8    1.95    0.49
   9  13  -8    2.62    0.59
   7 -13  -8    0.66    0.39
  -7 -13   8    1.02    0.49
  -7  13   8    1.25    0.46
   7  13  -8    0.97    0.47
   5 -13  -8    0.27    0.34
  -5 -13   8    0.70    0.45
  -5  13   8   -0.05    0.39
   5  13  -8   -0.92    0.27
   3 -13  -8    4.24    0.61
  -3 -13   8    4.66    0.70
   3  13  -8    4.07    0.64
  -3  13   8    4.02    0.61
  -1 -13   8    1.07    0.44
   1 -13  -8    2.21    0.51
  -1 -13   8    1.17    0.50
   1  13  -8    1.01    0.48
  -1  13   8    0.84    0.50
   1 -13   8    1.79    0.45
  -1 -13  -8    0.65    0.47
   1 -13   8    0.70    0.41
  -1  13  -8    0.96    0.46
   3 -13   8   -0.06    0.36
  -3 -13  -8   -0.27    0.39
   3 -13   8   -0.22    0.30
  -3  13  -8    0.39    0.47
   3  13   8   -0.06    0.37
  -5 -13  -8    5.72    0.80
   5 -13   8    8.61    0.89
  -5  13  -8    6.35    0.83
   5  13   8    6.99    0.80
  14  14  -8   -0.32    0.41
 -14  14   8    0.44    0.36
 -12  14   8    3.21    0.51
  12  14  -8    2.42    0.59
  10 -14  -8    0.96    0.37
  10  14  -8    0.61    0.47
 -10  14   8    1.42    0.45
  -8  14   8    6.16    0.68
   8  14  -8    6.17    0.75
  -6 -14   8    1.18    0.51
   6 -14  -8    0.85    0.40
  -6  14   8    0.80    0.45
   6  14  -8    0.54    0.40
   4 -14  -8    3.29    0.55
  -4 -14   8    3.83    0.66
  -4  14   8    3.35    0.58
   4  14  -8    3.27    0.61
   2 -14  -8    1.49    0.48
  -2 -14   8    1.46    0.52
   2  14  -8    1.55    0.46
   2  14  -8    1.17    0.49
  -2  14   8    1.68    0.52
   0 -14  -8    6.81    0.77
   0 -14   8    6.82    0.81
   0 -14   8    6.52    0.68
   0  14  -8    4.50    0.64
   0  14   8    6.95    0.82
   0  14  -8    7.00    0.79
  -2 -14  -8    0.50    0.46
   2 -14   8    0.82    0.42
   2 -14   8    1.33    0.49
  -2  14  -8    0.41    0.45
  -4 -14  -8    2.51    0.61
   4 -14   8    1.55    0.51
   4  14   8    2.05    0.51
  -4  14  -8    2.34    0.58
   6 -14   8    3.50    0.63
  -6 -14  -8    3.35    0.68
  -6  14  -8    3.32    0.67
   6  14   8    4.16    0.65
  13  15  -8    5.10    0.75
  11 -15  -8   -0.30    0.28
  11  15  -8    0.13    0.44
 -11  15   8    0.37    0.38
   9 -15  -8    5.46    0.60
  -9  15   8    3.62    0.57
   9  15  -8    5.47    0.76
   7 -15  -8    3.68    0.56
  -7  15   8    4.29    0.61
   7  15  -8    3.98    0.66
  -5 -15   8    2.15    0.55
   5 -15  -8    1.07    0.43
   5  15  -8    1.22    0.49
  -5  15   8    1.23    0.46
  -3 -15   8   -0.28    0.38
   3 -15  -8    0.00    0.39
  -3  15   8    0.29    0.43
   3  15  -8   -0.08    0.35
   1 -15  -8    9.11    0.86
  -1 -15   8    9.82    0.96
  -1  15   8    8.29    0.87
   1  15  -8   10.50    0.87
   1  15  -8   11.19    0.90
   1 -15   8    6.34    0.77
  -1 -15  -8    4.80    0.68
   1 -15   8    5.46    0.63
  -1  15  -8    5.39    0.71
   3 -15   8    1.66    0.50
  -3 -15  -8    2.56    0.58
  -3  15  -8    2.20    0.54
   5 -15   8    1.14    0.47
  -5 -15  -8    0.04    0.44
   5  15   8    1.12    0.47
  -5  15  -8   -0.13    0.47
 -12  16   8    0.28    0.36
  12  16  -8    0.62    0.43
  10 -16  -8    5.45    0.60
  10  16  -8    3.44    0.68
 -10  16   8    5.12    0.60
   8 -16  -8    2.44    0.48
   8  16  -8    2.51    0.58
  -8  16   8    3.30    0.55
   6 -16  -8   11.83    0.81
  -6  16   8   11.40    0.83
   6  16  -8   12.34    0.97
   4 -16  -8    0.42    0.40
  -4 -16   8    1.02    0.46
   4  16  -8    1.23    0.50
  -4  16   8    1.89    0.51
   2 -16  -8    3.35    0.58
  -2 -16   8    1.78    0.54
  -2  16   8    3.01    0.62
   2  16  -8    2.94    0.55
   2  16  -8    2.02    0.55
   0 -16   8    3.26    0.64
   0 -16  -8    2.27    0.54
   0  16  -8    1.92    0.52
   0  16   8    2.41    0.61
   2 -16   8    2.10    0.56
  -2 -16  -8    0.88    0.47
  -2  16  -8    1.95    0.54
  -4 -16  -8   -0.49    0.42
   4 -16   8   -0.38    0.33
  -4  16  -8    0.25    0.47
 -11  17   8    5.11    0.59
  11  17  -8    5.13    0.77
   9 -17  -8    1.29    0.42
   9  17  -8    1.23    0.51
  -9  17   8    2.47    0.49
   7 -17  -8    1.08    0.41
   7  17  -8    1.99    0.53
  -7  17   8    0.74    0.40
  -5 -17   8    1.53    0.57
   5 -17  -8    0.86    0.40
  -5  17   8    1.98    0.51
   5  17  -8    1.99    0.56
  -3 -17   8    0.25    0.44
   3 -17  -8    0.51    0.43
  -3  17   8   -0.12    0.43
   3  17  -8    1.20    0.49
  -1 -17   8    2.11    0.57
   1 -17  -8    2.85    0.57
   1  17  -8    2.72    0.59
   1  17  -8    2.46    0.56
  -1  17   8    1.01    0.53
  -1 -17  -8   -0.07    0.38
   1 -17   8    0.04    0.37
  -1  17  -8    0.34    0.43
   3 -17   8    1.88    0.54
  -3 -17  -8    1.05    0.47
  -3  17  -8    2.48    0.57
  10  18  -8    0.00    0.43
 -10  18   8    0.68    0.41
   8 -18  -8    0.18    0.36
  -8  18   8    0.92    0.42
   8  18  -8    0.93    0.50
   6 -18  -8    0.58    0.41
  -6  18   8    1.02    0.46
   6  18  -8    0.27    0.46
  -4 -18   8    6.30    0.80
   4 -18  -8    4.07    0.61
  -4  18   8    4.81    0.67
   4  18  -8    4.24    0.69
  -2 -18   8    0.52    0.46
   2 -18  -8   -0.15    0.40
   2  18  -8    0.21    0.43
  -2  18   8   -0.43    0.41
   0 -18  -8    0.43    0.41
   0 -18   8    0.28    0.43
   0  18  -8   -0.16    0.39
   0  18   8   -0.21    0.44
   2 -18   8    2.40    0.57
  -2 -18  -8    2.55    0.58
  -2  18  -8    2.00    0.56
   9 -19  -8    0.72    0.39
  -9  19   8    0.95    0.44
   9  19  -8    0.45    0.49
   7 -19  -8    1.67    0.46
  -7  19   8    2.22    0.52
   7  19  -8    2.17    0.56
   5 -19  -8   -0.74    0.33
   5  19  -8   -0.64    0.37
  -5  19   8   -0.13    0.43
  -3 -19   8    0.21    0.48
   3 -19  -8    0.27    0.41
   3  19  -8    1.31    0.50
  -3  19   8    1.25    0.53
  -1 -19   8    0.16    0.42
   1 -19  -8    0.16    0.43
  -1  19   8    0.93    0.52
   1 -19   8    3.27    0.66
  -1 -19  -8    3.71    0.65
  -1  19  -8    2.49    0.56
   8 -20  -8    3.69    0.56
  -8  20   8    3.77    0.58
   8  20  -8    3.65    0.70
   6 -20  -8    0.98    0.42
   6  20  -8    0.73    0.52
  -6  20   8    0.84    0.46
   4 -20  -8    0.51    0.42
  -4 -20   8   -0.23    0.45
   4  20  -8    0.12    0.46
  -4  20   8    0.00    0.43
  -2 -20   8    0.48    0.45
   2 -20  -8    0.58    0.46
  -2  20   8    0.54    0.50
   0 -20  -8    1.21    0.48
   0 -20   8    1.21    0.50
   0  20   8    1.10    0.55
   0  20  -8    0.98    0.46
   7 -21  -8    1.29    0.45
   7  21  -8    2.51    0.65
  -7  21   8    1.59    0.49
   5 -21  -8    1.47    0.47
  -5  21   8    1.32    0.50
   5  21  -8    0.78    0.53
   3 -21  -8    2.67    0.53
  -3 -21   8    2.78    0.66
  -3  21   8    3.42    0.64
   1 -21  -8    4.73    0.68
  -1 -21   8    5.39    0.79
  -1  21   8    6.03    0.79
 -14   0   9    0.18    0.36
  14   0  -9   -0.42    0.36
 -14   0   9    0.37    0.44
 -12   0   9   -0.09    0.44
  12   0  -9   -0.17    0.35
 -12   0   9   -0.18    0.35
 -10   0   9   -0.32    0.41
 -10   0   9    0.01    0.35
  10   0  -9   -0.31    0.33
  -8   0   9    0.17    0.40
  -8   0   9    0.04    0.33
   8   0  -9   -0.54    0.29
  -6   0   9    0.09    0.37
   6   0  -9   -0.19    0.35
  -4   0   9    0.07    0.35
   4   0  -9    0.12    0.39
  -4   0   9   -0.52    0.35
  -2   0   9   -0.09    0.36
   2   0  -9   -0.14    0.38
  -2   0   9   -0.73    0.31
   0   0   9    0.00    0.34
   0   0  -9   -0.42    0.38
   2   0   9    0.05    0.38
  -2   0  -9   -0.22    0.39
  -4   0  -9   -0.62    0.36
   4   0   9   -0.07    0.34
  15  -1  -9    5.01    0.67
 -15  -1   9    3.62    0.47
 -15  -1   9    3.60    0.67
 -15   1   9    3.95    0.67
  15   1  -9    3.03    0.58
  13  -1  -9   -0.01    0.39
 -13  -1   9   -0.42    0.41
 -13  -1   9    0.07    0.35
 -13   1   9    0.21    0.34
 -13   1   9   -0.14    0.39
  13   1  -9   -0.05    0.37
 -11  -1   9    2.26    0.44
 -11  -1   9    1.61    0.55
  11  -1  -9    2.12    0.50
 -11   1   9    1.16    0.49
 -11   1   9    2.22    0.45
  11   1  -9    2.73    0.55
  -9  -1   9    3.33    0.61
   9  -1  -9    2.67    0.52
  -9  -1   9    3.06    0.49
   9   1  -9    2.16    0.50
  -9   1   9    2.49    0.45
  -9   1   9    2.99    0.60
  -7  -1   9    0.70    0.39
   7  -1  -9    1.49    0.45
   7   1  -9    0.82    0.42
  -7   1   9    0.92    0.38
  -7   1   9    1.64    0.52
  -5  -1   9    0.91    0.44
  -5  -1   9    1.79    0.44
   5  -1  -9    1.08    0.42
   5   1  -9    2.41    0.53
  -5   1   9    1.72    0.42
  -3  -1   9    1.16    0.45
  -3  -1   9    0.60    0.42
   3  -1  -9    1.14    0.46
  -3   1   9    0.66    0.40
   3   1  -9    0.92    0.43
   1  -1  -9    4.35    0.65
  -1  -1   9    4.68    0.65
  -1  -1   9    4.75    0.59
   1   1  -9    5.14    0.70
  -1   1   9    4.80    0.63
   1  -1   9    0.64    0.41
  -1  -1  -9    1.14    0.46
   1   1   9    0.24    0.37
  -1   1  -9    0.16    0.39
  -3  -1  -9    3.26    0.65
   3  -1   9    3.49    0.59
  -3   1  -9    4.13    0.71
   3   1   9    3.52    0.62
   5  -1   9    2.53    0.58
  -5  -1  -9    3.35    0.70
   5   1   9    3.75    0.64
  -5   1  -9    4.35    0.74
  14  -2  -9    0.25    0.39
 -14  -2   9    1.02    0.52
 -14  -2   9   -0.03    0.34
  14   2  -9   -0.12    0.39
 -14   2   9    0.34    0.45
  12  -2  -9    2.75    0.53
 -12  -2   9    3.30    0.63
 -12  -2   9    3.04    0.48
 -12   2   9    3.08    0.61
  12   2  -9    3.79    0.60
 -12   2   9    3.18    0.46
  10  -2  -9    0.11    0.35
 -10  -2   9   -0.34    0.43
 -10  -2   9    0.12    0.37
 -10   2   9    0.33    0.35
  10   2  -9    0.69    0.41
 -10   2   9    0.35    0.43
  -8  -2   9    1.20    0.39
   8  -2  -9    0.57    0.39
  -8   2   9    1.31    0.41
   8   2  -9    1.65    0.48
  -8   2   9    1.29    0.50
   6  -2  -9   -0.03    0.36
  -6  -2   9    0.52    0.40
  -6  -2   9    0.53    0.38
  -6   2   9    0.33    0.45
   6   2  -9    0.61    0.42
  -6   2   9    0.53    0.36
   4  -2  -9    1.81    0.50
  -4  -2   9    2.47    0.48
  -4  -2   9    2.62    0.55
   4   2  -9    2.90    0.58
  -4   2   9    2.75    0.51
  -2  -2   9    0.32    0.40
  -2  -2   9    0.61    0.39
   2  -2  -9    0.32    0.40
   2   2  -9    0.63    0.44
  -2   2   9    0.02    0.36
   0  -2   9    1.15    0.47
   0  -2  -9    1.27    0.50
   0  -2   9    1.61    0.47
   0   2   9    1.65    0.46
   0   2  -9    1.73    0.52
   2  -2   9    0.04    0.33
  -2  -2  -9   -0.19    0.43
   2   2   9    0.08    0.38
  -2   2  -9    0.28    0.42
  -4  -2  -9    2.17    0.59
   4  -2   9    1.54    0.50
  -4   2  -9    2.57    0.63
   4   2   9    2.23    0.56
 -15  -3   9    3.34    0.49
  15  -3  -9    3.13    0.57
 -15  -3   9    2.53    0.60
 -15   3   9    2.63    0.57
  15   3  -9    3.61    0.65
 -13  -3   9    0.48    0.37
  13  -3  -9    0.86    0.42
 -13  -3   9    0.30    0.49
  13   3  -9    1.47    0.49
 -13   3   9    0.81    0.46
 -11  -3   9    0.35    0.47
  11  -3  -9    0.25    0.38
 -11  -3   9    0.80    0.40
 -11   3   9   -0.06    0.43
  11   3  -9    0.81    0.44
   9  -3  -9   -0.37    0.32
  -9  -3   9    0.07    0.37
   9   3  -9   -0.06    0.34
  -9   3   9    0.65    0.45
   7  -3  -9    1.01    0.42
  -7  -3   9    1.10    0.39
  -7   3   9    0.56    0.47
   7   3  -9    1.00    0.45
  -5  -3   9    0.22    0.40
  -5  -3   9    0.58    0.38
   5  -3  -9    0.43    0.39
   5   3  -9    0.31    0.42
  -3  -3   9    2.04    0.54
   3  -3  -9    0.83    0.45
  -3  -3   9    2.54    0.50
   3   3  -9    0.89    0.42
  -3   3   9    1.11    0.43
  -1  -3   9   -0.23    0.38
   1  -3  -9   -0.31    0.37
  -1  -3   9    0.45    0.39
   1   3  -9   -0.27    0.34
  -1   3   9   -0.22    0.34
   1  -3   9    3.06    0.53
  -1  -3  -9    2.63    0.61
   1  -3   9    2.63    0.56
   1   3   9    1.99    0.50
  -1   3  -9    2.21    0.56
   3  -3   9    0.29    0.40
  -3  -3  -9    1.00    0.49
  -3   3  -9    0.23    0.46
   3   3   9    0.54    0.43
   5  -3   9   -0.05    0.40
  -5  -3  -9    0.19    0.48
   5   3   9    0.23    0.38
  -5   3  -9    0.78    0.53
 -14  -4   9    1.59    0.57
 -14  -4   9    0.57    0.38
  14  -4  -9    1.43    0.46
  14   4  -9    1.62    0.50
 -14   4   9    1.01    0.47
  12  -4  -9    0.50    0.38
 -12  -4   9    0.68    0.39
 -12  -4   9   -0.25    0.43
  12   4  -9    0.86    0.45
 -12   4   9    0.54    0.46
  10  -4  -9    0.39    0.38
 -10  -4   9    0.76    0.36
  10   4  -9    0.51    0.40
 -10   4   9    0.12    0.40
   8  -4  -9    1.31    0.44
  -8  -4   9    1.08    0.41
  -8   4   9    1.69    0.51
   8   4  -9    0.86    0.46
   6  -4  -9    1.38    0.44
  -6  -4   9    1.32    0.41
  -6  -4   9    1.01    0.45
   6   4  -9    1.54    0.47
  -6   4   9    1.80    0.53
  -4  -4   9    4.80    0.67
  -4  -4   9    5.43    0.60
   4  -4  -9    4.61    0.64
   4   4  -9    4.38    0.65
  -2  -4   9    0.37    0.41
  -2  -4   9    0.60    0.40
   2  -4  -9    0.18    0.41
   2   4  -9   -0.14    0.37
  -2   4   9   -0.48    0.31
   0  -4  -9    2.68    0.59
   0  -4   9    2.54    0.51
   0  -4   9    2.77    0.59
   0   4   9    2.32    0.52
   0   4  -9    2.88    0.58
   2  -4   9    9.16    0.75
  -2  -4  -9    7.84    0.86
   2  -4   9    9.40    0.90
   2   4   9    7.76    0.82
  -2   4  -9    8.93    0.92
   4  -4   9    0.74    0.44
  -4  -4  -9    0.79    0.52
   4   4   9    0.30    0.43
  -4   4  -9    0.25    0.46
 -15  -5   9    0.46    0.51
 -15   5   9    0.45    0.45
  13  -5  -9    0.67    0.42
 -13  -5   9    0.75    0.39
 -13  -5   9   -0.11    0.47
 -13   5   9    1.16    0.48
  13   5  -9   -0.12    0.38
  11  -5  -9    0.20    0.35
 -11  -5   9   -0.53    0.30
 -11   5   9   -0.19    0.42
  11   5  -9   -0.42    0.35
  -9  -5   9    1.17    0.40
   9  -5  -9    2.56    0.50
   9   5  -9    1.27    0.47
  -9   5   9    1.34    0.50
  -7  -5   9    1.06    0.39
   7  -5  -9    1.11    0.41
  -7  -5   9    1.01    0.45
   7   5  -9    1.49    0.46
  -7   5   9    1.57    0.52
   5  -5  -9    0.13    0.35
  -5  -5   9    0.03    0.37
  -5  -5   9    0.42    0.40
   5   5  -9   -0.21    0.35
  -5   5   9   -0.15    0.41
  -3  -5   9    4.39    0.57
  -3  -5   9    2.67    0.57
   3  -5  -9    3.36    0.59
   3   5  -9    3.01    0.60
   1  -5  -9    0.36    0.43
  -1  -5   9   -0.22    0.36
  -1  -5   9   -0.21    0.38
  -1   5   9    0.52    0.39
   1   5  -9    0.00    0.39
   1  -5   9    0.88    0.43
   1  -5   9    0.44    0.41
  -1  -5  -9    1.17    0.47
   1   5   9    0.11    0.39
  -1   5  -9    0.54    0.48
   3  -5   9    1.96    0.49
   3  -5   9    0.81    0.46
  -3  -5  -9    1.17    0.54
   3   5   9    1.10    0.47
  -3   5  -9    1.90    0.58
  -5  -5  -9   -0.06    0.48
   5  -5   9    0.06    0.41
  -5   5  -9   -0.10    0.47
   5   5   9    0.60    0.45
  14  -6  -9    1.12    0.42
 -14  -6   9    1.01    0.41
 -14  -6   9    0.60    0.53
  14   6  -9    0.78    0.46
 -14   6   9    1.04    0.48
  12  -6  -9    3.25    0.55
 -12  -6   9    3.62    0.52
  12   6  -9    3.78    0.64
 -12   6   9    3.26    0.60
 -10  -6   9    7.48    0.64
  10  -6  -9    6.39    0.69
  10   6  -9    6.25    0.76
  -8  -6   9    1.69    0.42
   8  -6  -9    1.67    0.45
  -8  -6   9    1.66    0.54
   8   6  -9    1.77    0.50
  -8   6   9    1.36    0.50
   6  -6  -9    1.30    0.46
  -6  -6   9    0.52    0.44
  -6  -6   9    0.71    0.39
  -6   6   9    0.95    0.45
   6   6  -9    1.19    0.47
  -4  -6   9    2.29    0.47
   4  -6  -9    1.54    0.47
  -4  -6   9    2.20    0.52
   4   6  -9    1.93    0.53
  -4   6   9    2.23    0.57
   2  -6  -9    0.78    0.44
  -2  -6   9    1.37    0.49
  -2  -6   9    1.43    0.44
   2   6  -9    0.98    0.46
   0  -6   9    5.87    0.67
   0  -6   9    4.29    0.69
   0  -6  -9    5.33    0.72
   0   6  -9    6.72    0.80
   0   6   9    5.10    0.68
   2  -6   9   -0.42    0.35
  -2  -6  -9    0.51    0.46
   2  -6   9   -0.27    0.40
  -2   6  -9   -0.33    0.42
   2   6   9   -0.36    0.34
   4  -6   9    1.50    0.49
   4  -6   9    1.09    0.49
  -4  -6  -9    1.89    0.59
  -4   6  -9    0.81    0.53
   4   6   9    1.17    0.49
  13  -7  -9    1.93    0.45
 -13  -7   9    1.90    0.48
 -13   7   9    1.18    0.51
  13   7  -9    2.18    0.53
  11  -7  -9    0.10    0.36
 -11  -7   9    0.27    0.40
  11   7  -9    0.22    0.36
 -11   7   9    0.28    0.41
  -9  -7   9    2.64    0.48
   9  -7  -9    2.56    0.52
   9   7  -9    4.17    0.66
  -9   7   9    2.77    0.56
   7  -7  -9    0.06    0.33
  -7  -7   9   -0.19    0.33
  -7  -7   9    0.39    0.41
  -7   7   9   -0.88    0.36
   7   7  -9    0.34    0.41
  -5  -7   9    1.96    0.52
  -5  -7   9    2.61    0.48
   5  -7  -9    2.47    0.53
  -5   7   9    1.28    0.48
   5   7  -9    1.61    0.53
  -3  -7   9    4.61    0.70
  -3  -7   9    5.54    0.62
   3  -7  -9    3.84    0.61
   3   7  -9    3.94    0.63
  -1  -7   9   14.52    0.91
   1  -7  -9   14.61    1.01
  -1  -7   9   14.13    0.98
   1   7  -9   14.42    1.01
   1  -7   9    1.51    0.48
  -1  -7  -9    2.81    0.59
   1  -7   9    3.50    0.57
   1   7   9    2.58    0.54
  -1   7  -9    1.94    0.56
   3  -7   9    1.87    0.55
   3  -7   9    1.86    0.51
  -3  -7  -9    1.69    0.56
  -3   7  -9    0.85    0.53
   3   7   9    1.27    0.47
  14  -8  -9    0.93    0.41
 -14  -8   9   -0.11    0.40
 -14   8   9    0.37    0.43
  14   8  -9   -0.25    0.37
  12  -8  -9    4.92    0.60
  12   8  -9    4.33    0.68
 -12   8   9    5.37    0.66
 -10  -8   9    0.11    0.38
  10  -8  -9   -0.40    0.34
  10   8  -9   -0.24    0.38
 -10   8   9    0.24    0.42
  -8  -8   9    2.00    0.45
  -8  -8   9    2.32    0.59
   8  -8  -9    2.00    0.47
  -8   8   9    2.60    0.56
   8   8  -9    1.72    0.51
   6  -8  -9    5.57    0.67
  -6  -8   9    5.14    0.59
  -6  -8   9    7.22    0.81
   6   8  -9    4.68    0.70
  -6   8   9    5.39    0.69
  -4  -8   9    2.96    0.50
   4  -8  -9    2.93    0.55
  -4  -8   9    4.03    0.68
   4   8  -9    3.21    0.60
  -4   8   9    2.00    0.58
  -2  -8   9    0.75    0.41
   2  -8  -9   -0.13    0.38
  -2  -8   9    0.22    0.43
   2   8  -9    0.47    0.45
   0  -8   9    2.22    0.57
   0  -8   9    2.60    0.52
   0  -8  -9    1.36    0.52
   0   8  -9    1.74    0.52
   2  -8   9   12.40    0.98
   2  -8   9   15.28    0.93
  -2   8  -9   15.24    1.06
  -4  -8  -9   -0.05    0.42
   4  -8   9    1.82    0.53
   4  -8   9    1.57    0.50
   4   8   9    1.03    0.47
  13  -9  -9    0.39    0.37
 -13   9   9    0.32    0.44
  13   9  -9    0.78    0.43
  11  -9  -9    3.64    0.56
  11   9  -9    3.13    0.60
 -11   9   9    3.83    0.61
  -9  -9   9    0.93    0.48
  -9  -9   9    0.86    0.44
   9  -9  -9    0.52    0.38
   9   9  -9    0.40    0.44
  -9   9   9    1.21    0.48
   7  -9  -9    2.82    0.52
  -7  -9   9    3.45    0.67
  -7  -9   9    2.22    0.50
  -7   9   9    3.18    0.59
   7   9  -9    3.31    0.62
  -5  -9   9    1.70    0.44
  -5  -9   9    2.71    0.60
   5  -9  -9    1.78    0.49
  -5   9   9    0.61    0.48
   5   9  -9    1.88    0.51
   3  -9  -9    7.32    0.78
  -3  -9   9    9.01    0.71
  -3  -9   9    8.02    0.88
   3   9  -9    8.18    0.84
  -1  -9   9    1.19    0.51
   1  -9  -9    1.85    0.52
  -1  -9   9    3.34    0.54
   1   9  -9    2.95    0.59
   1  -9   9    2.60    0.52
  -1  -9  -9    1.65    0.53
   1  -9   9    1.98    0.52
  -1   9  -9    1.68    0.52
   3  -9   9    2.55    0.57
  -3  -9  -9    1.21    0.54
   3  -9   9    1.52    0.49
  -3   9  -9    1.70    0.58
   3   9   9    1.15    0.49
  12 -10  -9    2.28    0.48
 -12  10   9    2.13    0.51
  12  10  -9    2.38    0.58
  10 -10  -9    3.32    0.56
  10  10  -9    3.34    0.64
 -10  10   9    3.36    0.60
  -8 -10   9    7.69    0.87
   8 -10  -9    6.33    0.72
  -8  10   9    7.23    0.78
   8  10  -9    6.91    0.82
  -6 -10   9    6.24    0.65
  -6 -10   9    5.45    0.75
   6 -10  -9    5.43    0.69
  -6  10   9    5.06    0.71
   6  10  -9    4.64    0.70
   4 -10  -9    2.05    0.51
  -4 -10   9    3.00    0.50
  -4 -10   9    2.40    0.59
  -4  10   9    3.13    0.62
   4  10  -9    4.20    0.65
  -2 -10   9    7.68    0.69
  -2 -10   9    8.38    0.92
   2 -10  -9    8.31    0.84
   2  10  -9   10.50    0.94
   0 -10   9   -0.04    0.39
   0 -10  -9    0.44    0.47
   0 -10   9    0.74    0.42
   0  10  -9    1.79    0.54
   2 -10   9    8.06    0.75
   2 -10   9    8.43    0.91
  -2 -10  -9    8.01    0.89
  -2  10  -9   10.08    0.96
   2  10   9    7.74    0.81
  11 -11  -9    3.28    0.54
  11  11  -9    3.14    0.65
 -11  11   9    1.80    0.53
  -9 -11   9    9.96    0.98
   9 -11  -9    6.87    0.73
   9  11  -9    7.57    0.85
  -9  11   9    7.76    0.80
   7 -11  -9    1.81    0.47
  -7 -11   9    0.53    0.44
  -7 -11   9    1.53    0.56
  -7  11   9    1.72    0.54
   7  11  -9    2.00    0.56
  -5 -11   9    2.23    0.50
   5 -11  -9    1.11    0.46
  -5 -11   9    1.35    0.54
   5  11  -9    1.22    0.49
  -5  11   9    1.53    0.52
   3 -11  -9    4.75    0.66
  -3 -11   9    4.45    0.73
  -3 -11   9    3.58    0.55
  -3  11   9    3.13    0.65
   3  11  -9    4.47    0.70
  -1 -11   9    5.71    0.77
   1 -11  -9    6.44    0.76
  -1 -11   9    6.50    0.68
   1  11  -9    5.68    0.78
   1 -11   9    2.31    0.52
  -1 -11  -9    1.02    0.52
   1 -11   9    1.20    0.52
  -1  11  -9    1.53    0.52
  -3 -11  -9    1.01    0.53
   3 -11   9    0.48    0.45
   3 -11   9    0.44    0.42
  12 -12  -9    0.23    0.36
  12  12  -9   -0.39    0.40
 -12  12   9    0.25    0.41
 -10 -12   9    1.00    0.54
  10 -12  -9    1.76    0.46
 -10  12   9    1.21    0.47
  10  12  -9    1.28    0.54
  -8 -12   9    1.39    0.51
   8 -12  -9    1.38    0.45
   8  12  -9    1.41    0.53
  -8  12   9    2.76    0.56
   6 -12  -9    0.36    0.41
  -6 -12   9    0.42    0.42
  -6 -12   9    0.21    0.48
  -6  12   9    0.05    0.42
   6  12  -9    0.53    0.42
  -4 -12   9    4.91    0.62
   4 -12  -9    4.05    0.63
  -4 -12   9    6.41    0.82
  -4  12   9    4.74    0.69
   4  12  -9    4.08    0.68
  -2 -12   9    0.15    0.38
  -2 -12   9    0.17    0.41
   2 -12  -9    0.52    0.43
   2  12  -9    0.37    0.44
   0 -12   9   10.46    0.80
   0 -12   9    9.96    0.99
   0  12  -9    9.38    0.91
  -2 -12  -9    2.88    0.65
   2 -12   9    3.06    0.62
   2 -12   9    3.88    0.62
  11 -13  -9    0.96    0.42
  11  13  -9    1.68    0.55
 -11  13   9    1.27    0.49
  -9 -13   9    0.79    0.54
   9 -13  -9    1.43    0.44
   9  13  -9    0.24    0.46
  -9  13   9    0.27    0.44
   7 -13  -9   -0.16    0.36
  -7 -13   9   -0.34    0.43
  -7  13   9    0.19    0.43
   7  13  -9   -0.26    0.42
  -5 -13   9    0.98    0.46
   5 -13  -9    1.71    0.49
  -5 -13   9    3.57    0.70
   5  13  -9    1.76    0.54
  -5  13   9    1.62    0.54
  -3 -13   9    0.38    0.40
   3 -13  -9    0.76    0.44
  -3 -13   9    0.89    0.50
  -3  13   9    0.06    0.45
   3  13  -9    0.34    0.48
  -1 -13   9    1.98    0.48
  -1 -13   9    2.40    0.60
   1 -13  -9    1.08    0.48
   1  13  -9    1.45    0.54
   1 -13   9    4.41    0.73
   1 -13   9    6.13    0.69
  -1 -13  -9    4.66    0.72
 -10 -14   9   -0.55    0.44
  10 -14  -9    0.03    0.35
  10  14  -9    0.94    0.51
 -10  14   9    0.78    0.47
   8 -14  -9   -0.18    0.38
  -8 -14   9    0.28    0.48
   8  14  -9   -0.14    0.43
  -8  14   9   -0.24    0.40
   6 -14  -9    2.80    0.57
  -6 -14   9    4.26    0.73
   6  14  -9    3.81    0.69
  -6  14   9    2.54    0.56
  -4 -14   9    1.58    0.54
  -4 -14   9    0.67    0.46
   4 -14  -9    1.69    0.50
  -4  14   9    1.45    0.53
   4  14  -9    1.00    0.51
  -2 -14   9    1.99    0.59
  -2 -14   9    1.18    0.46
   2 -14  -9    1.22    0.48
   2  14  -9    1.24    0.52
   2  14  -9    0.82    0.46
   0 -14  -9    0.85    0.45
   0 -14   9    0.87    0.43
   0 -14   9    0.40    0.45
   0  14  -9    0.67    0.50
   0  14  -9    0.55    0.48
  -9 -15   9    0.06    0.46
   9 -15  -9    1.29    0.45
   9  15  -9    0.73    0.48
  -9  15   9    1.08    0.47
   7 -15  -9   -0.12    0.37
  -7 -15   9    0.35    0.42
   7  15  -9    0.24    0.48
  -7  15   9    0.52    0.46
  -5 -15   9    1.22    0.50
   5 -15  -9    1.55    0.52
  -5  15   9    1.47    0.52
   5  15  -9    0.65    0.49
   3 -15  -9   -0.45    0.37
  -3 -15   9    0.58    0.50
  -3 -15   9   -0.07    0.42
  -3  15   9   -0.25    0.45
   3  15  -9    0.05    0.44
   1 -15  -9    1.86    0.56
  -1 -15   9    3.70    0.57
  -1 -15   9    4.04    0.76
   1  15  -9    2.52    0.63
   1  15  -9    3.07    0.62
   8 -16  -9    1.21    0.48
  -8 -16   9    2.31    0.68
  -8  16   9    1.03    0.48
   8  16  -9    1.41    0.56
   6 -16  -9    2.28    0.54
  -6 -16   9    2.70    0.66
  -6  16   9    2.88    0.59
   6  16  -9    2.03    0.61
  -4 -16   9    1.27    0.53
   4 -16  -9    0.48    0.45
   4  16  -9    0.42    0.44
  -4  16   9    0.20    0.46
   2 -16  -9    0.70    0.44
  -2 -16   9    0.91    0.47
  -2 -16   9    1.03    0.49
   2  16  -9    0.44    0.46
  -2  16   9    0.99    0.54
  -5  17   9    1.00    0.51
 -10   0  10    4.72    0.57
  10   0 -10    4.22    0.66
  -8   0  10   -0.62    0.38
   8   0 -10   -0.55    0.34
  -6   0  10    0.26    0.38
   6   0 -10    0.75    0.44
   4   0 -10    1.52    0.50
   2   0 -10    2.82    0.65
  -2   0  10    1.47    0.50
   0   0 -10    5.32    0.80
   0   0  10    6.29    0.80
 -11  -1  10    2.24    0.51
 -11   1  10    1.83    0.60
  -9  -1  10    0.86    0.43
   9  -1 -10    1.26    0.50
   9   1 -10    0.36    0.41
   7  -1 -10    0.47    0.42
  -7  -1  10    0.81    0.43
   7   1 -10    1.29    0.48
   5  -1 -10   -0.23    0.39
  -5  -1  10    0.55    0.41
   5   1 -10    0.49    0.45
  -3  -1  10    0.32    0.43
   3  -1 -10    0.81    0.46
   3   1 -10    0.63    0.46
  -1  -1  10    1.86    0.53
   1  -1 -10    3.13    0.66
  -1   1  10    2.44    0.58
   1   1 -10    2.27    0.60
 -10  -2  10    1.13    0.44
  10  -2 -10    0.59    0.42
 -10   2  10    1.41    0.57
  10   2 -10    1.10    0.46
   8  -2 -10    0.24    0.41
  -8  -2  10   -0.31    0.38
   8   2 -10    0.59    0.45
   6  -2 -10    0.87    0.44
  -6  -2  10    1.03    0.43
   6   2 -10    0.32    0.44
  -4  -2  10    3.63    0.56
  -4  -2  10    2.23    0.57
   4  -2 -10    2.86    0.62
   4   2 -10    3.53    0.63
   2  -2 -10    0.61    0.47
  -2  -2  10   -0.37    0.32
  -2  -2  10   -0.02    0.39
  -2   2  10   -0.05    0.41
   2   2 -10    0.32    0.44
   0  -2  10    1.71    0.55
   0  -2 -10    1.18    0.53
   0   2 -10    2.40    0.61
   0   2  10    2.19    0.56
  -9  -3  10    1.25    0.46
   9  -3 -10    2.53    0.55
  -9   3  10    1.64    0.56
   9   3 -10    1.19    0.48
  -7  -3  10    1.88    0.49
   7  -3 -10    0.75    0.44
   7   3 -10    0.29    0.44
  -5  -3  10    1.19    0.44
   5  -3 -10    0.12    0.41
  -5  -3  10    0.14    0.42
   5   3 -10    0.42    0.45
  -3  -3  10    0.49    0.43
  -3  -3  10    0.72    0.46
   3  -3 -10    0.78    0.48
   3   3 -10    0.29    0.46
   1  -3 -10    1.39    0.54
  -1  -3  10    1.15    0.51
  -1  -3  10    1.21    0.49
  -1   3  10    0.56    0.43
   1   3 -10    1.51    0.57
  10  -4 -10    0.10    0.37
 -10  -4  10    0.15    0.41
 -10   4  10    0.18    0.46
  10   4 -10    0.01    0.36
   8  -4 -10   -0.61    0.37
  -8  -4  10    0.25    0.40
   8   4 -10    0.07    0.40
  -8   4  10    0.50    0.52
  -6  -4  10    0.75    0.42
   6  -4 -10    0.03    0.38
   6   4 -10    0.02    0.43
  -4  -4  10    2.53    0.56
   4  -4 -10    2.02    0.54
  -4  -4  10    2.26    0.50
   4   4 -10    1.97    0.56
   2  -4 -10    0.88    0.50
  -2  -4  10    0.28    0.41
  -2  -4  10    1.09    0.51
   2   4 -10    0.22    0.44
  -9  -5  10    4.39    0.58
   9  -5 -10    3.82    0.62
  -9   5  10    3.67    0.67
   9   5 -10    3.86    0.66
   7  -5 -10    1.31    0.47
  -7  -5  10    2.77    0.52
   7   5 -10    1.22    0.52
   5  -5 -10    0.05    0.41
  -5  -5  10   -0.13    0.38
  -5  -5  10    0.55    0.49
   5   5 -10   -0.53    0.39
  -3  -5  10    0.86    0.47
   3  -5 -10    0.63    0.48
  -3  -5  10    0.24    0.41
   3   5 -10    0.85    0.51
  -1  -5  10    9.75    0.80
  -1  -5  10   10.37    1.00
   1   5 -10    8.39    0.92
   8  -6 -10    0.63    0.44
  -8  -6  10    0.47    0.42
   8   6 -10    1.35    0.51
  -8   6  10   -0.06    0.47
  -6  -6  10    0.60    0.41
  -6  -6  10    0.31    0.47
   6  -6 -10    0.32    0.41
   6   6 -10    1.24    0.52
   4  -6 -10    3.65    0.64
  -4  -6  10    2.97    0.64
  -4  -6  10    4.36    0.62
   4   6 -10    3.84    0.68
  -2  -6  10    1.21    0.48
  -2  -6  10    1.41    0.54
   2  -6 -10    0.93    0.49
   2   6 -10    2.09    0.59
  -9  -7  10    0.80    0.43
  -9   7  10   -0.69    0.42
   7  -7 -10    1.26    0.49
  -7  -7  10    1.34    0.46
   7   7 -10    0.85    0.49
  -7   7  10    2.23    0.59
  -5  -7  10    1.29    0.53
   5  -7 -10    1.14    0.47
  -5  -7  10    0.42    0.41
   5   7 -10    0.63    0.49
  -3  -7  10    5.11    0.67
   3  -7 -10    3.26    0.63
  -3  -7  10    5.36    0.79
   3   7 -10    4.37    0.71
  -8  -8  10    0.85    0.44
  -8   8  10    0.73    0.54
  -6  -8  10    1.90    0.49
   6  -8 -10    1.53    0.49
  -6  -8  10    1.43    0.56
   6   8 -10    0.71    0.49
  -6   8  10    2.21    0.60
  -4  -8  10    2.34    0.51
  -4  -8  10    2.78    0.64
   4  -8 -10    1.73    0.50
   4   8 -10    1.08    0.52
  -7   9  10   -0.42    0.43
   5  -9 -10    0.22    0.41
  -5  -9  10    0.19    0.44
   0   0   0    0.00    0.00
;
_shelx_hkl_checksum              49040
loop_
_space_group_symop_operation_xyz
'x, y, z'
'x, -y, z+1/2'
'x+1/2, y+1/2, z'
'x+1/2, -y+1/2, z+1/2'
loop_
_atom_site_label
_atom_site_type_symbol
_atom_site_fract_x
_atom_site_fract_y
_atom_site_fract_z
_atom_site_U_iso_or_equiv
_atom_site_adp_type
_atom_site_occupancy
_atom_site_site_symmetry_order
_atom_site_calc_flag
_atom_site_refinement_flags_posn
_atom_site_refinement_flags_adp
_atom_site_refinement_flags_occupancy
_atom_site_disorder_assembly
_atom_site_disorder_group
C1 C 0.88311(19) 0.51209(13) 0.8394(4) 0.0174(6) Uani 1 1 d . . . . .
C2 C 0.90713(19) 0.45863(13) 0.8709(4) 0.0189(6) Uani 1 1 d . . . . .
H2 H 0.964745 0.450485 0.931238 0.023 Uiso 1 1 calc R U . . .
C3 C 0.84955(19) 0.41688(13) 0.8168(4) 0.0175(6) Uani 1 1 d . . . . .
C4 C 0.7646(2) 0.42893(13) 0.7284(4) 0.0181(6) Uani 1 1 d . . . . .
H4 H 0.724235 0.400686 0.695346 0.022 Uiso 1 1 calc R U . . .
C5 C 0.73829(19) 0.48192(13) 0.6878(4) 0.0177(6) Uani 1 1 d . . . . .
C6 C 0.79835(19) 0.52275(13) 0.7464(4) 0.0191(6) Uani 1 1 d . . . . .
H6 H 0.780954 0.558941 0.722051 0.023 Uiso 1 1 calc R U . . .
C7 C 0.94630(19) 0.55600(13) 0.8960(4) 0.0176(6) Uani 1 1 d . . . . .
C8 C 0.9298(2) 0.60747(14) 0.8267(5) 0.0240(7) Uani 1 1 d . . . . .
H8 H 0.876012 0.614930 0.745040 0.029 Uiso 1 1 calc R U . . .
C9 C 0.9895(2) 0.64824(14) 0.8730(5) 0.0229(7) Uani 1 1 d . . . . .
H9 H 0.976056 0.683209 0.824746 0.027 Uiso 1 1 calc R U . . .
C10 C 1.06902(19) 0.63797(13) 0.9903(4) 0.0184(6) Uani 1 1 d . . . . .
C11 C 1.0859(2) 0.58690(14) 1.0638(5) 0.0251(7) Uani 1 1 d . . . . .
H11 H 1.139612 0.579506 1.145860 0.030 Uiso 1 1 calc R U . . .
C12 C 1.0254(2) 0.54691(14) 1.0187(5) 0.0254(7) Uani 1 1 d . . . . .
H12 H 1.037778 0.512440 1.071995 0.031 Uiso 1 1 calc R U . . .
C13 C 0.88055(19) 0.36091(13) 0.8579(4) 0.0170(6) Uani 1 1 d . . . . .
C14 C 0.9655(2) 0.34803(13) 0.8583(4) 0.0208(7) Uani 1 1 d . . . . .
H14 H 0.999542 0.373730 0.815973 0.025 Uiso 1 1 calc R U . . .
C15 C 1.0006(2) 0.29880(13) 0.9191(5) 0.0208(7) Uani 1 1 d . . . . .
H15 H 1.058333 0.291183 0.919600 0.025 Uiso 1 1 calc R U . . .
C16 C 0.9512(2) 0.26027(12) 0.9796(4) 0.0181(6) Uani 1 1 d . . . . .
C17 C 0.8656(2) 0.27122(13) 0.9694(4) 0.0203(7) Uani 1 1 d . . . . .
H17 H 0.830552 0.244578 1.003742 0.024 Uiso 1 1 calc R U . . .
C18 C 0.8310(2) 0.32108(13) 0.9090(4) 0.0205(7) Uani 1 1 d . . . . .
H18 H 0.772429 0.327963 0.902743 0.025 Uiso 1 1 calc R U . . .
C19 C 0.64928(18) 0.49552(13) 0.5834(4) 0.0165(6) Uani 1 1 d . . . . .
C20 C 0.5927(2) 0.45598(14) 0.5018(6) 0.0297(8) Uani 1 1 d . . . . .
H20 H 0.610700 0.419622 0.513706 0.036 Uiso 1 1 calc R U . . .
C21 C 0.5102(2) 0.46802(14) 0.4027(5) 0.0263(8) Uani 1 1 d . . . . .
H21 H 0.472713 0.439942 0.348129 0.032 Uiso 1 1 calc R U . . .
C22 C 0.48203(18) 0.52066(13) 0.3829(4) 0.0173(6) Uani 1 1 d . . . . .
C23 C 0.5381(2) 0.56071(14) 0.4620(5) 0.0335(9) Uani 1 1 d . . . . .
H23 H 0.520169 0.597078 0.449081 0.040 Uiso 1 1 calc R U . . .
C24 C 0.6204(2) 0.54822(15) 0.5602(5) 0.0342(9) Uani 1 1 d . . . . .
H24 H 0.658076 0.576381 0.613079 0.041 Uiso 1 1 calc R U . . .
O1 O 1.11192(15) 0.74340(10) 0.9852(3) 0.0238(5) Uani 1 1 d . . . . .
O2 O 1.21939(16) 0.67621(10) 0.9407(4) 0.0320(6) Uani 1 1 d . . . . .
H2A H 1.217179 0.643570 0.912707 0.048 Uiso 1 1 calc R U . . .
O3 O 1.18742(15) 0.68477(10) 1.2485(3) 0.0258(5) Uani 1 1 d . . . . .
H3 H 1.238913 0.694444 1.273237 0.039 Uiso 1 1 calc R U . . .
O4 O 1.00935(15) 0.16259(9) 0.9017(3) 0.0229(5) Uani 1 1 d . . . . .
H4A H 1.050645 0.174306 0.863881 0.034 Uiso 1 1 calc R U . . .
O5 O 1.09139(13) 0.20832(10) 1.1770(3) 0.0230(5) Uani 1 1 d . . . . .
H5 H 1.090346 0.230308 1.260460 0.035 Uiso 1 1 calc R U . . .
O6 O 0.94311(15) 0.16873(9) 1.1657(3) 0.0239(5) Uani 1 1 d . . . . .
O7 O 0.37102(14) 0.57500(9) 0.1060(3) 0.0221(5) Uani 1 1 d . . . . .
H7 H 0.401471 0.601798 0.145822 0.033 Uiso 1 1 calc R U . . .
O8 O 0.33168(15) 0.56568(10) 0.3991(3) 0.0239(5) Uani 1 1 d . . . . .
H8A H 0.333021 0.546419 0.490846 0.036 Uiso 1 1 calc R U . . .
O9 O 0.32759(14) 0.48479(9) 0.1904(3) 0.0210(5) Uani 1 1 d . . . . .
P1 P 1.14886(5) 0.68902(3) 1.04062(10) 0.01843(17) Uani 1 1 d . . . . .
P2 P 0.99831(5) 0.19716(3) 1.06393(10) 0.01791(17) Uani 1 1 d . . . . .
P3 P 0.37351(5) 0.53506(3) 0.26460(10) 0.01660(16) Uani 1 1 d . . . . .
C25 C 0.7122(3) 0.31862(17) 0.3527(6) 0.0379(9) Uani 1 1 d . . . . .
H25A H 0.751523 0.308150 0.278660 0.057 Uiso 1 1 calc R U . . .
H25B H 0.715305 0.292343 0.450403 0.057 Uiso 1 1 calc R U . . .
H25C H 0.728333 0.354043 0.406200 0.057 Uiso 1 1 calc R U . . .
C26 C 0.3804(3) 0.2967(2) 0.0442(6) 0.0533(13) Uani 1 1 d . . . . .
H26A H 0.433074 0.275433 0.077003 0.080 Uiso 1 1 calc R U . . .
H26B H 0.341214 0.284803 0.116820 0.080 Uiso 1 1 calc R U . . .
H26C H 0.394169 0.334643 0.068870 0.080 Uiso 1 1 calc R U . . .
C27 C 0.1634(3) 0.41244(18) 0.1114(5) 0.0398(10) Uani 1 1 d . . . . .
H27A H 0.105858 0.402601 0.121079 0.060 Uiso 1 1 calc R U . . .
H27B H 0.183301 0.386289 0.034421 0.060 Uiso 1 1 calc R U . . .
H27C H 0.161809 0.448160 0.056748 0.060 Uiso 1 1 calc R U . . .
O10 O 0.62665(17) 0.32057(10) 0.2400(3) 0.0319(6) Uani 1 1 d . . . . .
H10 H 0.620022 0.296267 0.160897 0.048 Uiso 1 1 calc R U . . .
O11 O 0.34078(15) 0.28972(11) -0.1442(3) 0.0302(6) Uani 1 1 d . . . . .
H11A H 0.371164 0.303996 -0.206725 0.045 Uiso 1 1 calc R U . . .
O12 O 0.22007(17) 0.41285(12) 0.2875(4) 0.0398(7) Uani 1 1 d . . . . .
H12A H 0.260938 0.433792 0.288254 0.060 Uiso 1 1 calc R U . . .
loop_
_atom_site_aniso_label
_atom_site_aniso_U_11
_atom_site_aniso_U_22
_atom_site_aniso_U_33
_atom_site_aniso_U_23
_atom_site_aniso_U_13
_atom_site_aniso_U_12
C1 0.0171(14) 0.0152(15) 0.0190(15) 0.0000(12) 0.0030(12) -0.0002(12)
C2 0.0161(14) 0.0163(16) 0.0234(15) 0.0013(12) 0.0033(12) -0.0003(12)
C3 0.0194(14) 0.0143(16) 0.0188(14) 0.0015(12) 0.0048(12) 0.0009(12)
C4 0.0174(14) 0.0137(16) 0.0218(15) -0.0004(12) 0.0022(12) -0.0023(12)
C5 0.0182(14) 0.0161(16) 0.0194(14) -0.0013(12) 0.0054(12) -0.0005(12)
C6 0.0191(14) 0.0106(16) 0.0261(16) 0.0021(13) 0.0027(12) 0.0001(12)
C7 0.0171(14) 0.0136(16) 0.0228(15) -0.0010(12) 0.0063(12) -0.0019(12)
C8 0.0180(14) 0.0209(18) 0.0297(17) 0.0049(14) -0.0005(12) -0.0010(13)
C9 0.0223(15) 0.0143(16) 0.0295(17) 0.0046(13) 0.0016(13) -0.0019(13)
C10 0.0167(14) 0.0141(16) 0.0250(16) -0.0023(12) 0.0066(12) -0.0030(12)
C11 0.0173(15) 0.0208(18) 0.0336(18) 0.0025(15) -0.0003(13) 0.0014(13)
C12 0.0223(16) 0.0148(17) 0.0363(19) 0.0027(14) 0.0016(14) 0.0000(13)
C13 0.0167(13) 0.0135(15) 0.0182(15) -0.0011(12) -0.0008(11) 0.0012(12)
C14 0.0219(15) 0.0162(16) 0.0247(16) 0.0011(13) 0.0065(13) -0.0025(13)
C15 0.0196(15) 0.0160(17) 0.0270(16) 0.0006(13) 0.0063(13) -0.0007(13)
C16 0.0205(15) 0.0121(15) 0.0198(15) -0.0017(12) 0.0014(12) 0.0001(12)
C17 0.0196(14) 0.0154(17) 0.0243(16) 0.0030(13) 0.0024(12) -0.0032(13)
C18 0.0152(14) 0.0180(17) 0.0263(16) -0.0011(13) 0.0013(12) -0.0013(12)
C19 0.0157(13) 0.0152(15) 0.0176(14) -0.0009(12) 0.0024(11) -0.0014(12)
C20 0.0209(16) 0.0117(17) 0.052(2) -0.0019(16) 0.0012(15) 0.0024(13)
C21 0.0173(15) 0.0154(17) 0.043(2) -0.0065(15) 0.0009(14) -0.0046(13)
C22 0.0156(14) 0.0189(17) 0.0169(14) 0.0019(12) 0.0026(11) -0.0003(12)
C23 0.0271(18) 0.0141(18) 0.048(2) 0.0017(16) -0.0116(16) 0.0055(14)
C24 0.0253(17) 0.0176(19) 0.047(2) -0.0023(16) -0.0146(16) -0.0017(14)
O1 0.0269(12) 0.0169(13) 0.0255(12) 0.0003(10) 0.0024(9) -0.0013(10)
O2 0.0274(13) 0.0271(15) 0.0454(16) -0.0097(12) 0.0166(11) -0.0105(11)
O3 0.0217(11) 0.0293(14) 0.0238(12) 0.0017(10) 0.0008(9) -0.0059(10)
O4 0.0257(12) 0.0145(12) 0.0273(12) 0.0004(10) 0.0043(9) -0.0004(10)
O5 0.0201(11) 0.0225(13) 0.0247(12) -0.0021(10) 0.0022(9) 0.0014(9)
O6 0.0245(12) 0.0156(12) 0.0318(13) 0.0064(10) 0.0071(10) 0.0008(9)
O7 0.0230(11) 0.0218(13) 0.0185(11) 0.0036(9) -0.0003(9) -0.0044(10)
O8 0.0255(11) 0.0226(13) 0.0236(12) 0.0028(10) 0.0061(9) 0.0061(10)
O9 0.0207(11) 0.0200(12) 0.0218(11) -0.0021(9) 0.0042(9) -0.0058(9)
P1 0.0169(4) 0.0159(4) 0.0219(4) -0.0014(3) 0.0036(3) -0.0033(3)
P2 0.0180(4) 0.0127(4) 0.0213(4) 0.0017(3) 0.0018(3) 0.0007(3)
P3 0.0157(3) 0.0160(4) 0.0169(4) 0.0010(3) 0.0019(3) -0.0007(3)
C25 0.035(2) 0.034(2) 0.046(2) -0.0118(18) 0.0140(18) -0.0046(18)
C26 0.043(2) 0.083(4) 0.026(2) 0.009(2) -0.0057(18) -0.003(2)
C27 0.0310(19) 0.046(3) 0.037(2) 0.0121(19) -0.0031(16) -0.0101(19)
O10 0.0395(15) 0.0242(14) 0.0332(14) -0.0041(11) 0.0114(11) 0.0005(12)
O11 0.0238(12) 0.0400(16) 0.0238(12) 0.0063(11) 0.0001(10) -0.0038(11)
O12 0.0328(14) 0.0458(18) 0.0347(15) 0.0125(13) -0.0031(11) -0.0207(13)
loop_
_atom_type_symbol
_atom_type_description
_atom_type_scat_dispersion_real
_atom_type_scat_dispersion_imag
_atom_type_scat_source
C C 0.0033 0.0016 'International Tables Vol C Tables 4.2.6.8 and 6.1.1.4'
H H 0.0000 0.0000 'International Tables Vol C Tables 4.2.6.8 and 6.1.1.4'
O O 0.0106 0.0060 'International Tables Vol C Tables 4.2.6.8 and 6.1.1.4'
P P 0.1023 0.0942 'International Tables Vol C Tables 4.2.6.8 and 6.1.1.4'
loop_
_geom_angle_atom_site_label_1
_geom_angle_atom_site_label_2
_geom_angle_atom_site_label_3
_geom_angle
_geom_angle_site_symmetry_1
_geom_angle_site_symmetry_3
_geom_angle_publ_flag
C2 C1 C6 117.6(3) . . ?
C2 C1 C7 121.0(3) . . ?
C6 C1 C7 121.3(3) . . ?
C3 C2 C1 122.1(3) . . ?
C3 C2 H2 119.0 . . ?
C1 C2 H2 119.0 . . ?
C2 C3 C4 118.9(3) . . ?
C2 C3 C13 118.5(3) . . ?
C4 C3 C13 122.6(3) . . ?
C5 C4 C3 121.0(3) . . ?
C5 C4 H4 119.5 . . ?
C3 C4 H4 119.5 . . ?
C4 C5 C6 118.0(3) . . ?
C4 C5 C19 122.0(3) . . ?
C6 C5 C19 120.0(3) . . ?
C1 C6 C5 122.3(3) . . ?
C1 C6 H6 118.9 . . ?
C5 C6 H6 118.9 . . ?
C8 C7 C12 117.3(3) . . ?
C8 C7 C1 121.3(3) . . ?
C12 C7 C1 121.3(3) . . ?
C9 C8 C7 121.9(3) . . ?
C9 C8 H8 119.1 . . ?
C7 C8 H8 119.1 . . ?
C8 C9 C10 120.0(3) . . ?
C8 C9 H9 120.0 . . ?
C10 C9 H9 120.0 . . ?
C11 C10 C9 118.8(3) . . ?
C11 C10 P1 120.6(2) . . ?
C9 C10 P1 120.5(3) . . ?
C12 C11 C10 120.5(3) . . ?
C12 C11 H11 119.7 . . ?
C10 C11 H11 119.7 . . ?
C11 C12 C7 121.4(3) . . ?
C11 C12 H12 119.3 . . ?
C7 C12 H12 119.3 . . ?
C18 C13 C14 117.6(3) . . ?
C18 C13 C3 122.9(3) . . ?
C14 C13 C3 119.4(3) . . ?
C15 C14 C13 121.5(3) . . ?
C15 C14 H14 119.3 . . ?
C13 C14 H14 119.3 . . ?
C14 C15 C16 120.1(3) . . ?
C14 C15 H15 119.9 . . ?
C16 C15 H15 119.9 . . ?
C17 C16 C15 119.0(3) . . ?
C17 C16 P2 121.3(2) . . ?
C15 C16 P2 119.7(2) . . ?
C16 C17 C18 120.3(3) . . ?
C16 C17 H17 119.8 . . ?
C18 C17 H17 119.8 . . ?
C13 C18 C17 121.3(3) . . ?
C13 C18 H18 119.4 . . ?
C17 C18 H18 119.4 . . ?
C20 C19 C24 117.1(3) . . ?
C20 C19 C5 121.0(3) . . ?
C24 C19 C5 121.9(3) . . ?
C19 C20 C21 121.7(3) . . ?
C19 C20 H20 119.2 . . ?
C21 C20 H20 119.2 . . ?
C22 C21 C20 120.5(3) . . ?
C22 C21 H21 119.7 . . ?
C20 C21 H21 119.7 . . ?
C23 C22 C21 118.5(3) . . ?
C23 C22 P3 121.6(2) . . ?
C21 C22 P3 119.8(2) . . ?
C22 C23 C24 120.4(3) . . ?
C22 C23 H23 119.8 . . ?
C24 C23 H23 119.8 . . ?
C23 C24 C19 121.8(3) . . ?
C23 C24 H24 119.1 . . ?
C19 C24 H24 119.1 . . ?
P1 O2 H2A 109.5 . . ?
P1 O3 H3 109.5 . . ?
P2 O4 H4A 109.5 . . ?
P2 O5 H5 109.5 . . ?
P3 O7 H7 109.5 . . ?
P3 O8 H8A 109.5 . . ?
O1 P1 O3 112.23(14) . . ?
O1 P1 O2 109.87(15) . . ?
O3 P1 O2 108.91(15) . . ?
O1 P1 C10 111.77(14) . . ?
O3 P1 C10 104.79(14) . . ?
O2 P1 C10 109.11(14) . . ?
O6 P2 O4 110.17(13) . . ?
O6 P2 O5 114.75(13) . . ?
O4 P2 O5 104.51(13) . . ?
O6 P2 C16 110.26(14) . . ?
O4 P2 C16 109.23(14) . . ?
O5 P2 C16 107.68(14) . . ?
O9 P3 O7 109.46(12) . . ?
O9 P3 O8 113.82(14) . . ?
O7 P3 O8 104.97(13) . . ?
O9 P3 C22 110.53(14) . . ?
O7 P3 C22 110.44(13) . . ?
O8 P3 C22 107.46(13) . . ?
O10 C25 H25A 109.5 . . ?
O10 C25 H25B 109.5 . . ?
H25A C25 H25B 109.5 . . ?
O10 C25 H25C 109.5 . . ?
H25A C25 H25C 109.5 . . ?
H25B C25 H25C 109.5 . . ?
O11 C26 H26A 109.5 . . ?
O11 C26 H26B 109.5 . . ?
H26A C26 H26B 109.5 . . ?
O11 C26 H26C 109.5 . . ?
H26A C26 H26C 109.5 . . ?
H26B C26 H26C 109.5 . . ?
O12 C27 H27A 109.5 . . ?
O12 C27 H27B 109.5 . . ?
H27A C27 H27B 109.5 . . ?
O12 C27 H27C 109.5 . . ?
H27A C27 H27C 109.5 . . ?
H27B C27 H27C 109.5 . . ?
C25 O10 H10 109.5 . . ?
C26 O11 H11A 109.5 . . ?
C27 O12 H12A 109.5 . . ?
loop_
_geom_bond_atom_site_label_1
_geom_bond_atom_site_label_2
_geom_bond_distance
_geom_bond_site_symmetry_2
_geom_bond_publ_flag
C1 C2 1.393(4) . ?
C1 C6 1.399(4) . ?
C1 C7 1.485(4) . ?
C2 C3 1.388(4) . ?
C2 H2 0.9500 . ?
C3 C4 1.400(4) . ?
C3 C13 1.490(4) . ?
C4 C5 1.399(4) . ?
C4 H4 0.9500 . ?
C5 C6 1.400(4) . ?
C5 C19 1.496(4) . ?
C6 H6 0.9500 . ?
C7 C8 1.388(4) . ?
C7 C12 1.398(4) . ?
C8 C9 1.384(5) . ?
C8 H8 0.9500 . ?
C9 C10 1.391(4) . ?
C9 H9 0.9500 . ?
C10 C11 1.390(5) . ?
C10 P1 1.784(3) . ?
C11 C12 1.378(5) . ?
C11 H11 0.9500 . ?
C12 H12 0.9500 . ?
C13 C18 1.389(4) . ?
C13 C14 1.406(4) . ?
C14 C15 1.382(5) . ?
C14 H14 0.9500 . ?
C15 C16 1.396(4) . ?
C15 H15 0.9500 . ?
C16 C17 1.390(4) . ?
C16 P2 1.795(3) . ?
C17 C18 1.393(4) . ?
C17 H17 0.9500 . ?
C18 H18 0.9500 . ?
C19 C20 1.381(4) . ?
C19 C24 1.392(5) . ?
C20 C21 1.389(5) . ?
C20 H20 0.9500 . ?
C21 C22 1.386(5) . ?
C21 H21 0.9500 . ?
C22 C23 1.381(5) . ?
C22 P3 1.793(3) . ?
C23 C24 1.386(4) . ?
C23 H23 0.9500 . ?
C24 H24 0.9500 . ?
O1 P1 1.499(3) . ?
O2 P1 1.547(3) . ?
O2 H2A 0.8400 . ?
O3 P1 1.545(2) . ?
O3 H3 0.8400 . ?
O4 P2 1.546(2) . ?
O4 H4A 0.8400 . ?
O5 P2 1.557(2) . ?
O5 H5 0.8400 . ?
O6 P2 1.493(2) . ?
O7 P3 1.552(2) . ?
O7 H7 0.8400 . ?
O8 P3 1.554(2) . ?
O8 H8A 0.8400 . ?
O9 P3 1.494(2) . ?
C25 O10 1.431(5) . ?
C25 H25A 0.9800 . ?
C25 H25B 0.9800 . ?
C25 H25C 0.9800 . ?
C26 O11 1.421(4) . ?
C26 H26A 0.9800 . ?
C26 H26B 0.9800 . ?
C26 H26C 0.9800 . ?
C27 O12 1.416(4) . ?
C27 H27A 0.9800 . ?
C27 H27B 0.9800 . ?
C27 H27C 0.9800 . ?
O10 H10 0.8400 . ?
O11 H11A 0.8400 . ?
O12 H12A 0.8400 . ?
loop_
_geom_hbond_atom_site_label_D
_geom_hbond_atom_site_label_H
_geom_hbond_atom_site_label_A
_geom_hbond_distance_DH
_geom_hbond_distance_HA
_geom_hbond_distance_DA
_geom_hbond_angle_DHA
_geom_hbond_site_symmetry_A
_geom_hbond_publ_flag
C17 H17 O2 0.95 2.43 3.313(4) 153.7 3_445 yes
C21 H21 O4 0.95 2.63 3.259(4) 123.7 4_454 yes
O2 H2A O12 0.84 1.70 2.508(4) 159.4 2_665 yes
O3 H3 O11 0.84 1.65 2.487(3) 170.8 2_666 yes
O4 H4A O10 0.84 1.72 2.530(4) 160.5 4 yes
O5 H5 O1 0.84 1.77 2.572(3) 157.9 2_565 yes
O7 H7 O6 0.84 1.79 2.601(3) 161.0 3_454 yes
O8 H8A O9 0.84 1.72 2.553(3) 171.0 2_565 yes
O10 H10 O1 0.84 1.85 2.693(3) 176.6 3_444 yes
O11 H11A O6 0.84 1.82 2.654(3) 175.7 4_453 yes
O12 H12A O9 0.84 1.93 2.720(3) 156.8 . yes
loop_
_geom_torsion_atom_site_label_1
_geom_torsion_atom_site_label_2
_geom_torsion_atom_site_label_3
_geom_torsion_atom_site_label_4
_geom_torsion
_geom_torsion_site_symmetry_1
_geom_torsion_site_symmetry_2
_geom_torsion_site_symmetry_3
_geom_torsion_site_symmetry_4
_geom_torsion_publ_flag
C6 C1 C2 C3 -1.5(5) . . . . ?
C7 C1 C2 C3 -179.0(3) . . . . ?
C1 C2 C3 C4 -0.2(5) . . . . ?
C1 C2 C3 C13 -179.3(3) . . . . ?
C2 C3 C4 C5 2.6(5) . . . . ?
C13 C3 C4 C5 -178.3(3) . . . . ?
C3 C4 C5 C6 -3.1(5) . . . . ?
C3 C4 C5 C19 176.2(3) . . . . ?
C2 C1 C6 C5 0.9(5) . . . . ?
C7 C1 C6 C5 178.4(3) . . . . ?
C4 C5 C6 C1 1.4(5) . . . . ?
C19 C5 C6 C1 -178.0(3) . . . . ?
C2 C1 C7 C8 163.5(3) . . . . ?
C6 C1 C7 C8 -13.9(5) . . . . ?
C2 C1 C7 C12 -15.3(5) . . . . ?
C6 C1 C7 C12 167.3(3) . . . . ?
C12 C7 C8 C9 1.3(5) . . . . ?
C1 C7 C8 C9 -177.5(3) . . . . ?
C7 C8 C9 C10 0.9(5) . . . . ?
C8 C9 C10 C11 -2.1(5) . . . . ?
C8 C9 C10 P1 176.3(3) . . . . ?
C9 C10 C11 C12 1.1(5) . . . . ?
P1 C10 C11 C12 -177.2(3) . . . . ?
C10 C11 C12 C7 1.1(5) . . . . ?
C8 C7 C12 C11 -2.3(5) . . . . ?
C1 C7 C12 C11 176.5(3) . . . . ?
C2 C3 C13 C18 142.4(3) . . . . ?
C4 C3 C13 C18 -36.7(5) . . . . ?
C2 C3 C13 C14 -32.8(4) . . . . ?
C4 C3 C13 C14 148.1(3) . . . . ?
C18 C13 C14 C15 -4.3(5) . . . . ?
C3 C13 C14 C15 171.2(3) . . . . ?
C13 C14 C15 C16 0.8(5) . . . . ?
C14 C15 C16 C17 3.1(5) . . . . ?
C14 C15 C16 P2 -178.3(3) . . . . ?
C15 C16 C17 C18 -3.5(5) . . . . ?
P2 C16 C17 C18 177.9(2) . . . . ?
C14 C13 C18 C17 3.9(5) . . . . ?
C3 C13 C18 C17 -171.5(3) . . . . ?
C16 C17 C18 C13 0.0(5) . . . . ?
C4 C5 C19 C20 -8.7(5) . . . . ?
C6 C5 C19 C20 170.6(3) . . . . ?
C4 C5 C19 C24 172.9(3) . . . . ?
C6 C5 C19 C24 -7.8(5) . . . . ?
C24 C19 C20 C21 -0.8(5) . . . . ?
C5 C19 C20 C21 -179.3(3) . . . . ?
C19 C20 C21 C22 0.0(6) . . . . ?
C20 C21 C22 C23 0.7(5) . . . . ?
C20 C21 C22 P3 -176.7(3) . . . . ?
C21 C22 C23 C24 -0.5(6) . . . . ?
P3 C22 C23 C24 176.9(3) . . . . ?
C22 C23 C24 C19 -0.3(6) . . . . ?
C20 C19 C24 C23 1.0(6) . . . . ?
C5 C19 C24 C23 179.4(4) . . . . ?
C11 C10 P1 O1 -166.6(3) . . . . ?
C9 C10 P1 O1 15.0(3) . . . . ?
C11 C10 P1 O3 -44.8(3) . . . . ?
C9 C10 P1 O3 136.8(3) . . . . ?
C11 C10 P1 O2 71.7(3) . . . . ?
C9 C10 P1 O2 -106.7(3) . . . . ?
C17 C16 P2 O6 -16.6(3) . . . . ?
C15 C16 P2 O6 164.8(3) . . . . ?
C17 C16 P2 O4 104.6(3) . . . . ?
C15 C16 P2 O4 -74.0(3) . . . . ?
C17 C16 P2 O5 -142.5(3) . . . . ?
C15 C16 P2 O5 38.9(3) . . . . ?
C23 C22 P3 O9 179.2(3) . . . . ?
C21 C22 P3 O9 -3.5(3) . . . . ?
C23 C22 P3 O7 57.9(3) . . . . ?
C21 C22 P3 O7 -124.8(3) . . . . ?
C23 C22 P3 O8 -56.1(3) . . . . ?
C21 C22 P3 O8 121.3(3) . . . . ?
