#------------------------------------------------------------------------------
#$Date: 2020-08-22 02:05:46 +0300 (Sat, 22 Aug 2020) $
#$Revision: 255555 $
#$URL: file:///home/coder/svn-repositories/cod/cif/4/13/52/4135201.cif $
#------------------------------------------------------------------------------
#
# This file is available in the Crystallography Open Database (COD),
# http://www.crystallography.net/
#
# All data on this site have been placed in the public domain by the
# contributors.
#
data_4135201
loop_
_publ_author_name
'Yan, Yong'
'Carrington, Elliot J.'
'P\'etuya, R\'emi'
'Whitehead, George F. S.'
'Verma, Ajay'
'Hylton, Rebecca K.'
'Tang, Chiu C.'
'Berry, Neil G.'
'Darling, George R.'
'Dyer, Matthew S.'
'Antypov, Dmytro'
'Katsoulidis, Alexandros P.'
'Rosseinsky, Matthew J.'
_publ_section_title
;
 Amino Acid Residues Determine the Response of Flexible Metal-Organic
 Frameworks to Guests.
;
_journal_name_full               'Journal of the American Chemical Society'
_journal_paper_doi               10.1021/jacs.0c03853
_journal_year                    2020
_chemical_absolute_configuration syn
_chemical_formula_moiety         'C7 H7 N3 O3 Zn, 0.95(C6 H6)'
_chemical_formula_sum            'C12.78 H12.78 N3 O3 Zn'
_chemical_formula_weight         321.78
_space_group_crystal_system      trigonal
_space_group_IT_number           146
_space_group_name_Hall           'R 3'
_space_group_name_H-M_alt        'R 3 :H'
_atom_sites_solution_hydrogens   geom
_audit_creation_date             2018-06-20
_audit_creation_method
;
Olex2 1.2
(compiled 2018.05.29 svn.r3508 for OlexSys, GUI svn.r5506)
;
_cell_angle_alpha                90
_cell_angle_beta                 90
_cell_angle_gamma                120
_cell_formula_units_Z            18
_cell_length_a                   28.1915(6)
_cell_length_b                   28.1915(6)
_cell_length_c                   10.2028(2)
_cell_measurement_reflns_used    18350
_cell_measurement_temperature    100
_cell_measurement_theta_max      27.4860
_cell_measurement_theta_min      2.1390
_cell_volume                     7022.4(3)
_computing_cell_refinement       'CrysAlisPro 1.171.38.46 (Rigaku OD, 2015)'
_computing_data_collection       'CrysAlisPro 1.171.38.46 (Rigaku OD, 2015)'
_computing_data_reduction        'CrysAlisPro 1.171.38.46 (Rigaku OD, 2015)'
_computing_molecular_graphics    'Olex2 (Dolomanov et al., 2009)'
_computing_publication_material  'Olex2 (Dolomanov et al., 2009)'
_computing_structure_refinement  'ShelXL (Sheldrick, 2015)'
_diffrn_ambient_temperature      100
_diffrn_detector                 'CCD plate'
_diffrn_measured_fraction_theta_full 0.998
_diffrn_measured_fraction_theta_max 0.997
_diffrn_measurement_details
;
List of Runs (angles in degrees, time in seconds):

  # Type    Start    End  Width  t~exp~   \w     \q     \k     \f   Frames
--------------------------------------------------------------------------
  1  \w   -110.00  15.00   1.00   10.00    --  -20.00 -68.00   0.00  125
  2  \w   -110.00  15.00   1.00   10.00    --  -20.00 -68.00 120.00  125
  3  \w   -110.00  15.00   1.00   10.00    --  -20.00 -68.00 240.00  125
  4  \w   -110.00  15.00   1.00   10.00    --  -20.00 -30.00  90.00  125
;
_diffrn_measurement_device       'abstract diffractometer'
_diffrn_measurement_device_type
'dtrek-CrysAlisPro-abstract goniometer imported rigaku-d*trek images'
_diffrn_measurement_method       '\w scans'
_diffrn_orient_matrix_type
'CrysAlisPro convention (1999,Acta A55,543-557)'
_diffrn_orient_matrix_UB_11      0.0059829000
_diffrn_orient_matrix_UB_12      0.0268343000
_diffrn_orient_matrix_UB_13      0.0169824000
_diffrn_orient_matrix_UB_21      0.0263812000
_diffrn_orient_matrix_UB_22      0.0108485000
_diffrn_orient_matrix_UB_23      -0.0283873000
_diffrn_orient_matrix_UB_31      -0.0105686000
_diffrn_orient_matrix_UB_32      0.0024178000
_diffrn_orient_matrix_UB_33      -0.0611611000
_diffrn_radiation_monochromator  graphite
_diffrn_radiation_probe          x-ray
_diffrn_radiation_type           MoK\a
_diffrn_radiation_wavelength     0.71073
_diffrn_reflns_av_R_equivalents  0.0317
_diffrn_reflns_av_unetI/netI     0.0246
_diffrn_reflns_Laue_measured_fraction_full 0.998
_diffrn_reflns_Laue_measured_fraction_max 0.997
_diffrn_reflns_limit_h_max       36
_diffrn_reflns_limit_h_min       -36
_diffrn_reflns_limit_k_max       36
_diffrn_reflns_limit_k_min       -36
_diffrn_reflns_limit_l_max       13
_diffrn_reflns_limit_l_min       -9
_diffrn_reflns_number            29061
_diffrn_reflns_point_group_measured_fraction_full 0.906
_diffrn_reflns_point_group_measured_fraction_max 0.877
_diffrn_reflns_theta_full        25.242
_diffrn_reflns_theta_max         27.518
_diffrn_reflns_theta_min         2.890
_diffrn_source                   'fine-focus sealed X-ray tube'
_diffrn_source_type              'Enhance (Mo) X-ray Source'
_exptl_absorpt_coefficient_mu    1.582
_exptl_absorpt_correction_T_max  1.00000
_exptl_absorpt_correction_T_min  0.82990
_exptl_absorpt_correction_type   multi-scan
_exptl_absorpt_process_details
;
CrysAlisPro 1.171.38.46 (Rigaku Oxford Diffraction, 2015)
Empirical absorption correction using spherical harmonics,
 implemented in SCALE3 ABSPACK scaling algorithm.
;
_exptl_crystal_colour            white
_exptl_crystal_colour_primary    white
_exptl_crystal_density_diffrn    1.370
_exptl_crystal_description       block
_exptl_crystal_F_000             2960
_exptl_crystal_preparation       'Solvent Exchnage in Benzene'
_exptl_crystal_size_max          0.26
_exptl_crystal_size_mid          0.12
_exptl_crystal_size_min          0.12
_refine_diff_density_max         0.796
_refine_diff_density_min         -0.522
_refine_diff_density_rms         0.098
_refine_ls_abs_structure_details
;
 Flack x determined using 2202 quotients [(I+)-(I-)]/[(I+)+(I-)]
 (Parsons, Flack and Wagner, Acta Cryst. B69 (2013) 249-259).
;
_refine_ls_abs_structure_Flack   0.004(8)
_refine_ls_extinction_method     none
_refine_ls_goodness_of_fit_ref   1.010
_refine_ls_hydrogen_treatment    constr
_refine_ls_matrix_type           full
_refine_ls_number_parameters     289
_refine_ls_number_reflns         6308
_refine_ls_number_restraints     6
_refine_ls_restrained_S_all      2.382
_refine_ls_R_factor_all          0.0528
_refine_ls_R_factor_gt           0.0477
_refine_ls_shift/su_max          0.001
_refine_ls_shift/su_mean         0.000
_refine_ls_structure_factor_coef Fsqd
_refine_ls_weighting_details
'w=1/[\s^2^(Fo^2^)+(0.1003P)^2^+14.4743P] where P=(Fo^2^+2Fc^2^)/3'
_refine_ls_weighting_scheme      calc
_refine_ls_wR_factor_gt          0.1360
_refine_ls_wR_factor_ref         0.1404
_reflns_Friedel_coverage         0.761
_reflns_Friedel_fraction_full    0.814
_reflns_Friedel_fraction_max     0.758
_reflns_number_gt                5802
_reflns_number_total             6308
_reflns_threshold_expression     'I > 2\s(I)'
_iucr_refine_instructions_details
;

    yy_znalapyr_benzene.res created by SHELXL-2014/7

TITL YY_ZnAlaPyr_benzene in R3
REM R3 (#146 in standard setting)
CELL 0.71073 28.191458 28.191458 10.202767 90 90 120
ZERR 18 0.000621 0.000621 0.000226 0 0 0
LATT -3
SYMM -Y,+X-Y,+Z
SYMM +Y-X,-X,+Z
SFAC C H N O Zn
UNIT 230.06 230.06 54 54 18
EQIV $1 1+Y-X,1-X,+Z
EQIV $2 1-Y,+X-Y,+Z
DFIX 1.4 C27 C28
DFIX 2.4 C27 C27
DFIX 2.4 C28 C28
DFIX 2.8 C28 C27_$1
DFIX 2.8 C27 C28_$2
 
L.S. 16
PLAN  20
SIZE 0.26 0.12 0.12
TEMP -173.15
BOND
fmap 2
acta
OMIT 0 1 -1
OMIT -1 1 1
OMIT -2 2 -1
OMIT 0 2 1
REM <olex2.extras>
REM <HklSrc "%.\\YY_ZnAlaPyr_benzene.hkl">
REM </olex2.extras>
 
WGHT    0.100300   14.474297
FVAR       2.02447   0.74681   0.90797
ZN1   5    0.309269    0.314202    0.864661    11.00000    0.04848    0.04023 =
         0.00900   -0.00065   -0.00074    0.02506
ZN2   5    0.641366    0.662674    1.038679    11.00000    0.03845    0.04364 =
         0.01042   -0.00121   -0.00095    0.02043
N4    3    0.628555    0.696804    0.885851    11.00000    0.04151    0.04228 =
         0.00842   -0.00242    0.00053    0.01977
O6    4    0.210628    0.422287    0.602304    11.00000    0.05005    0.08665 =
         0.01301   -0.00436   -0.00348    0.03747
O4    4    0.280380    0.364375    0.845463    11.00000    0.04393    0.04208 =
         0.01822    0.00354    0.00227    0.02567
O2    4    0.613248    0.583927    1.012173    11.00000    0.05355    0.04333 =
         0.02209    0.00259    0.01091    0.02484
C4    1    0.533834    0.450026    0.891179    11.00000    0.05371    0.04280 =
         0.01659    0.00339    0.00832    0.02906
N2    3    0.295274    0.264910    0.716442    11.00000    0.05696    0.04823 =
         0.01047   -0.00145   -0.00138    0.02942
N6    3    0.237519    0.433565    0.811708    11.00000    0.03916    0.03973 =
         0.01229    0.00124   -0.00055    0.01978
AFIX  43
H6    2    0.228697    0.433242    0.894570    11.00000   -1.20000
AFIX   0
C11   1    0.199583    0.418224    0.719338    11.00000    0.04405    0.04945 =
         0.01352   -0.00306    0.00002    0.02713
N1    3    0.386155    0.360270    0.920378    11.00000    0.04359    0.04837 =
         0.00873    0.00227    0.00315    0.02515
C13   1    0.302967    0.402456    0.760573    11.00000    0.03487    0.03811 =
         0.01376   -0.00283   -0.00352    0.01742
C6    1    0.636312    0.566974    0.935004    11.00000    0.03901    0.04652 =
         0.01430   -0.00022   -0.00029    0.02466
C12   1    0.293998    0.451002    0.775442    11.00000    0.03898    0.03428 =
         0.01964    0.00282    0.00096    0.01437
AFIX  13
H12   2    0.302813    0.471467    0.690631    11.00000   -1.20000
AFIX   0
O1    4    0.593658    0.667821    1.173091    11.00000    0.04133    0.04183 =
         0.01708   -0.00147    0.00384    0.01761
N3    3    0.571005    0.471024    0.990371    11.00000    0.04640    0.04225 =
         0.02006    0.00744    0.00623    0.02237
AFIX  43
H3    2    0.559685    0.460035    1.070924    11.00000   -1.20000
AFIX   0
C8    1    0.606210    0.728620    0.890612    11.00000    0.03994    0.04111 =
         0.01338   -0.00352   -0.00073    0.02032
AFIX  43
H8    2    0.594058    0.737993    0.968086    11.00000   -1.20000
AFIX   0
O3    4    0.547502    0.460580    0.776118    11.00000    0.05287    0.06214 =
         0.01575    0.01289    0.00824    0.02139
C1    1    0.431383    0.390902    0.851048    11.00000    0.04931    0.05282 =
         0.00742    0.00447    0.00733    0.02978
AFIX  43
H1    2    0.432393    0.395844    0.758779    11.00000   -1.20000
AFIX   0
C5    1    0.628907    0.511013    0.969362    11.00000    0.04335    0.04654 =
         0.03807    0.00577    0.00074    0.02500
AFIX  13
H5    2    0.645545    0.516379    1.058552    11.00000   -1.20000
AFIX   0
C2    1    0.273124    0.211088    0.723495    11.00000    0.05685    0.04752 =
         0.01168   -0.00031    0.00000    0.03323
AFIX  43
H2    2    0.260446    0.189914    0.801400    11.00000   -1.20000
AFIX   0
C3    1    0.476293    0.414310    0.931552    11.00000    0.04934    0.04040 =
         0.01311    0.00317    0.00833    0.02495
O5    4    0.333423    0.403830    0.670043    11.00000    0.04139    0.04942 =
         0.01216   -0.00088   -0.00014    0.01999
C10   1    0.603324    0.746204    0.763967    11.00000    0.04596    0.03924 =
         0.01390   -0.00093    0.00353    0.02166
N5    3    0.640759    0.692507    0.758899    11.00000    0.07037    0.05523 =
         0.01198   -0.00006    0.00544    0.04091
C9    1    0.624999    0.721112    0.685711    11.00000    0.09147    0.06341 =
         0.01146    0.00881    0.01625    0.05506
AFIX  43
H9    2    0.628068    0.724065    0.592972    11.00000   -1.20000
AFIX   0
 
PART 3
C28   1    0.635239    0.358804    0.744080    10.75000    0.08838
AFIX  43
H28   2    0.614396    0.376825    0.746437    10.75000   -1.20000
AFIX   0
C27   1    0.693879    0.390011    0.742348    10.75000    0.08961
AFIX  43
H27   2    0.711901    0.428875    0.739954    10.75000   -1.20000
AFIX  66
 
PART 0
PART 1
C25   1    0.469702    0.599214    0.934542    21.00000    0.13173
AFIX  43
H25   2    0.456850    0.599662    1.020352    21.00000   -1.20000
AFIX  65
C24   1    0.492238    0.566317    0.906965    21.00000    0.12037
AFIX  43
H24   2    0.494788    0.544282    0.973927    21.00000   -1.20000
AFIX  65
C23   1    0.511042    0.565662    0.781413    21.00000    0.09394
AFIX  43
H23   2    0.526445    0.543178    0.762566    21.00000   -1.20000
AFIX  65
C22   1    0.507311    0.597903    0.683437    21.00000    0.11041
AFIX  43
H22   2    0.520163    0.597455    0.597628    21.00000   -1.20000
AFIX  65
C21   1    0.484776    0.630801    0.711012    21.00000    0.13121
AFIX  43
H21   2    0.482226    0.652836    0.644049    21.00000   -1.20000
AFIX  65
C26   1    0.465971    0.631456    0.836564    21.00000    0.08753
AFIX  43
H26   2    0.450569    0.653940    0.855410    21.00000   -1.20000
AFIX  66
 
PART 0
PART 2
C18   1    0.399254    0.524710    0.465293    31.00000    0.13632
AFIX  43
H18   2    0.395775    0.531198    0.555202    31.00000   -1.20000
AFIX  65
C19   1    0.435393    0.507205    0.427608    31.00000    0.15065
AFIX  43
H19   2    0.456613    0.501729    0.491763    31.00000   -1.20000
AFIX  65
C20   1    0.440483    0.497711    0.296057    31.00000    0.09603
AFIX  43
H20   2    0.465182    0.485748    0.270302    31.00000   -1.20000
AFIX  65
C15   1    0.409434    0.505723    0.202189    31.00000    0.11174
AFIX  43
H15   2    0.412913    0.499234    0.112280    31.00000   -1.20000
AFIX  65
C16   1    0.373295    0.523228    0.239872    31.00000    0.08702
AFIX  43
H16   2    0.352075    0.528703    0.175717    31.00000   -1.20000
AFIX  65
C17   1    0.368205    0.532721    0.371423    31.00000    0.12703
AFIX  43
H17   2    0.343505    0.544685    0.397177    31.00000   -1.20000
AFIX   0
 
PART 0
C14   1    0.333069    0.489009    0.882740    11.00000    0.04717    0.03629 =
         0.04908   -0.00914   -0.00555    0.01233
AFIX 137
H14A  2    0.328683    0.521214    0.891792    11.00000   -1.50000
H14B  2    0.370980    0.500722    0.858326    11.00000   -1.50000
H14C  2    0.324368    0.469237    0.966267    11.00000   -1.50000
AFIX   0
C7    1    0.659298    0.492077    0.890353    11.00000    0.07597    0.07812 =
         0.07057    0.02834    0.03520    0.05382
AFIX 137
H7A   2    0.641899    0.480317    0.804208    11.00000   -1.50000
H7B   2    0.659329    0.461200    0.934396    11.00000   -1.50000
H7C   2    0.697092    0.521988    0.879356    11.00000   -1.50000
AFIX   0
HKLF 4
 
REM  YY_ZnAlaPyr_benzene in R3
REM R1 =  0.0477 for    5802 Fo > 4sig(Fo)  and  0.0528 for all    6308 data
REM    289 parameters refined using      6 restraints
 
END  
     
WGHT      0.0950     14.1735 

REM Highest difference peak  0.796,  deepest hole -0.522,  1-sigma level  0.098
Q1    1   0.4972  0.5964  0.8722  11.00000  0.05    0.80
Q2    1   0.6671  0.5089  1.0515  11.00000  0.05    0.79
Q3    1   0.3333  0.6667  0.4638  10.33333  0.05    0.74
Q4    1   0.4467  0.5135  0.1781  11.00000  0.05    0.60
Q5    1   0.3097  0.6177  0.4498  11.00000  0.05    0.60
Q6    1   0.3944  0.4888  0.3962  11.00000  0.05    0.58
Q7    1   0.4018  0.5364  0.1596  11.00000  0.05    0.55
Q8    1   0.3333  0.6667  0.6972  10.33333  0.05    0.52
Q9    1   0.4829  0.5605  0.6564  11.00000  0.05    0.51
Q10   1   0.5078  0.5865  0.7796  11.00000  0.05    0.49
Q11   1   0.4689  0.5996  0.6082  11.00000  0.05    0.45
Q12   1   0.4793  0.5251  0.1604  11.00000  0.05    0.44
Q13   1   0.3922  0.5066  0.2402  11.00000  0.05    0.44
Q14   1   0.4677  0.5163  0.2484  11.00000  0.05    0.43
Q15   1   0.4173  0.4931  0.3165  11.00000  0.05    0.43
Q16   1   0.6667  0.3333  0.7595  10.33333  0.05    0.41
Q17   1   0.2977  0.5833  0.6207  11.00000  0.05    0.39
Q18   1   0.6667  0.3333  0.5173  10.33333  0.05    0.38
Q19   1   0.2621  0.4334  0.6941  11.00000  0.05    0.38
Q20   1   0.2215  0.4110  0.8938  11.00000  0.05    0.38

  REM The information below was added by Olex2.
  REM
  REM R1 = 0.0477 for 5802 Fo > 4sig(Fo) and 0.0528 for all 29079 data
  REM n/a parameters refined using n/a restraints
  REM Highest difference peak 0.80, deepest hole -0.52
  REM Mean Shift 0, Max Shift 0.001.

  REM +++ Tabular Listing of Refinement Information +++
  REM R1_all = 0.0528
  REM R1_gt = 0.0477
  REM wR_ref = 0.1404
  REM GOOF = 1.010
  REM Shift_max = 0.001
  REM Shift_mean = 0
  REM Reflections_all = 29079
  REM Reflections_gt = 5802
  REM Parameters = n/a
  REM Hole = -0.52
  REM Peak = 0.80
  REM Flack = 0.004(8)

  
;
_cod_data_source_file            ZnAlaPyr_Benzene_100K.cif
_cod_data_source_block           ZnAlaPyr_Benzene_100K
_cod_original_sg_symbol_H-M      'R 3'
_cod_database_code               4135201
_shelx_shelxl_version_number     2014/7
_chemical_oxdiff_formula         'Zn C7 H7 N3 O3'
_shelx_space_group_comment
;
The symmetry employed for this shelxl refinement is uniquely defined
by the following loop, which should always be used as a source of
symmetry information in preference to the above space-group names.
They are only intended as comments.
;
_shelx_estimated_absorpt_t_max   0.833
_shelx_estimated_absorpt_t_min   0.684
_reflns_odcompleteness_completeness 99.87
_reflns_odcompleteness_iscentric 1
_reflns_odcompleteness_theta     26.32
_olex2_refinement_description
;
1. Fixed Uiso
 At 1.2 times of:
  All C(H) groups, All N(H) groups
 At 1.5 times of:
  All C(H,H,H) groups
2. Restrained distances
 C27-C28
 1.4 with sigma of 0.02
 C27-C27
 2.4 with sigma of 0.02
 C28-C28
 2.4 with sigma of 0.02
 C28-C27_$1
 2.8 with sigma of 0.02
 C27-C28_$2
 2.8 with sigma of 0.02
3. Others
 Sof(C25)=Sof(H25)=Sof(C24)=Sof(H24)=Sof(C23)=Sof(H23)=Sof(C22)=Sof(H22)=
 Sof(C21)=Sof(H21)=Sof(C26)=Sof(H26)=FVAR(1)
 Sof(C18)=Sof(H18)=Sof(C19)=Sof(H19)=Sof(C20)=Sof(H20)=Sof(C15)=Sof(H15)=
 Sof(C16)=Sof(H16)=Sof(C17)=Sof(H17)=FVAR(2)
 Fixed Sof: C28(0.75) H28(0.75) C27(0.75) H27(0.75)
4.a Ternary CH refined with riding coordinates:
 C12(H12), C5(H5)
4.b Aromatic/amide H refined with riding coordinates:
 N6(H6), N3(H3), C8(H8), C1(H1), C2(H2), C9(H9), C28(H28), C27(H27), C25(H25),
 C24(H24), C23(H23), C22(H22), C21(H21), C26(H26), C18(H18), C19(H19), C20(H20),
  C15(H15), C16(H16), C17(H17)
4.c Fitted hexagon refined as free rotating group:
 C25(C24,C23,C22,C21,C26), C18(C19,C20,C15,C16,C17)
4.d Idealised Me refined as rotating group:
 C14(H14A,H14B,H14C), C7(H7A,H7B,H7C)
;
_olex2_submission_special_instructions 'No special instructions were received'
_oxdiff_exptl_absorpt_empirical_details
;
Empirical correction (ABSPACK) includes:
- Absorption correction using spherical harmonics
- Frame scaling
- Detector area scaling
;
_oxdiff_exptl_absorpt_empirical_full_max 1.404
_oxdiff_exptl_absorpt_empirical_full_min 0.838
loop_
_space_group_symop_operation_xyz
'x, y, z'
'-y, x-y, z'
'-x+y, -x, z'
'x+2/3, y+1/3, z+1/3'
'-y+2/3, x-y+1/3, z+1/3'
'-x+y+2/3, -x+1/3, z+1/3'
'x+1/3, y+2/3, z+2/3'
'-y+1/3, x-y+2/3, z+2/3'
'-x+y+1/3, -x+2/3, z+2/3'
loop_
_atom_site_label
_atom_site_type_symbol
_atom_site_fract_x
_atom_site_fract_y
_atom_site_fract_z
_atom_site_U_iso_or_equiv
_atom_site_adp_type
_atom_site_occupancy
_atom_site_site_symmetry_order
_atom_site_calc_flag
_atom_site_refinement_flags_posn
_atom_site_refinement_flags_adp
_atom_site_refinement_flags_occupancy
_atom_site_disorder_assembly
_atom_site_disorder_group
Zn1 Zn 0.30927(3) 0.31420(3) 0.86466(5) 0.03129(19) Uani 1 1 d . . . . .
Zn2 Zn 0.64137(3) 0.66267(3) 1.03868(5) 0.03088(19) Uani 1 1 d . . . . .
N4 N 0.6286(2) 0.6968(2) 0.8859(4) 0.0313(11) Uani 1 1 d . . . . .
O6 O 0.2106(2) 0.4223(2) 0.6023(4) 0.0484(13) Uani 1 1 d . . . . .
O4 O 0.28038(18) 0.36438(17) 0.8455(4) 0.0329(9) Uani 1 1 d . . . . .
O2 O 0.6132(2) 0.58393(19) 1.0122(4) 0.0394(10) Uani 1 1 d . . . . .
C4 C 0.5338(3) 0.4500(3) 0.8912(6) 0.0355(13) Uani 1 1 d . . . . .
N2 N 0.2953(2) 0.2649(2) 0.7164(5) 0.0372(12) Uani 1 1 d . . . . .
N6 N 0.2375(2) 0.4336(2) 0.8117(5) 0.0304(10) Uani 1 1 d . . . . .
H6 H 0.2287 0.4332 0.8946 0.036 Uiso 1 1 calc R . . . .
C11 C 0.1996(3) 0.4182(3) 0.7193(5) 0.0340(13) Uani 1 1 d . . . . .
N1 N 0.3862(2) 0.3603(2) 0.9204(5) 0.0326(11) Uani 1 1 d . . . . .
C13 C 0.3030(2) 0.4025(2) 0.7606(5) 0.0293(11) Uani 1 1 d . . . . .
C6 C 0.6363(2) 0.5670(3) 0.9350(6) 0.0318(12) Uani 1 1 d . . . . .
C12 C 0.2940(2) 0.4510(2) 0.7754(6) 0.0327(12) Uani 1 1 d . . . . .
H12 H 0.3028 0.4715 0.6906 0.039 Uiso 1 1 calc R . . . .
O1 O 0.59366(18) 0.66782(18) 1.1731(4) 0.0348(9) Uani 1 1 d . . . . .
N3 N 0.5710(2) 0.4710(2) 0.9904(5) 0.0361(11) Uani 1 1 d . . . . .
H3 H 0.5597 0.4600 1.0709 0.043 Uiso 1 1 calc R . . . .
C8 C 0.6062(2) 0.7286(2) 0.8906(6) 0.0315(12) Uani 1 1 d . . . . .
H8 H 0.5941 0.7380 0.9681 0.038 Uiso 1 1 calc R . . . .
O3 O 0.5475(2) 0.4606(2) 0.7761(4) 0.0469(12) Uani 1 1 d . . . . .
C1 C 0.4314(3) 0.3909(3) 0.8510(5) 0.0346(13) Uani 1 1 d . . . . .
H1 H 0.4324 0.3958 0.7588 0.042 Uiso 1 1 calc R . . . .
C5 C 0.6289(3) 0.5110(3) 0.9694(7) 0.0415(15) Uani 1 1 d . . . . .
H5 H 0.6455 0.5164 1.0586 0.050 Uiso 1 1 calc R . . . .
C2 C 0.2731(3) 0.2111(3) 0.7235(6) 0.0355(13) Uani 1 1 d . . . . .
H2 H 0.2604 0.1899 0.8014 0.043 Uiso 1 1 calc R . . . .
C3 C 0.4763(3) 0.4143(3) 0.9316(5) 0.0332(13) Uani 1 1 d . . . . .
O5 O 0.33342(18) 0.40383(19) 0.6700(4) 0.0355(10) Uani 1 1 d . . . . .
C10 C 0.6033(3) 0.7462(3) 0.7640(6) 0.0329(12) Uani 1 1 d . . . . .
N5 N 0.6408(3) 0.6925(2) 0.7589(5) 0.0416(13) Uani 1 1 d . . . . .
C9 C 0.6250(4) 0.7211(3) 0.6857(6) 0.0482(19) Uani 1 1 d . . . . .
H9 H 0.6281 0.7241 0.5930 0.058 Uiso 1 1 calc R . . . .
C28 C 0.6352(6) 0.3588(7) 0.7441(18) 0.088(4) Uiso 0.75 1 d D . P A 3
H28 H 0.6144 0.3768 0.7464 0.106 Uiso 0.75 1 calc R . P A 3
C27 C 0.6939(6) 0.3900(6) 0.7423(17) 0.090(4) Uiso 0.75 1 d D . P A 3
H27 H 0.7119 0.4289 0.7400 0.108 Uiso 0.75 1 calc R . P A 3
C25 C 0.4697(6) 0.5992(6) 0.9345(11) 0.132(8) Uiso 0.747(18) 1 d . . P B 1
H25 H 0.4568 0.5997 1.0204 0.158 Uiso 0.747(18) 1 calc R . P B 1
C24 C 0.4922(6) 0.5663(6) 0.9070(12) 0.120(7) Uiso 0.747(18) 1 d G . P B 1
H24 H 0.4948 0.5443 0.9739 0.144 Uiso 0.747(18) 1 calc R . P B 1
C23 C 0.5110(5) 0.5657(5) 0.7814(14) 0.094(5) Uiso 0.747(18) 1 d G . P B 1
H23 H 0.5264 0.5432 0.7626 0.113 Uiso 0.747(18) 1 calc R . P B 1
C22 C 0.5073(5) 0.5979(6) 0.6834(11) 0.110(7) Uiso 0.747(18) 1 d G . P B 1
H22 H 0.5202 0.5975 0.5976 0.132 Uiso 0.747(18) 1 calc R . P B 1
C21 C 0.4848(6) 0.6308(6) 0.7110(12) 0.131(8) Uiso 0.747(18) 1 d G . P B 1
H21 H 0.4822 0.6528 0.6440 0.157 Uiso 0.747(18) 1 calc R . P B 1
C26 C 0.4660(5) 0.6315(5) 0.8366(13) 0.088(5) Uiso 0.747(18) 1 d G . P B 1
H26 H 0.4506 0.6539 0.8554 0.105 Uiso 0.747(18) 1 calc R . P B 1
C18 C 0.3993(6) 0.5247(6) 0.4653(8) 0.136(7) Uiso 0.908(18) 1 d . . P C 2
H18 H 0.3958 0.5312 0.5552 0.164 Uiso 0.908(18) 1 calc R . P C 2
C19 C 0.4354(5) 0.5072(6) 0.4276(11) 0.151(8) Uiso 0.908(18) 1 d G . P C 2
H19 H 0.4566 0.5017 0.4918 0.181 Uiso 0.908(18) 1 calc R . P C 2
C20 C 0.4405(4) 0.4977(5) 0.2961(12) 0.096(4) Uiso 0.908(18) 1 d G . P C 2
H20 H 0.4652 0.4857 0.2703 0.115 Uiso 0.908(18) 1 calc R . P C 2
C15 C 0.4094(4) 0.5057(4) 0.2022(9) 0.112(5) Uiso 0.908(18) 1 d G . P C 2
H15 H 0.4129 0.4992 0.1123 0.134 Uiso 0.908(18) 1 calc R . P C 2
C16 C 0.3733(4) 0.5232(4) 0.2399(10) 0.087(4) Uiso 0.908(18) 1 d G . P C 2
H16 H 0.3521 0.5287 0.1757 0.104 Uiso 0.908(18) 1 calc R . P C 2
C17 C 0.3682(5) 0.5327(5) 0.3714(11) 0.127(6) Uiso 0.908(18) 1 d G . P C 2
H17 H 0.3435 0.5447 0.3972 0.152 Uiso 0.908(18) 1 calc R . P C 2
C14 C 0.3331(3) 0.4890(3) 0.8827(8) 0.0480(17) Uani 1 1 d . . . . .
H14A H 0.3287 0.5212 0.8918 0.072 Uiso 1 1 calc GR . . . .
H14B H 0.3710 0.5007 0.8583 0.072 Uiso 1 1 calc GR . . . .
H14C H 0.3244 0.4692 0.9663 0.072 Uiso 1 1 calc GR . . . .
C7 C 0.6593(4) 0.4921(4) 0.8904(10) 0.068(3) Uani 1 1 d . . . . .
H7A H 0.6419 0.4803 0.8042 0.102 Uiso 1 1 calc GR . . . .
H7B H 0.6593 0.4612 0.9344 0.102 Uiso 1 1 calc GR . . . .
H7C H 0.6971 0.5220 0.8794 0.102 Uiso 1 1 calc GR . . . .
loop_
_atom_site_aniso_label
_atom_site_aniso_U_11
_atom_site_aniso_U_22
_atom_site_aniso_U_33
_atom_site_aniso_U_23
_atom_site_aniso_U_13
_atom_site_aniso_U_12
Zn1 0.0485(4) 0.0402(4) 0.0090(3) -0.0007(3) -0.0007(3) 0.0251(3)
Zn2 0.0384(4) 0.0436(4) 0.0104(4) -0.0012(3) -0.0010(3) 0.0204(3)
N4 0.042(3) 0.042(3) 0.008(2) -0.0024(18) 0.0005(18) 0.020(2)
O6 0.050(3) 0.087(4) 0.013(2) -0.004(2) -0.0035(18) 0.037(3)
O4 0.044(2) 0.042(2) 0.018(2) 0.0035(17) 0.0023(17) 0.0257(19)
O2 0.054(3) 0.043(2) 0.022(2) 0.0026(18) 0.011(2) 0.025(2)
C4 0.054(4) 0.043(3) 0.017(3) 0.003(2) 0.008(2) 0.029(3)
N2 0.057(3) 0.048(3) 0.010(2) -0.001(2) -0.001(2) 0.029(3)
N6 0.039(3) 0.040(3) 0.012(2) 0.0012(19) -0.0006(18) 0.020(2)
C11 0.044(3) 0.049(3) 0.014(3) -0.003(2) 0.000(2) 0.027(3)
N1 0.044(3) 0.048(3) 0.009(2) 0.0023(19) 0.0031(19) 0.025(2)
C13 0.035(3) 0.038(3) 0.014(3) -0.003(2) -0.004(2) 0.017(2)
C6 0.039(3) 0.047(3) 0.014(3) 0.000(2) 0.000(2) 0.025(3)
C12 0.039(3) 0.034(3) 0.020(3) 0.003(2) 0.001(2) 0.014(2)
O1 0.041(2) 0.042(2) 0.017(2) -0.0015(17) 0.0038(16) 0.0176(19)
N3 0.046(3) 0.042(3) 0.020(3) 0.007(2) 0.006(2) 0.022(2)
C8 0.040(3) 0.041(3) 0.013(3) -0.004(2) -0.001(2) 0.020(3)
O3 0.053(3) 0.062(3) 0.016(2) 0.013(2) 0.0082(19) 0.021(2)
C1 0.049(3) 0.053(4) 0.007(3) 0.004(2) 0.007(2) 0.030(3)
C5 0.043(3) 0.047(4) 0.038(4) 0.006(3) 0.001(3) 0.025(3)
C2 0.057(4) 0.048(3) 0.012(3) 0.000(2) 0.000(2) 0.033(3)
C3 0.049(3) 0.040(3) 0.013(3) 0.003(2) 0.008(2) 0.025(3)
O5 0.041(2) 0.049(2) 0.0122(19) -0.0009(17) -0.0001(17) 0.0200(19)
C10 0.046(3) 0.039(3) 0.014(3) -0.001(2) 0.004(2) 0.022(3)
N5 0.070(4) 0.055(3) 0.012(2) 0.000(2) 0.005(2) 0.041(3)
C9 0.091(6) 0.063(4) 0.011(3) 0.009(3) 0.016(3) 0.055(4)
C14 0.047(4) 0.036(3) 0.049(5) -0.009(3) -0.006(3) 0.012(3)
C7 0.076(6) 0.078(6) 0.071(6) 0.028(5) 0.035(5) 0.054(5)
loop_
_atom_type_symbol
_atom_type_description
_atom_type_scat_dispersion_real
_atom_type_scat_dispersion_imag
_atom_type_scat_source
C C 0.0033 0.0016 'International Tables Vol C Tables 4.2.6.8 and 6.1.1.4'
H H 0.0000 0.0000 'International Tables Vol C Tables 4.2.6.8 and 6.1.1.4'
N N 0.0061 0.0033 'International Tables Vol C Tables 4.2.6.8 and 6.1.1.4'
O O 0.0106 0.0060 'International Tables Vol C Tables 4.2.6.8 and 6.1.1.4'
Zn Zn 0.2839 1.4301 'International Tables Vol C Tables 4.2.6.8 and 6.1.1.4'
loop_
_geom_angle_atom_site_label_1
_geom_angle_atom_site_label_2
_geom_angle_atom_site_label_3
_geom_angle
_geom_angle_site_symmetry_1
_geom_angle_site_symmetry_3
_geom_angle_publ_flag
O4 Zn1 N1 105.6(2) . . ?
O4 Zn1 O5 103.68(18) . 5 ?
N2 Zn1 O4 115.2(2) . . ?
N2 Zn1 N1 117.1(2) . . ?
N2 Zn1 O5 102.1(2) . 5 ?
N1 Zn1 O5 112.5(2) . 5 ?
N4 Zn2 O2 112.1(2) . . ?
N4 Zn2 O1 102.5(2) . . ?
N4 Zn2 N5 116.4(2) . 6_565 ?
O2 Zn2 O1 105.86(18) . . ?
O2 Zn2 N5 104.9(2) . 6_565 ?
N5 Zn2 O1 114.9(2) 6_565 . ?
C8 N4 Zn2 124.6(4) . . ?
C8 N4 N5 108.7(5) . . ?
N5 N4 Zn2 126.7(4) . . ?
C13 O4 Zn1 117.5(4) . . ?
C6 O2 Zn2 121.4(4) . . ?
N3 C4 C3 115.7(5) . . ?
O3 C4 N3 121.8(6) . . ?
O3 C4 C3 122.5(6) . . ?
N1 N2 Zn1 125.7(4) 9_554 . ?
C2 N2 Zn1 125.8(4) . . ?
C2 N2 N1 108.5(5) . 9_554 ?
C11 N6 C12 119.7(5) . . ?
O6 C11 N6 122.5(6) . . ?
O6 C11 C10 120.9(6) . 3_565 ?
N6 C11 C10 116.6(5) . 3_565 ?
N2 N1 Zn1 121.9(4) 5 . ?
C1 N1 Zn1 130.9(4) . . ?
C1 N1 N2 107.1(5) . 5 ?
O4 C13 C12 116.9(5) . . ?
O5 C13 O4 125.1(6) . . ?
O5 C13 C12 117.9(5) . . ?
O2 C6 C5 114.8(6) . . ?
O1 C6 O2 126.0(6) 8_654 . ?
O1 C6 C5 119.1(6) 8_654 . ?
N6 C12 C13 111.5(5) . . ?
N6 C12 C14 109.5(5) . . ?
C13 C12 C14 108.3(5) . . ?
C6 O1 Zn2 139.1(4) 6_565 . ?
C4 N3 C5 123.1(5) . . ?
N4 C8 C10 109.6(5) . . ?
N1 C1 C3 110.4(5) . . ?
N3 C5 C6 110.7(5) . . ?
C7 C5 C6 116.7(6) . . ?
C7 C5 N3 115.6(7) . . ?
N2 C2 C3 109.1(6) . 9_554 ?
C1 C3 C4 126.6(5) . . ?
C1 C3 C2 104.8(6) . 5 ?
C2 C3 C4 128.5(6) 5 . ?
C13 O5 Zn1 141.5(4) . 9_554 ?
C8 C10 C11 129.9(5) . 2_665 ?
C9 C10 C11 126.8(6) . 2_665 ?
C9 C10 C8 103.4(6) . . ?
N4 N5 Zn2 122.4(4) . 8_654 ?
C9 N5 Zn2 129.7(4) . 8_654 ?
C9 N5 N4 107.7(5) . . ?
N5 C9 C10 110.5(6) . . ?
C27 C28 C27 119.4(18) 2_655 . ?
C28 C27 C28 120.5(18) 3_665 . ?
C24 C25 C26 120.0 . . ?
C25 C24 C23 120.0 . . ?
C22 C23 C24 120.0 . . ?
C23 C22 C21 120.0 . . ?
C22 C21 C26 120.0 . . ?
C21 C26 C25 120.0 . . ?
C19 C18 C17 120.0 . . ?
C18 C19 C20 120.0 . . ?
C15 C20 C19 120.0 . . ?
C20 C15 C16 120.0 . . ?
C17 C16 C15 120.0 . . ?
C16 C17 C18 120.0 . . ?
loop_
_geom_bond_atom_site_label_1
_geom_bond_atom_site_label_2
_geom_bond_distance
_geom_bond_site_symmetry_2
_geom_bond_publ_flag
Zn1 O4 1.963(4) . ?
Zn1 N2 1.956(5) . ?
Zn1 N1 1.973(6) . ?
Zn1 O5 1.978(4) 5 ?
Zn2 N4 1.958(5) . ?
Zn2 O2 1.967(5) . ?
Zn2 O1 1.976(4) . ?
Zn2 N5 1.974(6) 6_565 ?
N4 C8 1.330(8) . ?
N4 N5 1.361(7) . ?
O6 C11 1.225(7) . ?
O4 C13 1.275(7) . ?
O2 C6 1.258(7) . ?
C4 N3 1.361(9) . ?
C4 O3 1.225(7) . ?
C4 C3 1.477(9) . ?
N2 N1 1.380(7) 9_554 ?
N2 C2 1.323(9) . ?
N6 C11 1.325(8) . ?
N6 C12 1.460(8) . ?
C11 C10 1.470(9) 3_565 ?
N1 N2 1.380(7) 5 ?
N1 C1 1.331(8) . ?
C13 C12 1.519(9) . ?
C13 O5 1.248(7) . ?
C6 O1 1.244(7) 8_654 ?
C6 C5 1.525(9) . ?
C12 C14 1.543(9) . ?
O1 C6 1.244(7) 6_565 ?
N3 C5 1.463(9) . ?
C8 C10 1.401(8) . ?
C1 C3 1.370(9) . ?
C5 C7 1.458(11) . ?
C2 C3 1.396(8) 9_554 ?
C3 C2 1.396(8) 5 ?
O5 Zn1 1.978(4) 9_554 ?
C10 C11 1.470(9) 2_665 ?
C10 C9 1.394(9) . ?
N5 Zn2 1.974(6) 8_654 ?
N5 C9 1.328(9) . ?
C28 C27 1.343(19) 2_655 ?
C28 C27 1.433(17) . ?
C27 C28 1.343(19) 3_665 ?
C25 C24 1.3900 . ?
C25 C26 1.3900 . ?
C24 C23 1.3900 . ?
C23 C22 1.3900 . ?
C22 C21 1.3900 . ?
C21 C26 1.3900 . ?
C18 C19 1.3900 . ?
C18 C17 1.3900 . ?
C19 C20 1.3900 . ?
C20 C15 1.3900 . ?
C15 C16 1.3900 . ?
C16 C17 1.3900 . ?
loop_
_refln_index_h
_refln_index_k
_refln_index_l
_refln_F_squared_meas
_refln_F_squared_sigma
_refln_scale_group_code
0 0 -6 648890 5006.53 4
0 0 -3 16933.4 711.238 2
0 0 -3 14020.2 563.244 4
0 0 3 15515.7 692.484 2
0 0 3 16032.5 575.051 4
0 0 6 698463 6176.38 2
0 0 6 698738 5240.77 4
0 0 9 1854.42 588.838 4
0 0 9 3244.82 875.921 2
0 0 9 2113.7 312.902 3
0 0 9 2343.42 447.893 3
0 0 12 116597 3838.91 2
0 0 12 117520 3226.63 4
0 1 -7 1375.58 433.742 4
-1 0 -7 723.6 411.107 4
0 1 -4 10091.6 695.003 2
1 -1 -4 9454.56 682.974 2
0 1 -4 9953.94 531.478 4
-1 0 -4 9819.03 545.334 4
-1 0 -4 9966.76 690.577 2
1 -1 -4 9264.84 595.347 4
1 -1 -1 456.835 112.201 4
0 1 -1 517.856 111.304 2
1 -1 -1 232.25 136.815 2
0 1 2 173546 1828.04 2
-1 0 2 175475 1741.8 2
-1 0 2 175116 1559.72 4
1 -1 2 176287 1313.5 4
1 -1 2 174897 1680.58 2
0 1 2 172783 1569.32 4
0 1 5 9129.74 888.038 2
1 -1 5 10174.6 863.074 2
0 1 5 8989.32 654.656 4
-1 0 5 9404.29 392.217 3
1 -1 5 9891.57 490.591 3
1 -1 5 9421.37 616.32 4
-1 0 5 10034.3 508.835 3
-1 0 5 9390.69 824.876 2
-1 0 5 9550 645.474 4
0 1 5 9895.2 404.52 3
0 1 8 2746.35 446.397 3
1 -1 8 3984.68 783.267 2
-1 0 8 3234.31 298.817 3
-1 0 8 3591.88 794.266 2
0 1 8 3735.39 829.275 2
1 -1 8 3035.3 372.317 3
1 -1 8 3267.83 574.634 3
-1 0 8 4175.14 652.567 4
-1 0 8 3775.64 419.109 3
1 -1 8 3834.44 596.713 4
0 1 8 3498.02 325.565 3
0 1 8 3679.87 652.025 4
0 1 11 1013.41 673.27 4
1 -1 11 488.305 828.821 2
-1 0 11 698.318 870.912 2
0 1 11 -1199.46 1010.36 2
1 -1 11 1201.37 687.704 4
-1 0 11 827.877 592.424 4
-1 1 -5 8887.27 767.248 2
1 0 -5 9245.28 871.591 2
-1 1 -5 9535.5 605.388 4
1 0 -5 10565.8 663.153 4
0 -1 -5 10021.5 824.171 2
0 -1 -5 10446.7 695.534 4
1 0 -2 177258 1766.36 2
-1 1 -2 176568 1308.36 4
1 0 -2 177427 1555.42 4
0 -1 -2 174738 1818.62 2
0 -1 -2 170901 1543.6 4
-1 1 -2 177765 1686.25 2
-1 1 1 661.972 142.681 2
0 -1 1 417.638 99.2786 2
-1 1 1 464.751 116.21 4
-1 1 4 10869.2 622.242 4
-1 1 4 10317.6 743.832 2
1 0 4 11216.4 778.192 2
-1 1 4 11240.9 319.53 3
0 -1 4 11135 712.657 2
1 0 4 9964.41 553.797 4
0 -1 4 10653 564.267 4
1 0 4 10279.8 422.938 3
-1 1 7 1542.01 457.419 4
0 -1 7 1155.82 572.685 2
1 0 7 1208.92 450.143 4
-1 1 7 1251.96 201.938 3
-1 1 7 1267.44 297.291 3
0 -1 7 1743.03 301.757 3
0 -1 7 1588.36 453.751 4
1 0 7 791.666 614.622 2
-1 1 7 2586.58 657.931 2
1 0 7 2008.21 318.489 3
0 -1 7 1499.1 429.75 3
0 -1 10 525.307 251.017 3
1 0 10 673.329 553.977 4
0 -1 10 -1.766 796.545 2
1 0 10 1217.53 831.368 2
-1 1 10 876.591 620.485 4
1 0 10 444.73 271.466 3
0 -1 10 589.822 541.747 4
-1 1 10 317.457 813.506 2
-1 1 13 179.813 786.87 4
-1 1 13 498.672 1014.98 2
0 -1 13 536.191 1046.92 2
1 0 13 146.466 913.566 2
1 -2 -6 107210 2152.28 4
1 1 -6 107758 2035.11 4
-2 1 -6 109704 1943.52 4
1 -2 -3 611882 3722.36 4
1 1 -3 612208 3902.16 2
1 1 3 732029 4615.09 2
-2 1 6 223948 3115.87 4
1 1 6 216912 3526.2 2
-2 1 6 226909 3535.34 2
1 1 6 219946 2971.12 4
1 -2 6 219223 2259.37 3
-2 1 6 221164 1475.79 3
1 -2 6 225232 2738.68 4
1 -2 6 227232 3417.53 2
1 1 6 224987 2043.43 3
-2 1 6 221789 1722.41 3
-2 1 9 122678 3266.75 2
1 -2 9 114490 3081.39 2
-2 1 9 126044 2853.28 4
1 1 9 123360 1692.3 3
1 -2 9 120740 1832.89 3
1 1 9 121268 2782.72 4
1 -2 9 122764 2598.79 4
1 -2 9 118169 2190.01 3
1 1 9 123961 3336.15 2
-2 1 12 58831.4 2780.36 2
1 -2 12 55819.5 2127.12 4
1 1 12 57702.7 2309.41 4
1 -2 12 58215.1 2723.18 2
1 1 12 56706.8 2774.09 2
-2 1 12 60324.9 2447.13 4
-3 1 -7 99459.5 2040.61 4
1 2 -7 97917.8 2105.44 4
1 2 -4 28853.4 874.931 4
2 -3 -4 30330 1161.39 2
1 2 -4 28424.9 1039.86 2
2 -3 -4 28776.2 1029.63 4
2 -3 -1 110007 922.633 3
2 -3 -1 110325 1185.68 2
-3 1 -1 113344 1129.47 3
2 -3 -1 107581 1193.17 4
2 -3 -1 108380 1309.32 1
1 2 -1 110665 946.381 2
1 2 -1 109744 1018.29 4
1 2 -1 112765 1148.51 3
1 2 2 132725 1522.61 4
1 2 2 133777 1758.57 2
-3 1 2 130085 1550.53 4
-3 1 2 134229 1622.97 2
2 -3 2 135191 1345.18 2
1 2 2 126319 1169.06 3
2 -3 2 133256 1751.14 1
2 -3 2 140758 924.825 4
1 2 2 132799 1646.03 1
-3 1 5 5871.93 242.809 3
-3 1 5 6271.12 733.133 2
-3 1 5 6215.09 619.42 4
1 2 5 7338.94 416.13 3
-3 1 5 5928.04 230.484 3
1 2 5 6539.18 816.744 2
2 -3 5 6080.44 477.385 4
2 -3 5 7705.47 730.479 2
1 2 5 6628.02 613.835 4
2 -3 8 8165.31 709.981 4
1 2 8 6850.69 455.4 3
-3 1 8 8170.99 830.714 4
2 -3 8 6647.84 870.179 2
-3 1 8 7171.11 922.851 2
2 -3 8 7549.3 760.278 3
1 2 8 6825.41 782.007 4
1 2 8 7599.06 1024.28 2
2 -3 8 7481.82 571.334 3
1 2 11 2986.39 793.761 4
1 2 11 3852.5 1035.14 2
2 -3 11 2959.22 910.697 2
2 -3 11 4425.35 764.273 4
-3 1 11 2448.84 934.435 2
-3 1 11 3426.82 865.108 4
0 2 -5 6481.49 527.187 4
0 2 -5 6168.72 703.269 2
-2 0 -5 6956.65 555.486 4
2 -2 -5 6009.96 738.187 2
2 -2 -5 6914.01 632.954 4
2 -2 -2 382820 2604.6 4
2 -2 -2 393909 2800.53 2
0 2 1 671.439 178.492 1
-2 0 1 545.427 150.263 2
-2 0 1 673.304 137.754 4
0 2 1 763.934 126.695 3
2 -2 1 442.175 157.746 1
0 2 1 458.719 180.774 2
0 2 1 471.4 149.506 4
-2 0 4 59993.9 854.407 3
0 2 4 58248.2 1340.04 4
0 2 4 59363 1574.77 2
-2 0 4 61653.9 1338.74 4
2 -2 4 60183.8 1453.04 2
2 -2 4 55160.7 1093.72 4
0 2 4 59787.5 820.54 3
-2 0 4 59340 1488.76 2
0 2 7 307.697 196.656 3
-2 0 7 385.61 178.848 3
2 -2 7 245.208 360.187 4
0 2 7 -32.9906 435.535 4
2 -2 7 309.69 288.32 3
2 -2 7 -196.463 575.252 2
-2 0 7 72.9322 438.493 4
-2 0 7 210.729 222.534 3
-2 0 7 434.921 607.264 2
0 2 7 -177.912 601.135 2
0 2 10 4616.34 1022.52 2
-2 0 10 7107.97 1071.3 2
2 -2 10 6418.31 1044.09 2
2 -2 10 6906.2 809.372 4
0 2 10 5909.63 866.699 4
2 -2 10 6648.23 568.044 3
-2 0 10 7744.23 913.058 4
-2 0 13 287.114 940.117 2
0 2 13 -208.127 1064.56 2
0 2 13 -1040.14 846.281 4
-2 0 13 140.855 711.64 4
2 -2 13 -109.484 937.428 2
2 -1 -6 211195 3002.83 4
-1 2 -6 208312 3326.79 2
-1 -1 -6 209337 2880.29 4
-1 2 3 593052 4144.47 2
-1 -1 3 589168 3778.09 2
-1 -1 6 111971 2079.52 4
2 -1 6 107338 1567.65 3
2 -1 6 109488 2441.73 2
-1 2 6 107136 1122.14 3
-1 -1 6 112082 1609.35 3
-1 2 6 105655 2511.4 2
-1 2 6 106321 2180.47 4
2 -1 6 107107 1962.55 4
-1 -1 6 113373 2452.6 2
-1 -1 9 190942 1927.46 3
-1 2 9 190436 4122.09 2
-1 2 9 187461 3500.04 4
-1 -1 9 184721 3910.93 2
2 -1 9 196500 4087.95 2
2 -1 9 204564 2437.63 3
-1 2 9 174080 1454.2 3
2 -1 9 194724 3308.05 4
-1 -1 9 193511 2144.27 3
-1 -1 9 197365 3431.49 4
-1 2 9 182075 1321.83 3
2 -1 12 8312.9 1028.6 4
2 -1 12 5926.31 1210.74 2
-1 2 12 8930.68 1120.43 4
-1 -1 12 6929.09 1234.55 2
-1 -1 12 7532.44 1001.88 4
-1 2 12 7614.26 1310.81 2
-2 2 -7 318.106 379.357 4
-2 2 -4 61659 1121.71 4
2 0 -4 63921.2 1557.18 2
0 -2 -4 61601.5 1339.19 4
2 0 -4 63286.1 1357.88 4
0 -2 -4 64416.7 1609.3 2
-2 2 -4 64070.2 1475.33 2
-2 2 -1 432.72 159.827 1
2 0 -1 572.367 131.021 2
0 -2 -1 460.787 99.3032 3
2 0 -1 688.193 147.138 4
0 -2 -1 487.343 175.047 1
-2 2 2 373960 3083.06 1
-2 2 2 373342 2739.57 2
2 0 5 6829.22 430.586 3
0 -2 5 7507.52 556.27 4
2 0 5 6407.56 575.009 4
2 0 5 6648.75 787.896 2
-2 2 5 6085.23 219.702 3
-2 2 5 6857.82 633.668 4
0 -2 5 7786.65 698.24 2
0 -2 5 7016.13 561.583 3
-2 2 5 5735.83 275.432 3
-2 2 5 6083.2 746.275 2
-2 2 8 50046.1 1748.69 4
0 -2 8 55244.7 1182.08 3
-2 2 8 52386.1 2092.89 2
0 -2 8 51722.2 1387.67 3
0 -2 8 52650.9 1641.03 4
2 0 8 54530.1 2137.6 2
0 -2 8 53121.3 1975.58 2
2 0 8 54110.2 1220.67 3
2 0 8 51319 1682.48 4
2 0 11 303.196 880.583 2
2 0 11 782.82 625.394 4
0 -2 11 588.797 583.132 4
-2 2 11 1070.04 859.408 2
0 -2 11 366.094 788.468 2
-2 2 11 498.701 657.432 4
-3 2 -8 1289.66 501.164 4
1 -3 -5 4467.46 758.157 2
1 -3 -5 5068.67 580.53 4
-3 2 -5 5417.61 450.068 4
2 1 -5 5016.8 509.726 4
2 1 -5 4725.14 620.008 2
2 1 -2 301977 2171.86 4
1 -3 -2 311851 2392.48 4
1 -3 -2 308919 2579.15 2
2 1 -2 311942 2326.31 2
1 -3 -2 309487 2755.56 1
2 1 1 100409 1012.85 3
-3 2 1 95943.9 1086.45 2
1 -3 1 96770.3 1180.38 3
-3 2 1 100088 1263.86 1
1 -3 1 95978.3 1175.23 1
2 1 4 16245.5 717.047 4
2 1 4 15771.9 901.009 2
1 -3 4 14999.6 769.303 2
1 -3 4 16577.6 609.162 4
-3 2 4 17955.5 819.539 4
-3 2 4 16493.6 886.422 2
2 1 4 16612 563.648 3
1 -3 7 87344.3 2296.01 2
2 1 7 87774.1 1467.89 3
1 -3 7 86164.6 1837.23 4
2 1 7 86729.5 2044.41 4
-3 2 7 87733.4 2465.2 2
1 -3 7 86914.8 1869.43 3
2 1 7 80686.1 2416.86 2
-3 2 7 89793.6 2191.23 4
2 1 10 -105.742 813.368 2
-3 2 10 837.533 894.154 2
1 -3 10 7.63766 720.287 2
-3 2 10 902.251 654.783 4
1 -3 10 320.981 510.703 4
1 -3 10 668.073 352.698 3
2 1 10 105.148 306.256 3
2 1 10 258.545 563.188 4
-3 2 13 8883.08 1431.34 2
1 -3 13 8332.57 1355.19 2
1 -3 13 8903.89 1724.3 1
-3 2 13 8426.94 1201.06 4
2 1 13 8580.54 1489.62 2
2 1 13 8246.25 1129.73 4
2 2 -6 282322 3340.7 4
2 -4 -6 274701 3583.11 4
2 -4 -3 528681 4110.7 2
2 2 -3 532214 3621.44 2
2 -4 -3 534521 3780.28 4
2 2 -3 520018 3299.96 4
2 -4 0 251122 1866.09 1
-4 2 0 258717 1479.7 1
2 -4 0 264767 1952.61 3
-4 2 0 258449 1535.93 4
2 2 0 259453 1699.08 2
-4 2 0 266664 1658.74 2
-4 2 3 472433 3567.97 4
-4 2 3 467523 3746.29 2
2 2 3 477841 3927.55 2
2 -4 3 457796 3968.88 1
2 2 3 463342 3716.84 1
2 2 3 473322 3273.19 4
2 -4 6 98890.1 1695.97 4
2 2 6 98426.8 2063.02 4
2 2 6 99464.7 2498.5 2
-4 2 6 98092.6 2177.97 4
2 2 6 103712 1529.91 3
-4 2 6 96078.3 2385.37 2
2 -4 9 154711 2855.42 3
-4 2 9 165142 3801.05 2
2 -4 9 161315 2424.82 3
2 -4 9 166364 3605.1 2
2 2 9 170396 2158.58 3
2 2 9 153888 3188.59 4
-4 2 9 164883 3378.23 4
2 2 9 160913 3907.97 2
2 -4 9 164145 2857.68 4
2 2 12 6912.79 1330.5 2
-4 2 12 7153.56 1290.29 2
-4 2 12 6502.58 1047.4 4
2 2 12 6670.81 1039.67 4
2 -4 12 5735.71 1139.71 2
2 -4 12 6239.46 1531.8 1
2 -4 12 6108.15 864.088 4
2 3 -7 88008.9 2041.94 4
2 3 -4 27291.4 890.06 4
3 -5 -4 28652.4 1073.09 4
3 -5 -4 26699.2 1179.38 2
2 3 -4 28058.1 1058.75 2
-5 2 -1 55069.1 667.634 1
-5 2 -1 54404.1 986.745 3
3 -5 -1 56596.7 963.659 3
2 3 -1 56629.2 826.85 2
3 -5 -1 53325 1118.03 1
2 3 -1 57795.5 928.55 4
3 -5 -1 55926.7 1003.92 4
3 -5 -1 54767.1 951.863 2
-5 2 -1 56431.7 739.561 4
2 3 -1 53073.3 1003.88 3
2 3 2 247747 2118.33 1
-5 2 2 254696 2788.49 1
3 -5 2 247793 1595.92 2
-5 2 2 252285 2385.94 4
-5 2 2 247421 2406.58 2
2 3 2 249706 1980.43 3
3 -5 2 244962 2478.22 1
2 3 5 24871 1243.19 1
3 -5 5 25385.8 1026.32 2
-5 2 5 24809.7 1170.82 2
-5 2 5 25417.1 1095.35 4
2 3 5 24990 1303.46 2
3 -5 5 25969.5 752.99 4
2 3 5 24282.6 1054.75 4
2 3 5 24219.9 761.507 3
3 -5 8 79277.5 2317.94 2
-5 2 8 78057.5 2254.43 4
2 3 8 80329.3 2215.98 4
3 -5 8 76153.5 1717.09 4
3 -5 8 70730.6 2026.99 3
3 -5 8 78216.9 1779.55 3
2 3 8 79698.3 1479.55 3
-5 2 8 81648.5 2532.09 2
2 3 8 78926.7 2630.82 2
3 -5 11 6184.47 759.46 4
-5 2 11 5057.31 945.259 4
-5 2 11 5391.77 1112.4 2
2 3 11 6206.03 958.175 4
2 3 11 4701.63 1208.3 2
3 -5 11 4721.31 1182.13 1
3 -5 11 5080.36 1029.95 2
1 3 -5 50159.2 1256.97 4
3 -4 -5 46393.5 1431.94 4
1 3 -5 44639 1484.51 2
3 -4 -5 45732.1 1627.15 2
1 3 -2 85675.4 1131.81 2
3 -4 -2 83082.9 791.912 3
3 -4 -2 82072.4 1384.39 2
1 3 -2 79654.9 1071.52 4
3 -4 -2 81504.7 1357.49 4
3 -4 -2 83662.4 1574.9 1
-4 1 -2 87612.3 1223.13 3
1 3 -2 80873.1 1266.03 3
-4 1 1 59056.1 757.829 3
1 3 1 63169.9 905.239 3
-4 1 1 58209.4 942.785 4
3 -4 1 60661 998.196 1
1 3 1 62956.3 865.598 1
-4 1 1 61375.1 946.632 2
-4 1 4 30363.5 460.177 3
1 3 4 30441.1 1249.89 2
1 3 4 30860.2 729.284 3
3 -4 4 30280.5 696.575 4
1 3 4 31725.1 1230.07 1
3 -4 4 30199.4 1014.36 2
-4 1 4 32507.1 1071.21 4
1 3 4 30428.3 1040.05 4
-4 1 4 31526.8 1143.88 2
-4 1 7 20850.8 1253.75 2
1 3 7 19557.5 1101.05 4
-4 1 7 20617.3 1115.13 4
3 -4 7 20410.2 874 3
1 3 7 20628.7 702.825 3
3 -4 7 20368 1198.27 2
3 -4 7 20616.2 877.425 4
1 3 7 19549.3 1321.39 2
1 3 10 38621.7 1803.7 4
1 3 10 36698.3 2075.83 2
-4 1 10 40215.5 1816.25 4
3 -4 10 42222 1325.6 3
1 3 10 35357.6 857.613 3
3 -4 10 37533.7 1489.55 4
3 -4 10 37075.1 1944.48 2
-4 1 10 33771.9 1963.78 2
1 3 13 3239.97 1261.94 2
-4 1 13 4710.44 1195.65 2
3 -4 13 4943.78 1236.25 2
-4 1 13 5030.29 1024.24 4
1 3 13 6056.41 1113.34 4
3 -4 13 5722.5 1406.57 1
0 3 -6 747725 5071.78 4
0 3 -6 751549 6127.49 2
3 -3 -6 740667 5899.94 4
-3 0 -3 16321.5 572.043 3
3 -3 -3 15962.4 759.437 2
0 3 -3 14954.8 626.669 2
3 -3 -3 15754.5 686.315 4
0 3 -3 15142.2 521.5 4
3 -3 3 36920.6 645.644 4
-3 0 3 36510 1026.5 2
-3 0 3 37228.6 957.63 4
0 3 3 36012.2 996.072 4
0 3 3 36527.3 631.576 3
3 -3 3 36409 948.651 2
0 3 3 34747.3 1125.2 2
0 3 3 34987.6 1115.5 1
3 -3 6 566901 4044.44 4
3 -3 6 555255 5283.93 2
0 3 6 558006 2965.65 3
0 3 6 555589 5776.62 2
-3 0 6 559723 5495.67 2
3 -3 6 569027 3976.98 3
-3 0 6 571595 2739.76 3
0 3 6 560595 5036.58 4
3 -3 9 17419.5 1002.03 4
0 3 9 14400.5 520.937 3
3 -3 9 14542.8 1034.66 3
3 -3 9 16463 1307.72 2
0 3 9 13263.8 1318.65 2
-3 0 9 16418.9 1160.61 4
3 -3 9 16157.5 831.187 3
-3 0 9 16424.5 1332.22 2
0 3 9 15486.9 1162.36 4
-3 0 12 92159.7 3350.38 2
3 -3 12 96221.5 2626.9 4
-3 0 12 94343.6 2937.54 4
0 3 12 88429.1 3493.29 2
3 -3 12 94895.9 3421.67 2
0 3 12 95391.8 3076.82 4
-2 -1 -7 87819.2 2034.28 4
-1 3 -7 89373.2 1896.09 4
-2 -1 -4 14382.1 670.381 4
3 -2 -4 15473.6 749.731 4
-1 3 -4 15837.8 597.029 4
3 -2 -4 14993 866.47 2
-1 3 -4 14110.9 760.879 2
3 -2 -1 98118.3 1125.26 4
-2 -1 -1 95507 984.13 3
3 -2 -1 100134 1305.82 1
3 -2 -1 99302.5 1112.82 2
-1 3 -1 99486.1 1191.77 1
-2 -1 2 310263 2270.12 2
-2 -1 2 310754 2180.72 4
-1 3 2 312805 2614.09 2
-1 3 2 310836 1508.92 3
-1 3 2 311592 2437.1 4
-2 -1 5 6168.49 436.154 3
3 -2 5 5351.25 477.184 4
-1 3 5 6521.64 656.06 4
-1 3 5 4050.76 722.305 2
3 -2 5 5926.95 705.46 2
-1 3 5 5563.97 274.774 3
-1 3 5 4338.84 843.678 1
3 -2 5 6111.01 476.24 3
-2 -1 5 4971.73 544.299 4
-2 -1 5 5202.5 665.511 2
3 -2 8 1624.18 385.816 3
-1 3 8 875.213 527.87 4
-1 3 8 1436.82 252.561 3
-1 3 8 1455.53 196.977 3
-2 -1 8 1994.09 337.781 3
3 -2 8 1336.41 758.114 2
-2 -1 8 2213.02 579.98 4
-2 -1 8 1320.8 252.252 3
-1 3 8 2460.78 822.024 2
3 -2 8 2078.81 516.376 4
-2 -1 8 1878.32 680.88 2
-2 -1 11 167.588 798.615 2
-2 -1 11 471.541 620.234 4
3 -2 11 113.561 790.245 2
3 -2 11 750.767 588.032 4
-1 3 11 1454.05 725.096 4
-1 3 11 222.074 822.526 2
-2 3 -8 6044.63 675.512 4
-2 3 -5 9260.53 565.974 4
-2 3 -5 10523.9 790.585 2
-1 -2 -5 10139.1 700.914 4
3 -1 -5 8076.88 746.463 2
3 -1 -5 8906.05 660.654 4
-2 3 -2 134301 910.539 4
-2 3 -2 134495 1328.52 2
3 -1 -2 131959 1546.4 4
3 -1 -2 133646 1642.85 2
-2 3 1 101797 1254.88 1
-2 3 1 105048 1159.37 2
3 -1 1 107461 1107.56 3
-1 -2 1 106827 919.495 2
-1 -2 1 110876 1012.93 4
-1 -2 1 105533 1087.39 3
-1 -2 4 32858.4 925.019 4
3 -1 4 33189.2 838.167 3
-1 -2 4 30273.9 1037.18 2
-2 3 4 32769.2 1091.24 4
-2 3 4 32925.8 1328.98 1
3 -1 4 32071.3 1162.02 2
-2 3 4 32309.9 1208.56 2
3 -1 4 33947.3 871.104 4
-1 -2 4 32505 850.812 3
3 -1 7 94239.9 2495.37 2
-2 3 7 91771.5 2551.19 2
-1 -2 7 101222 1726.15 3
3 -1 7 87686.8 1601.45 3
-1 -2 7 92854.2 2034.13 4
-1 -2 7 92163.5 2380.37 2
-2 3 7 97487.2 2321.87 4
3 -1 7 93070.7 1975.59 4
-1 -2 10 1262.17 294.014 3
3 -1 10 1594.05 873.61 2
-1 -2 10 1609.45 661 4
-1 -2 10 1112 805.818 2
-2 3 10 2649.73 721.838 4
3 -1 10 1921.37 433.187 3
-2 3 10 761.066 771.781 2
3 -1 10 1087.35 553.164 4
-2 3 13 12480.7 1642.63 2
-2 3 13 14297.6 1459.63 4
3 -1 13 13990.2 1696.63 2
-1 -2 13 14727.7 1641.15 2
-3 3 -6 582589 4085.25 4
0 -3 -6 580701 5037.33 4
-3 3 -3 38039.4 651.342 4
3 0 -3 37784.2 1042.1 2
0 -3 -3 38653.6 992.241 4
3 0 -3 36726.1 971.537 4
0 -3 -3 38827.3 655.774 3
0 -3 -3 37228.5 1119.62 2
3 0 3 14335 519.909 3
3 0 3 14965.3 733.698 2
-3 3 3 14341 731.913 2
0 -3 3 14187.9 505.594 4
0 -3 3 14129.1 608.37 3
3 0 3 15225.9 554.417 4
-3 3 3 15114.2 834.063 1
-3 3 3 13981.9 667.008 4
0 -3 3 14259.3 593.952 2
0 -3 6 778810 6089.23 2
-3 3 6 772910 6697.75 2
0 -3 6 772938 5170.73 4
0 -3 6 792189 4983.87 3
3 0 6 772999 5314.02 4
-3 3 6 775729 6074.61 4
3 0 6 777825 6634.74 2
3 0 9 15334.2 767.809 3
3 0 9 14378.3 1339.9 2
3 0 9 13444.3 990.358 4
-3 3 9 14021.5 1270.21 2
0 -3 9 15014 715.624 3
0 -3 9 14421.2 872.794 3
-3 3 9 13216.8 1109.08 4
0 -3 9 14197.6 974.997 4
0 -3 9 15494.9 1244.38 2
0 -3 12 79648.9 2497.81 4
0 -3 12 83250.6 3125.52 2
3 0 12 79969.6 3261.98 2
3 0 12 88479 2723.57 4
-3 3 12 82757.3 3301.89 2
-3 3 12 83886 2925.78 4
-4 3 -7 45366.5 1288.65 4
-4 3 -4 26590.3 698.667 4
3 1 -4 25122.5 1016.6 2
1 -4 -4 23553.4 952.677 4
1 -4 -4 24773.7 1103.71 2
3 1 -4 23726 876.471 4
1 -4 -4 23135 509.101 3
-4 3 -1 60887.1 861.184 1
3 1 -1 64080.5 917.295 2
1 -4 -1 57758.7 831.339 3
3 1 -1 60629.4 843.027 3
3 1 -1 64771.4 948.87 4
1 -4 -1 60708.2 1019.84 1
-4 3 2 25027.4 795.056 4
-4 3 2 24748.9 894.439 1
1 -4 2 27875 572.245 2
1 -4 2 27499.6 821.711 3
-4 3 2 25680.8 799.309 2
1 -4 2 24534.8 851.069 1
1 -4 2 26142.1 508.388 4
3 1 2 26072.8 664.025 3
-4 3 5 75494.5 1963.79 2
-4 3 5 73650.3 2272.63 1
1 -4 5 79106.4 1660.89 3
3 1 5 77325.5 1630.94 4
1 -4 5 79456.9 1417.96 4
1 -4 5 81397.9 1774.28 2
3 1 5 73459.1 1971.72 2
3 1 5 77197.8 1332.5 3
-4 3 5 79157.1 1863.71 4
1 -4 8 29044.3 1185.07 4
1 -4 8 34118.7 1078.38 3
-4 3 8 32753.5 1501.36 4
1 -4 8 31418.7 1260.92 3
-4 3 8 32674.2 1715.53 2
3 1 8 32016.7 1379.46 4
3 1 8 31717.6 1008.38 3
1 -4 8 31633.9 1518.21 2
3 1 8 29378.6 1631.7 2
3 1 11 1187.65 674.052 4
-4 3 11 1261.84 739.552 4
1 -4 11 1347.64 624.869 4
3 1 11 166.859 921.912 2
1 -4 11 -498.812 769.266 2
-4 3 11 528.622 794.302 2
2 -5 -5 26289.2 1107.65 4
3 2 -5 27032.9 1157.05 2
3 2 -5 25920.1 1005.36 4
2 -5 -5 24919.8 504.008 3
2 -5 -5 25169 1309.95 2
3 2 -2 232657 2088.99 2
3 2 -2 240801 2120.92 4
2 -5 -2 240600 2577.1 1
2 -5 -2 241701 2435.4 2
3 2 -2 237979 2002.91 3
2 -5 -2 236214 1670.23 3
2 -5 -2 236420 2337.05 4
3 2 1 28218.8 705.594 3
-5 3 1 29499.8 806.519 1
3 2 1 31013.6 486.297 1
-5 3 1 30164.5 729.703 2
-5 3 1 29868.7 746.708 4
2 -5 1 28649.6 793.629 1
2 -5 1 30075.4 885.245 3
2 -5 4 7990.18 409.665 4
-5 3 4 7693.87 641.051 4
3 2 4 8084.55 486.195 3
-5 3 4 7931.21 710.195 2
-5 3 4 7143.9 756.57 1
3 2 4 8409.07 600.402 4
3 2 4 7640.78 678.611 1
2 -5 4 8510.23 573.441 2
2 -5 4 6564.39 752.741 1
3 2 4 6174.88 767.931 2
3 2 7 128986 2606.23 4
-5 3 7 139965 2833.62 4
3 2 7 138391 1971.33 3
-5 3 7 136797 3111.53 2
3 2 7 136130 3159.64 2
2 -5 7 141457 2590.76 3
2 -5 7 135711 2148.64 4
2 -5 7 136027 2744.96 2
-5 3 10 41852.4 1932.16 4
3 2 10 47696.9 1253.1 3
3 2 10 45340 2298.28 2
2 -5 10 42370.9 2014.97 2
2 -5 10 44456.2 1383.53 3
3 2 10 47197.5 1926.2 4
2 -5 10 42257.5 1561.84 4
-5 3 10 42243.7 2146.44 2
2 -5 13 16850.6 2016.91 1
3 2 13 21025.1 1989.06 2
-5 3 13 18624 1855.35 2
-5 3 13 18730.2 1613.99 4
3 2 13 16609.2 1469.29 4
2 -5 13 18012.2 1704.77 2
3 3 -6 178141 2730.6 4
3 3 -3 8413.39 500.237 4
3 -6 -3 8416.41 630.739 2
3 3 -3 8177.01 542.368 3
3 -6 -3 9656.31 620.433 4
3 -6 -3 9848.79 753.854 1
3 3 -3 7622.43 503.019 2
3 -6 -3 9679.66 362.887 3
3 3 3 51745.1 1075.96 3
-6 3 3 60573.1 1662.41 1
3 -6 3 53715 980.546 2
-6 3 3 57229.6 1371.57 4
3 3 3 53587.4 1229.01 1
-6 3 3 56318.7 678.749 3
3 -6 3 53412 1432.95 1
-6 3 3 55674.8 1377.85 2
3 -6 3 57345 737.405 4
3 -6 6 165144 2019.05 4
3 3 6 159657 2716.08 4
-6 3 6 165265 2929.82 4
3 3 6 160892 3201.2 1
-6 3 6 168929 3146.84 2
3 3 6 163260 3308.14 2
3 3 6 157699 2119.01 3
3 -6 6 162845 2695.13 2
3 -6 6 162455 3366.23 1
-6 3 9 12651.9 1241.82 2
3 -6 9 11226.9 1325.69 1
-6 3 9 10865.9 1041.27 4
3 -6 9 9663.74 759.597 4
3 3 9 12153.5 709.585 3
3 3 9 10582.8 1018.96 4
3 -6 9 10926.5 1048.4 2
3 -6 9 11228.1 804.632 3
3 3 9 10895.1 1258.29 2
-6 3 12 74288.2 3108.65 2
-6 3 12 73741.9 2819.32 4
3 -6 12 69959.8 2829.43 2
3 3 12 72295.8 3250.59 2
3 -6 12 71852.7 3372.72 1
3 3 12 77567.8 2793.8 4
3 4 -4 80586.7 1668.41 2
3 4 -4 77471.6 1623.5 3
4 -7 -4 77846.4 1968.19 2
3 4 -4 78999.6 1561.37 4
4 -7 -4 80048.5 923.736 3
4 -7 -4 78213.1 2160.84 1
4 -7 -4 81215.3 1849.04 4
4 -7 -1 284184 2301.08 2
3 4 -1 290976 2391.92 4
4 -7 -1 288822 2851.8 1
3 4 -1 290131 2223.86 2
4 -7 -1 292898 2592.1 3
3 4 -1 288004 2593.1 3
4 -7 -1 294138 2537.02 4
4 -7 2 169072 1098.4 2
4 -7 2 169175 2279.19 1
3 4 2 166180 1928.59 3
-7 3 2 168526 2115.38 2
-7 3 2 162716 2127.72 4
-7 3 2 168188 1524.09 3
3 4 2 173495 1733.66 1
-7 3 2 172637 2409.7 1
3 4 5 23500.2 844.007 3
4 -7 5 23578.3 644.415 4
4 -7 5 23637.2 1287.69 1
3 4 5 27122 1243.83 1
-7 3 5 24620.4 1147.6 4
3 4 5 27523.5 1358.96 2
-7 3 5 24676.2 1211.07 2
3 4 5 25098.8 1092.04 4
4 -7 5 23180.5 937.507 2
3 4 8 99937.5 1806.77 3
4 -7 8 89658.9 2415.85 3
4 -7 8 96937.6 2446.59 2
4 -7 8 98302.3 1810.98 4
4 -7 8 96290.1 3048.87 1
3 4 8 94758 2940.96 2
-7 3 8 99592 2855.77 2
3 4 8 97236.9 2499.86 4
-7 3 8 95286.5 2609.69 4
3 4 11 16181.6 1656.82 2
-7 3 11 15918.6 1398.49 4
4 -7 11 16389.9 1729.4 1
4 -7 11 15337.6 1349.01 2
4 -7 11 15663.7 1023.23 4
4 -7 11 14128.6 987.16 3
3 4 11 13016.6 1258.26 4
-7 3 11 14765.5 1465.57 2
2 4 -5 75393.6 1595.38 4
2 4 -5 75956.5 1802.17 2
4 -6 -5 74097.5 1885.52 4
-6 2 -2 208687 2169.56 3
2 4 -2 209068 1907.18 2
4 -6 -2 201969 2294.46 2
4 -6 -2 206309 2320.36 4
4 -6 -2 198956 2561.02 1
4 -6 -2 209180 1769.63 3
2 4 -2 208407 1978.7 4
2 4 -2 209788 2261.5 3
2 4 1 15379.8 598.74 3
-6 2 1 15040.7 584.048 2
-6 2 1 14799.5 618.513 1
4 -6 1 15619.5 639.717 1
2 4 1 14607.1 488.941 1
-6 2 1 14440.2 585.151 4
-6 2 1 15122.2 496.902 3
-6 2 4 31637.6 512.782 3
4 -6 4 31322.8 964.563 2
2 4 4 31470 1212.86 1
-6 2 4 32005.6 1142.82 4
4 -6 4 31443.9 610.59 4
2 4 4 32137.7 1337.1 2
2 4 4 31503.9 1109.79 4
-6 2 4 30889.6 1197.34 2
4 -6 4 32186.5 1322.55 1
2 4 4 32489.8 863.694 3
2 4 7 112523 2939.93 2
2 4 7 110857 1710.87 3
2 4 7 111485 2501.98 4
4 -6 7 111471 2531.53 2
4 -6 7 115033 1830.43 4
4 -6 7 110610 3001.51 1
-6 2 7 113794 2590.79 4
-6 2 7 113271 2766.11 2
4 -6 10 3089.15 578.579 4
-6 2 10 2461.46 857.408 2
2 4 10 3819.3 813.488 4
2 4 10 1433.99 979.034 2
4 -6 10 2863.63 821.33 2
4 -6 10 2429.99 554.574 3
4 -6 10 2913.36 1090.75 1
-6 2 10 2138.36 712.273 4
2 4 10 2461.24 404.638 3
4 -6 13 19080.1 1733.41 2
-6 2 13 16390 1750.51 2
4 -6 13 15907.4 1988.32 1
-6 2 13 17826.5 1605.21 4
2 4 13 16922.5 1556.92 4
2 4 13 16264.8 1898.38 2
1 4 -6 93104.1 1845.23 4
1 4 -6 86547.8 2160.14 2
1 4 -3 228589 2243.8 2
-5 1 -3 221997 2286.37 3
1 4 -3 224135 2086.55 4
4 -5 -3 222817 3131.01 1
4 -5 -3 217247 2615.2 4
1 4 -3 220439 2351.36 3
4 -5 -3 219743 2772.68 2
-5 1 0 174966 1560.84 4
-5 1 0 181805 1672.03 2
4 -5 0 181323 1831.23 1
-5 1 0 179546 1183.26 1
1 4 0 177073 1574.77 1
4 -5 0 182688 1445.26 4
1 4 0 173480 1759.57 3
-5 1 0 178659 1628.12 3
-5 1 3 574591 4038 4
4 -5 3 572462 3432.34 2
-5 1 3 569127 4095.75 2
1 4 3 575647 4199.56 1
1 4 3 568203 3987.62 4
4 -5 3 562556 4323.49 1
1 4 6 103333 2265.31 4
1 4 6 108820 2688.3 2
-5 1 6 107443 2461.3 2
4 -5 6 101866 2217.42 2
1 4 6 112458 1528.28 3
4 -5 6 105907 1608.82 4
-5 1 6 107761 2293.86 4
4 -5 9 118078 2285.08 4
1 4 9 111045 3338.23 2
1 4 9 113204 2857.91 4
1 4 9 114544 1632.46 3
4 -5 9 108509 2580.48 3
-5 1 9 112900 2847.9 4
4 -5 9 112462 2996.67 2
-5 1 9 113675 3146.85 2
4 -5 9 117708 2280.06 3
4 -5 12 49518.3 2486.94 2
4 -5 12 50840.1 2874.41 1
1 4 12 53333.7 2798.83 2
-5 1 12 48699.9 2489.75 2
-5 1 12 49969.3 2269.23 4
1 4 12 49235.5 2294.43 4
0 4 -7 1923.94 451.33 4
0 4 -4 49913.8 1300.55 2
4 -4 -4 52381.5 1395.55 4
0 4 -4 48082.3 1097.2 4
4 -4 -4 49360.1 1506.65 2
4 -4 -1 2629.63 375.854 1
0 4 -1 3235.69 441.772 3
-4 0 -1 2767.39 289.824 3
0 4 -1 3492.41 185.429 2
0 4 -1 3659.36 244.055 4
4 -4 -1 3081.09 314.402 4
0 4 -1 3600.92 371.167 1
4 -4 -1 2994.95 310.759 2
0 4 2 2435.54 364.501 1
0 4 2 2253.42 376.27 4
0 4 2 2011.92 254.65 3
-4 0 2 2062.82 209.94 3
0 4 2 2393.07 399.573 2
4 -4 2 2246.59 349.263 1
-4 0 2 1988.68 309.065 2
-4 0 2 2576.8 330.458 4
0 4 5 3457.21 584.793 4
4 -4 5 2056.87 322.298 4
-4 0 5 2482.57 551.189 2
0 4 5 2390.85 606.775 1
0 4 5 2440.14 666.595 2
-4 0 5 2500.07 452.505 4
0 4 5 2933.74 293.335 3
-4 0 5 2769.73 241.291 3
4 -4 5 2698.95 585.367 2
4 -4 8 120036 2130.28 3
-4 0 8 117293 2636.65 4
-4 0 8 110977 975.575 3
4 -4 8 120367 2926.96 2
-4 0 8 117089 2932.23 2
4 -4 8 123222 2193.88 4
0 4 8 119159 2777.55 4
0 4 8 114460 3147.4 2
0 4 8 121522 1500.12 3
4 -4 11 769.744 775.132 2
4 -4 11 1003.29 567.275 4
-4 0 11 1179.16 682.375 4
-4 0 11 1438.69 916.3 2
0 4 11 1158.03 701.117 4
0 4 11 2064.81 1028.36 2
-1 4 -8 27693.2 1194.4 4
-1 4 -5 87611.2 1514.34 4
4 -3 -5 84902.9 1896.99 4
4 -3 -5 83412.8 2125.53 2
-1 4 -5 85697.4 1851.66 2
4 -3 -2 28761.1 809.597 4
-1 4 -2 27687 594.508 2
4 -3 -2 27539 818.08 2
-1 4 -2 27119.5 512.732 4
-3 -1 -2 27857.5 676.185 3
-1 4 1 58691.7 890.965 3
-1 4 1 60457 993.575 1
-3 -1 1 62113.7 845.227 3
-1 4 1 59597.8 970.853 2
-3 -1 1 62704 948.612 4
4 -3 1 59983.5 848.051 1
-3 -1 1 62149.8 895.346 2
-3 -1 4 30850.6 703.271 3
-1 4 4 30482.4 587.361 3
-1 4 4 29677.5 1070.21 4
4 -3 4 28837.9 1060.7 2
4 -3 4 29818.3 736.778 4
-1 4 4 31948.7 1289.06 2
-1 4 4 30867.7 1288.74 1
-3 -1 4 31749.7 1116.46 2
-3 -1 4 29435.6 974.721 4
-1 4 7 38494.7 1503.77 4
4 -3 7 38075.3 1221.62 4
-3 -1 7 40499.2 1440.68 4
-1 4 7 39708 728.657 3
-1 4 7 38793.1 1744.02 2
-3 -1 7 35478.6 1544.12 2
4 -3 7 37170.3 1588.01 2
4 -3 7 38893.5 1158.86 3
-3 -1 7 40478.5 881.898 3
4 -3 10 9990.81 1190.77 2
4 -3 10 10370.5 777.982 3
-1 4 10 11827.6 1343.9 2
4 -3 10 10893.2 925.246 4
-1 4 10 9162.35 1039.66 4
-3 -1 10 11446.6 1040.5 4
-3 -1 10 10295.2 1194.56 2
4 -3 13 16624.8 1700.38 2
-3 -1 13 17465.1 1498.78 4
-1 4 13 15226.6 1507.65 4
4 -3 13 18488.2 2038.4 1
-1 4 13 15687.6 1811.66 2
-3 -1 13 14244.7 1640.12 2
4 -2 -6 97074.1 2156.75 4
-2 4 -6 98207.2 1777.1 4
-2 4 -6 97200.6 2198.97 2
-2 4 -3 434532 3008.38 2
-2 -2 -3 441709 2613.91 3
4 -2 -3 444602 3654.98 2
4 -2 -3 445486 3450.95 4
4 -2 0 261178 1562.73 4
-2 4 0 258675 1572.09 4
4 -2 0 259631 1699.6 3
-2 4 0 260537 1889.29 1
-2 -2 0 256111 1754.3 3
-2 -2 3 525778 3539.1 2
4 -2 3 529883 3313.84 3
-2 4 3 535902 3819.85 4
-2 -2 6 282900 3332.52 4
4 -2 6 275345 2951.53 4
-2 4 6 282554 3701.51 4
-2 4 6 279985 4135.51 2
-2 -2 6 288853 3804.61 2
4 -2 6 285156 3940.8 2
-2 -2 6 286249 2583.07 3
4 -2 6 289527 2871.52 3
-2 4 9 112363 3305.93 2
-2 -2 9 115897 3050.87 2
4 -2 9 112768 2473.98 4
4 -2 9 110277 3115.47 2
-2 -2 9 111699 1636.72 3
4 -2 9 111393 2034.36 3
-2 -2 9 113382 1538.36 3
-2 -2 9 113822 2606.51 4
-2 -2 12 43001.3 1973.97 4
-2 4 12 49794.2 2707.14 2
-2 -2 12 44797.1 2380.94 2
4 -2 12 47309.2 1959.08 4
-2 4 12 46548.9 2268.4 4
4 -2 12 48461.7 2514.47 2
-3 4 -7 25331.3 974.095 4
-3 4 -4 23578 664.362 4
-1 -3 -4 25566.1 661.827 3
4 -1 -4 25113.7 1063.81 2
4 -1 -4 23475.1 917.18 4
-1 -3 -4 24957.5 932.671 4
4 -1 -1 55072.3 894.164 2
-3 4 -1 60737 996.696 1
-1 -3 -1 62038.1 876.052 1
4 -1 -1 59437.6 763.983 3
-1 -3 -1 64790.6 900.608 3
4 -1 -1 59339.9 945.603 4
-3 4 2 83638.6 1380.14 4
4 -1 2 87060.3 1208.48 3
-3 4 2 83455.3 1548.03 1
-3 4 2 82199.9 1396.93 2
-1 -3 2 82739.5 1235.19 3
-1 -3 2 88719.6 1125.85 2
-1 -3 2 83005.1 1087.09 4
-1 -3 5 44425 1359.34 2
4 -1 5 39842.7 1042.7 3
-3 4 5 41102.8 1536.93 2
-1 -3 5 39129.4 1102.78 3
4 -1 5 36489.6 1054.92 4
-3 4 5 40492.2 1658.57 1
-3 4 5 40811.4 1362.51 4
4 -1 5 41807.8 1482.18 2
-1 -3 5 41759.2 1139.18 4
4 -1 8 40710.7 1467.79 4
-1 -3 8 43562.8 1487.01 4
-3 4 8 48386.4 1813.52 4
4 -1 8 41726.3 1894.26 2
-1 -3 8 44340.1 1788.35 2
-3 4 8 45448.7 1992.67 2
-1 -3 8 44502.8 1253.85 3
4 -1 8 43323.7 1236.62 3
-3 4 11 -356.081 719.645 4
4 -1 11 564.274 808.56 2
-1 -3 11 222.924 735.837 2
4 -1 11 -10.5419 589.367 4
-3 4 11 10.9213 897.091 2
-1 -3 11 -3.97591 550.186 4
-4 4 -8 114775 2162.34 4
4 0 -5 2464.16 453.556 4
4 0 -5 3095.39 583.381 2
-4 4 -5 2347.33 331.641 4
0 -4 -5 2842.57 283.848 3
0 -4 -5 3271 535.437 4
-4 4 -2 6138.56 453.357 1
4 0 -2 6272.56 426.949 4
4 0 -2 6583.11 434.046 2
0 -4 -2 6157.14 472.202 1
0 -4 -2 5900.51 321.788 3
4 0 -2 7151.17 319.161 3
4 0 1 2616.93 301.197 3
0 -4 1 3447.48 367.632 1
0 -4 1 2731.87 193.299 2
-4 4 1 3105.67 304.013 2
-4 4 1 2999.55 316.47 4
-4 4 1 3013.54 355.147 1
0 -4 1 3278.3 401.936 3
-4 4 4 43087.1 1554.04 1
4 0 4 39850.9 1344.99 2
0 -4 4 43789.8 1174.94 3
4 0 4 43218.7 1063.84 4
4 0 4 43291.5 1009.82 3
0 -4 4 43535.5 1154.56 2
-4 4 4 41120.7 1362.34 2
-4 4 4 40552.8 1277.95 4
0 -4 4 43194.9 989.257 4
0 -4 7 971.585 508.76 3
4 0 7 1555.93 448.185 4
4 0 7 1395.05 682.305 2
0 -4 7 1634.12 414.438 4
0 -4 7 1541.58 569.263 2
4 0 7 1641.75 381.742 3
-4 4 7 1172.13 595.684 4
-4 4 7 1803.73 700.591 2
0 -4 10 46732.6 2113.76 2
-4 4 10 42677.5 2178.09 2
4 0 10 41999.4 2257.42 2
-4 4 10 43626.1 1971.53 4
4 0 10 47701.9 1386.32 3
4 0 10 45145.9 1780.41 4
0 -4 10 42847.9 1196.79 3
0 -4 10 44076.5 1665.36 4
4 0 13 2226.54 1211.89 2
0 -4 13 612.7 1275.2 1
-4 4 13 2213.66 986.288 4
-4 4 13 742.705 970.422 2
0 -4 13 2195.31 1025.32 2
4 1 -6 30434.7 1216.33 4
4 1 -3 578679 3873.16 4
1 -5 -3 570249 4398.41 2
1 -5 -3 571525 4590.41 1
1 -5 -3 571067 4111.24 4
4 1 -3 575196 3999.12 2
-5 4 0 147601 1283.45 4
1 -5 0 141377 1690.06 3
-5 4 0 146081 1245.15 2
4 1 0 144959 1476.52 3
-5 4 0 148918 1502.74 1
4 1 0 143784 1497.11 2
1 -5 0 144850 1585.92 1
4 1 0 141401 1435.91 4
1 -5 3 236702 3006.1 1
1 -5 3 238956 1839.22 4
1 -5 3 232789 2059.26 2
1 -5 3 234795 2619.03 3
-5 4 3 232634 2693.34 4
-5 4 3 233469 3152.77 1
-5 4 6 182742 3323.24 2
-5 4 6 183318 3104.37 4
4 1 6 184053 3423.35 2
1 -5 6 189841 2388.03 4
4 1 6 186233 2726.27 4
1 -5 6 188705 2809.86 3
1 -5 6 189541 2922.39 2
4 1 6 186956 2340.53 3
-5 4 9 76956.7 2425.04 4
1 -5 9 83188.9 1792.95 3
4 1 9 87467.2 2333.24 4
1 -5 9 88145.6 2617.28 2
1 -5 9 80595.1 2050 3
1 -5 9 88332.3 2085.51 4
4 1 9 88250.4 1800.52 3
4 1 9 81156.3 2803.52 2
-5 4 9 84766.4 2801.73 2
1 -5 12 38730.8 2158.6 2
-5 4 12 38446.2 2317.88 2
-5 4 12 36713.8 2089.03 4
4 1 12 36541.5 2302.55 2
1 -5 12 35393.6 1654.01 4
1 -5 12 36361.3 2539.66 1
4 1 12 35695.8 1851.49 4
4 2 -4 17879.8 812.22 4
4 2 -4 19725 928.995 2
2 -6 -4 17739.6 911.368 4
2 -6 -4 16996.1 990.131 2
2 -6 -4 17900.9 504.852 3
4 2 -4 19975.9 779.139 3
2 -6 -1 10112.2 600.539 1
-6 4 -1 9755.76 425.892 1
-6 4 -1 10513.1 324.619 4
4 2 -1 9367.38 470.17 3
4 2 -1 10792.5 487.84 4
4 2 -1 11062.4 479.156 2
2 -6 -1 9321.25 486.304 2
2 -6 -1 9506.14 506.656 3
-6 4 2 215106 2611.63 1
2 -6 2 228489 2579.42 3
2 -6 2 223873 1338.27 2
2 -6 2 215107 2501.17 1
4 2 2 224994 1764.69 1
-6 4 2 219840 2354.38 2
4 2 2 214453 2114 3
4 2 5 75843.1 2123.85 2
2 -6 5 74146.3 1802.94 3
4 2 5 75107.8 1440.83 3
-6 4 5 77009.8 2036.85 2
2 -6 5 73512.8 1612.21 2
2 -6 5 73880.8 2155.21 1
-6 4 5 74748.5 1895.78 4
4 2 5 71098.8 1648.14 4
2 -6 5 73786.5 1279.64 4
4 2 5 71046.7 1951.72 1
2 -6 8 13695.8 1036.59 2
4 2 8 13624 1008.03 4
4 2 8 14160 758.667 3
-6 4 8 15510.1 1125.12 4
2 -6 8 14117.4 811.201 4
4 2 8 12716.5 1223.64 2
-6 4 8 12561.7 1181.04 2
2 -6 8 10751.6 994.811 3
4 2 11 11345.1 1461.52 2
2 -6 11 13007.7 995.109 4
-6 4 11 10833 1242.23 4
-6 4 11 11808.1 1379.01 2
2 -6 11 10246.1 1506.58 1
4 2 11 12594.6 1185.11 4
2 -6 11 12606.7 1264.87 2
4 3 -5 60986.8 1546.65 4
3 -7 -5 61869.2 854.287 3
4 3 -5 60823 1684.45 2
3 -7 -5 60592.8 1736.75 4
4 3 -2 72278.2 1329.87 3
3 -7 -2 76981.2 1477.15 2
3 -7 -2 75757.2 1501.29 4
-7 4 -2 78897.7 1223.79 1
3 -7 -2 73031.9 1607.6 1
4 3 -2 77342.9 1354.55 4
3 -7 -2 75885 1188.82 3
4 3 -2 76220.9 1297.73 2
4 3 1 248051 2308.95 3
-7 4 1 248678 2313.94 4
3 -7 1 246331 2718.4 3
-7 4 1 246339 2233.93 2
-7 4 1 246410 2383.87 1
3 -7 4 66031.8 1866.81 1
-7 4 4 65073.9 1972.74 1
3 -7 4 59649 1238.89 2
3 -7 4 64409 1723.84 3
4 3 4 57208 1497.51 4
-7 4 4 63741.9 1648.95 4
4 3 4 63297.4 1320.33 3
3 -7 4 64734.3 982.842 4
-7 4 4 67831.7 1751.14 2
4 3 4 62251.6 1579.34 1
3 -7 7 6984.28 998.792 1
3 -7 7 5711.21 809.584 3
-7 4 7 6168.31 802.393 4
4 3 7 5544.53 956.773 2
4 3 7 5695.35 538.142 3
4 3 7 6711.51 736.81 4
3 -7 7 6358.4 513.752 4
-7 4 7 6641.88 897.371 2
3 -7 7 5557.43 690.389 2
4 3 10 19833.5 946.394 3
3 -7 10 20729.2 1097.11 3
4 3 10 17355.4 1576.99 2
3 -7 10 20852.1 1431.49 2
3 -7 10 20845.5 1091.3 4
-7 4 10 20611.6 1636.34 2
4 3 10 20182.9 1376.52 4
3 -7 10 19183.1 1711.67 1
-7 4 10 23489.9 1536.39 4
3 -7 13 1888.82 973.723 2
4 3 13 204.918 1037.88 2
-7 4 13 -90.4293 1092.38 2
4 4 -6 16038.8 891.13 4
4 -8 -6 14902.4 374.912 3
4 -8 -3 256724 2147.65 3
4 -8 -3 266874 3169.35 2
4 -8 -3 250417 3092.36 4
4 4 -3 265671 2719.16 2
4 -8 -3 259487 3475.3 1
4 4 -3 259386 2829.14 3
4 4 -3 265418 2784.86 4
-8 4 0 300825 2524.63 2
4 4 0 304483 2566.94 2
4 4 0 304982 2664.24 4
-8 4 0 298277 2276.97 1
-8 4 0 298076 2331.25 4
4 -8 0 304270 3020.66 3
4 -8 0 296786 1801.63 2
-8 4 0 302397 2593.98 3
4 4 0 287948 2650.6 3
4 4 0 290474 2151.04 1
-8 4 3 261311 3072.63 4
-8 4 3 266955 1883.06 3
4 -8 3 263668 1870.24 2
4 -8 3 259137 3238.54 1
-8 4 3 274634 3588.24 1
4 4 3 273042 2591.15 1
4 4 6 59189.7 1942.26 1
-8 4 6 57878.8 1917.4 2
4 -8 6 56092.7 1819.63 3
4 -8 6 58721.9 1555.12 2
4 -8 6 58038.6 2085.61 1
4 4 6 59445.9 2108 2
-8 4 6 57806.4 1857.59 4
4 -8 6 60590.9 1135.31 4
4 4 6 56897.4 1747.49 4
4 4 6 61044 1426.52 3
4 4 9 50087 1978.44 4
-8 4 9 50015.8 2074.54 4
4 -8 9 54500.7 1457.62 4
4 -8 9 55848.1 2028.41 2
4 4 9 55576 1498.19 3
-8 4 9 47910.1 2136.73 2
4 -8 9 51667.1 2436.86 1
4 4 9 54742.9 2456.77 2
4 4 12 33588.3 2337.93 2
-8 4 12 32465 1988.56 4
-8 4 12 28570.7 2069.58 2
4 -8 12 33543.2 2420.93 1
4 -8 12 32456 1930.19 2
4 4 12 29845.5 1853.56 4
4 5 -4 18760.7 1030.41 3
5 -9 -4 18983.4 605.655 3
4 5 -4 17074.4 856.913 2
5 -9 -4 16147.7 1028.19 2
5 -9 -4 18690.3 1220.7 1
5 -9 -4 18634 1003.85 4
4 5 -4 18379.6 836.302 4
-9 4 -1 239806 2632.6 3
-9 4 -1 251595 1871.54 1
5 -9 -1 243646 2554.03 4
4 5 -1 243254 2299.1 2
5 -9 -1 252099 2751.05 3
-9 4 -1 241936 2541.08 2
5 -9 -1 244272 2975.81 1
-9 4 -1 243250 2070.07 4
5 -9 -1 252283 2320.36 2
4 5 -1 235799 2648.92 3
4 5 -1 240392 2470.11 4
5 -9 2 52415.3 1404.65 1
-9 4 2 50831.4 1020.62 3
4 5 2 53533.4 1022.03 1
-9 4 2 53955.1 1347.91 4
-9 4 2 54300.7 1430.74 1
4 5 2 55210.7 1275.86 3
-9 4 2 52893.3 1314.26 2
4 5 5 96013.1 1812.7 3
5 -9 5 98635.4 1742.28 2
4 5 5 102090 2213.37 4
5 -9 5 100612 2496.91 1
4 5 5 106716 2599.84 2
5 -9 5 100398 1153.76 4
-9 4 5 103955 2352.53 4
-9 4 5 102585 2369.58 2
4 5 5 104301 2230.25 1
-9 4 8 7437.23 924.817 4
-9 4 8 8652.74 1023.39 2
5 -9 8 9677.24 1158.37 1
4 5 8 7897.29 905.722 4
4 5 8 8959.99 716.646 3
5 -9 8 9548.23 592.237 4
4 5 8 7468.04 1164.44 2
5 -9 8 9288.48 876.976 2
-9 4 11 37790.8 2192.15 2
4 5 11 36041.8 1963.99 4
5 -9 11 36688.1 1906.36 2
5 -9 11 36630 1612.22 3
-9 4 11 36413 2012.07 4
5 -9 11 40387.7 2465.17 1
4 5 11 39856.4 2455.38 2
5 -8 -5 65434 757.435 3
3 5 -5 66327 1694.87 2
3 5 -5 65511.9 1591.55 4
-8 3 -2 81085.7 1128.57 1
3 5 -2 76974 1377.58 4
3 5 -2 78167.4 1262.13 2
3 5 -2 77159.7 1551.77 3
5 -8 -2 77245.1 1349.32 3
-8 3 -2 76987.1 1517.05 3
5 -8 -2 74913.1 1544.39 4
5 -8 -2 76331.9 1518.97 2
5 -8 -2 78897.8 1775.1 1
-8 3 1 224283 2318.82 2
-8 3 1 228197 2139.46 3
3 5 1 230688 1898.64 1
3 5 1 216656 2331.53 3
5 -8 1 220032 2522.12 1
-8 3 1 228007 2361.52 4
-8 3 1 229593 2329.29 1
5 -8 4 261664 1473.21 4
-8 3 4 252712 3899.38 1
-8 3 4 273933 3401.81 4
3 5 4 262179 3152.22 1
-8 3 4 263687 1770.67 3
3 5 4 234723 3440.22 2
5 -8 4 266742 3580.62 1
5 -8 4 267286 2469.84 2
-8 3 4 238347 3238.02 2
3 5 4 263797 3258.21 4
3 5 4 257270 2634.25 3
3 5 7 79030.8 2556.69 2
3 5 7 79527.6 2208.16 4
5 -8 7 78646.9 2029.48 2
5 -8 7 76446.4 2522.71 1
5 -8 7 78852.8 1373.7 4
-8 3 7 80820.2 2294.34 4
3 5 7 81529.5 1652.34 3
-8 3 7 79537.2 2366.12 2
5 -8 10 14803.1 1530.91 1
5 -8 10 15788.3 1259.63 2
3 5 10 15384.3 808.775 3
5 -8 10 14117.3 845.296 4
5 -8 10 17432.5 1089.17 3
3 5 10 16010.2 1306.54 4
-8 3 10 13911.4 1263.88 4
-8 3 10 13820.7 1395.1 2
3 5 10 17043.5 1612.82 2
2 5 -6 44552 1362.19 4
2 5 -6 41617.1 1523.91 2
2 5 -3 513316 3531.48 2
2 5 -3 503138 3988.97 3
5 -7 -3 513233 4891.71 1
5 -7 -3 526603 4317.21 4
2 5 -3 506584 3519.7 4
-7 2 -3 520108 3902.03 3
5 -7 -3 516843 4365.83 2
-7 2 0 190178 1990.23 2
-7 2 0 193696 1962.47 3
-7 2 0 187278 1838.18 4
2 5 0 188391 2131.42 3
5 -7 0 191368 1726.39 4
-7 2 0 189031 1464.81 1
5 -7 0 190700 2236.05 1
5 -7 0 194205 1434.4 2
2 5 3 679458 4487.45 1
-7 2 3 679728 4755.71 2
5 -7 3 673608 4924.19 1
-7 2 3 671163 4751.06 4
5 -7 6 25573.4 1397.8 1
5 -7 6 25491.3 1111.5 2
2 5 6 24450.2 1344.78 1
2 5 6 27117.8 880.629 3
-7 2 6 25450.5 1233.9 4
2 5 6 26636.7 1461.64 2
5 -7 6 27015.3 743.532 4
2 5 6 26916.6 1267.45 4
-7 2 6 24778.9 1301.44 2
-7 2 9 106678 3063.68 2
-7 2 9 99206.5 2751.95 4
5 -7 9 106493 2309.89 3
5 -7 9 97669.1 3217.97 1
5 -7 9 101024 2742.63 2
2 5 9 99917.4 2738.47 4
5 -7 9 100110 1982.93 4
2 5 9 99526.3 1731.62 3
2 5 9 95480.4 3131.97 2
5 -7 12 6107.45 1116.29 2
2 5 12 6927.71 1451.65 2
-7 2 12 6462.1 1117.1 4
2 5 12 5938.57 1079.1 4
-7 2 12 5527.14 1204.97 2
5 -7 12 5897.52 1389.36 1
1 5 -7 125932 2323.42 4
5 -6 -4 32577.2 1315.46 2
5 -6 -4 32130.2 1248.19 4
1 5 -4 32887.9 939.664 4
1 5 -4 34218.3 1071.41 2
-6 1 2 19584.8 745.813 4
1 5 2 20058.3 698.306 1
5 -6 2 20114.7 767.053 1
1 5 2 19529.5 653.38 3
-6 1 2 19375 553 3
-6 1 2 18704.2 722.679 2
5 -6 5 120798 2159.58 2
-6 1 5 121041 1136.24 3
1 5 5 122053 1633.95 3
1 5 5 119800 2588.08 1
5 -6 5 129160 2674.62 1
-6 1 5 118335 2389.54 2
5 -6 5 123248 1361.85 4
1 5 5 128375 2740.2 2
-6 1 5 117643 2267.58 4
1 5 5 123097 2347.41 4
-6 1 8 31349.7 1480.01 4
1 5 8 33262.5 1824.85 2
1 5 8 32202.6 923.887 3
-6 1 8 31791.7 1660.03 2
5 -6 8 28470.7 1712.7 1
5 -6 8 28017.5 1461.03 2
5 -6 8 30228.7 1033.41 4
1 5 8 30362.1 1499.13 4
5 -6 8 33326.6 1259.85 3
-6 1 11 8558.77 1052.96 4
5 -6 11 9966.68 870.427 3
-6 1 11 7264.84 1164.07 2
5 -6 11 8490.79 1171.63 2
1 5 11 5327.63 1265.24 2
5 -6 11 7102.74 1309.4 1
1 5 11 9320.16 1143.92 4
5 -6 11 8998 813.504 4
0 5 -8 11586.8 847.966 4
0 5 -5 -129.469 428.82 2
5 -5 -5 384.659 438.45 4
0 5 -5 336.358 291.688 4
0 5 -2 307835 2084.26 4
5 -5 -2 302704 3178.16 1
5 -5 -2 319131 2807.47 4
5 -5 -2 314436 2800.15 2
0 5 -2 307711 2862.53 3
-5 0 -2 308170 2511.98 3
0 5 -2 309178 1962.95 2
-5 0 1 870.631 283.761 4
-5 0 1 946.19 234.298 3
0 5 1 1479.23 323.637 1
5 -5 1 754.031 288.049 1
5 -5 1 1267.27 170.41 2
-5 0 1 724.516 263.3 2
0 5 1 867.983 345.116 3
-5 0 4 140163 2187.13 4
0 5 4 141096 2332.59 4
5 -5 4 142803 1269.3 4
5 -5 4 144923 2494.25 1
5 -5 4 142065 2110.8 2
0 5 4 146014 2636.32 2
0 5 4 143172 1577.52 3
-5 0 4 145742 1365.82 3
0 5 4 150188 2593.72 1
-5 0 4 144646 2303.71 2
5 -5 7 825.018 546.508 2
5 -5 7 263.645 295.03 4
0 5 7 185.321 498.2 4
-5 0 7 436.32 149.653 3
0 5 7 -182.61 685.018 2
5 -5 7 592.855 409.325 3
-5 0 7 565.041 575.076 2
-5 0 7 629.199 442.969 4
0 5 7 510.664 248.989 3
0 5 10 91533.4 2804.83 4
-5 0 10 90186.3 2643.34 4
0 5 10 93151.4 3226.74 2
5 -5 10 89756.6 2117.34 4
5 -5 10 91176.3 3275.26 1
-5 0 10 89119.9 2927.95 2
5 -5 10 90741 2918.8 2
5 -5 10 90981.9 2085.71 3
-5 0 13 1121.6 974.625 2
-5 0 13 1486.38 844.38 4
5 -5 13 2781.42 1268.69 1
0 5 13 1569.26 915.227 4
0 5 13 1978.76 1099.27 2
5 -5 13 1786.6 1058.51 2
-1 5 -6 180518 2961.4 2
-1 5 -6 184336 2393.96 4
-4 -1 -3 239462 2241.71 3
-1 5 -3 239617 2165.79 2
5 -4 -3 237869 2702.86 4
5 -4 -3 235056 2802.18 2
-1 5 -3 237073 1851.01 4
5 -4 0 183067 1464.08 4
5 -4 0 186913 1688.97 1
-4 -1 0 177908 1623.6 4
-1 5 0 176134 1896.67 3
5 -4 0 180465 1409.86 2
-4 -1 0 175382 1634.41 3
-4 -1 0 180880 1699.55 2
-1 5 0 182001 1748.93 1
-4 -1 3 582816 3984.63 2
-4 -1 3 598433 3889.47 4
5 -4 3 589712 4165.1 1
-1 5 3 576262 4193.23 4
-1 5 3 593953 4552.22 2
-1 5 3 598408 4524.25 1
-1 5 3 587899 2901.98 3
5 -4 6 33099.2 975.292 4
-4 -1 6 33284.8 1250.44 4
5 -4 6 33804.9 1384.49 2
-4 -1 6 34040.7 785.195 3
-1 5 6 35339.9 1623.8 2
-1 5 6 33891.1 733.836 3
-4 -1 6 35476.9 1420.45 2
5 -4 6 34147.5 1119.99 3
-1 5 6 31327 1339.35 4
-4 -1 9 204322 1497.81 3
-4 -1 9 217701 3728.57 4
-1 5 9 221102 4040.92 4
-4 -1 9 223985 4251.11 2
5 -4 9 225280 3177.6 4
5 -4 9 218766 3046.02 3
-1 5 9 210134 4555.23 2
5 -4 9 219579 4237.61 2
-1 5 12 8912.85 1214.88 4
-4 -1 12 8361.95 1306.2 2
5 -4 12 7723.83 1236.77 2
-1 5 12 6493.33 1371.81 2
-4 -1 12 7218.59 1053.68 4
5 -4 12 5742.7 1376.98 1
-2 5 -7 133061 2179.26 4
-2 5 -4 9343.81 605.318 2
5 -3 -4 10304.6 764.494 2
5 -3 -4 10253.5 705.53 4
-3 -2 -4 10503.1 538.304 3
-2 5 -4 9755.98 464.86 4
-3 -2 -1 31586.7 739.297 3
5 -3 -1 32170.7 860.874 1
-3 -2 -1 30975.8 498.86 1
5 -3 -1 32993.3 766.363 4
5 -3 -1 30858.6 600.741 3
-3 -2 2 209464 2006.35 4
-2 5 2 217171 2416.44 1
-3 -2 2 215387 1862.13 3
5 -3 2 214452 2087.76 3
-3 -2 2 213761 1969.45 2
-2 5 2 211713 2298.86 2
-2 5 2 209204 2250.41 4
5 -3 2 215397 1934.86 1
-2 5 2 218868 1719.92 3
-2 5 5 28744.5 1350.91 2
-2 5 5 29786.6 1404.35 1
-3 -2 5 32772 850.04 3
-3 -2 5 30008.5 1192.77 2
5 -3 5 30779 1257.31 2
-3 -2 5 32893.7 1096.69 4
5 -3 5 29456.9 1009.32 3
-2 5 5 29038 571.34 3
5 -3 5 31610.1 874.993 4
-2 5 5 30605.8 1241.41 4
-3 -2 8 119047 2535.17 4
-3 -2 8 120080 2910.06 2
5 -3 8 124632 2301.14 4
-3 -2 8 125580 1724.2 3
5 -3 8 114199 2115.83 3
-2 5 8 123069 2845.41 4
5 -3 8 115917 2951.39 2
-2 5 8 124675 3251.84 2
-3 -2 11 7434.85 1157.54 2
-3 -2 11 6461.06 929.999 4
-2 5 11 6700.2 1052.56 4
-2 5 11 6012.37 1178.11 2
5 -3 11 6020.47 1127.09 2
5 -3 11 5998.77 793.979 4
-3 5 -8 71323.7 1745.23 4
-3 5 -5 22720.7 1000.44 2
-2 -3 -5 20799.1 699.152 3
5 -2 -5 21555 1123.41 2
-3 5 -5 21059.2 684.618 4
5 -2 -5 19080.6 963.72 4
5 -2 -2 268011 1528.98 3
-2 -3 -2 260787 2045.29 3
5 -2 -2 270286 2451.58 4
-3 5 -2 260968 2618.78 1
5 -2 -2 274913 2504.98 2
-2 -3 -2 264215 2285.51 1
5 -2 1 56925.5 740.542 4
-2 -3 1 57362.4 934.114 4
5 -2 1 59232.3 684.738 1
5 -2 1 58971.1 1018.72 3
-2 -3 1 56308.9 1046.89 1
-3 5 1 56490 960.247 2
-2 -3 1 56978.3 1004.1 3
-2 -3 1 59487.9 852.658 2
-3 5 1 58310.9 1111.98 1
-3 5 1 58665.9 1037.53 4
-3 5 4 24764.7 1155.52 2
-2 -3 4 25758.4 880.48 4
-3 5 4 28100.6 1258.3 1
-2 -3 4 25263 948.806 2
-2 -3 4 26127.5 834.099 3
5 -2 4 26752.5 745.053 4
-3 5 4 24991.1 1051.73 4
5 -2 4 26030.9 868.024 3
5 -2 4 25055.2 1068.33 2
5 -2 7 89581.8 2462.21 2
5 -2 7 92646.3 1932.2 4
-3 5 7 98354 2432.27 4
-2 -3 7 96192 2106.25 4
-3 5 7 93757.5 2624.12 2
5 -2 7 94817 1803.89 3
-2 -3 7 98892.6 2405.72 2
-2 -3 7 99208.3 1719.78 3
-2 -3 10 72029 1305.33 3
5 -2 10 67868 2678.66 2
5 -2 10 77913.8 1833.1 3
-2 -3 10 71397.1 2580.73 2
-2 -3 10 77710.3 2298.68 4
-3 5 10 71123.6 2810.75 2
-3 5 10 72547.9 2541.96 4
5 -2 10 71938.6 2097.3 4
5 -2 13 5370.42 1313.13 2
5 -2 13 5476.71 1465.3 1
-3 5 13 3370.19 1053.49 4
-2 -3 13 5178.46 1157.67 2
-3 5 13 5184.25 1353.68 2
-4 5 -9 100884 2189.19 4
-4 5 -6 106018 1655.12 4
5 -1 -3 558896 4134.81 2
5 -1 -3 562202 3966.66 4
-4 5 0 149157 1642.37 1
-4 5 0 145684 1054.62 2
-4 5 0 143577 1277.69 4
-1 -4 0 145688 1595.84 3
5 -1 0 147228 1151.74 1
5 -1 0 142394 1394.9 4
-1 -4 0 144632 1406.86 1
5 -1 0 148030 1502.01 2
5 -1 0 139515 1454.59 3
-1 -4 3 225251 2180.55 2
-4 5 3 225916 2766.08 2
-4 5 3 222930 2648.52 4
-1 -4 3 226216 2094.23 4
-4 5 3 234580 3048.58 1
-1 -4 3 232281 2408.99 3
5 -1 3 221280 2242.42 3
-1 -4 6 90091.5 1773.15 3
-1 -4 6 91292.2 1815.64 4
-1 -4 6 93529.7 2109 2
-4 5 6 89973.1 2394.73 2
-4 5 6 91737 2222.8 4
5 -1 6 93028.3 1796.64 4
5 -1 6 92638.3 2383.81 2
5 -1 6 89180.1 1693.87 3
-1 -4 9 111463 2938.3 2
5 -1 9 117692 2162.08 3
-1 -4 9 117171 1910.92 3
-1 -4 9 109358 2041.19 3
-4 5 9 113497 2954.56 4
5 -1 9 113429 3227.55 2
5 -1 9 114323 2534.45 4
-4 5 9 113820 3325 2
-1 -4 9 113782 2485.22 4
-1 -4 12 2199.75 961.712 2
-4 5 12 1986.86 829.7 4
5 -1 12 1759.65 1095.46 2
5 -1 12 2532.03 750.465 4
-4 5 12 1451.54 1051.49 2
-1 -4 12 2725.16 774.691 4
-5 5 -7 483.776 320.195 4
0 -5 -4 134590 1487.1 3
5 0 -4 131969 1482.3 3
5 0 -4 127511 2236.28 2
5 0 -4 127101 2105.43 4
5 0 -1 953.206 242.856 4
5 0 -1 579.293 206.71 3
0 -5 -1 805.017 311.561 1
5 0 -1 1097.6 248.188 2
-5 5 -1 849.842 280.014 1
0 -5 -1 866.829 285.2 3
0 -5 2 309544 2800.73 3
-5 5 2 311161 3080.7 1
5 0 2 285336 2430.15 3
-5 5 2 309347 2743.28 2
0 -5 2 307767 2995.16 1
0 -5 2 289870 1854.01 2
0 -5 2 307999 2074.09 4
5 0 5 751.531 315.261 3
-5 5 5 156.229 591.427 2
5 0 5 1001.21 405.181 4
0 -5 5 426.922 483.304 3
0 -5 5 1036.35 333.564 4
5 0 5 1361.66 656.685 2
-5 5 5 881.723 470.757 4
0 -5 5 1353.52 458.716 2
-5 5 5 1081.66 663.031 1
0 -5 8 17864.9 1026.57 3
5 0 8 17533.9 1370.78 2
0 -5 8 17762.3 1187.58 2
-5 5 8 15599.2 1159.44 4
5 0 8 19365.2 1071.49 4
5 0 8 17715.8 859.962 3
-5 5 8 18462.1 1343.76 2
0 -5 8 18360.8 975.708 4
0 -5 11 300.485 744.409 2
5 0 11 1639.28 652.416 4
-5 5 11 948.688 983.858 2
0 -5 11 882.515 581.663 4
-5 5 11 1000.92 785.266 4
5 0 11 719.528 912.314 2
1 -6 -5 83230.8 1150.97 3
5 1 -5 77211.2 1851.9 4
1 -6 -5 84852.8 2002.39 4
5 1 -5 78434.7 1980.7 2
1 -6 -2 23932 868.528 1
5 1 -2 25591.5 803.188 4
5 1 -2 25960.2 808.391 2
5 1 -2 25701.3 687.39 3
1 -6 -2 25023.7 681.489 3
-6 5 1 801389 4368.99 1
5 1 4 40669 1142.2 4
5 1 4 40334.7 1077.55 3
-6 5 4 41650.8 1346.4 4
1 -6 4 40324.2 920.155 4
1 -6 4 39378 1038.96 2
-6 5 4 44829.8 1646.92 1
-6 5 4 42397.7 1448.63 2
1 -6 4 42611.2 1551.59 1
1 -6 4 39374.9 1326.55 3
5 1 7 105189 1916.17 3
1 -6 7 100653 2299.15 3
1 -6 7 102171 2403.66 2
5 1 7 104107 2247.65 4
-6 5 7 103855 2732.77 2
5 1 7 107882 2834.84 2
1 -6 7 103624 1940.33 4
-6 5 7 106676 2605.5 4
-6 5 10 2332.77 786.915 4
1 -6 10 1787.39 977.608 1
1 -6 10 1773.63 581.124 4
-6 5 10 3200.67 1017.86 2
5 1 10 1501.9 950.078 2
1 -6 10 1565.44 722.754 2
1 -6 10 1633.11 528.417 3
5 1 10 2073.55 660.734 4
5 1 10 1917.83 503.221 3
1 -6 13 22764.8 2214.51 1
1 -6 13 23059.5 1844.18 2
5 1 13 19274.5 1986.52 2
-6 5 13 23128.8 2080.82 2
-6 5 13 23532.6 1854.08 4
5 2 -6 55655.7 1641.65 4
2 -7 -6 59132.6 935.436 3
2 -7 -3 537148 4300.86 4
5 2 -3 524662 3935.81 2
2 -7 -3 513412 4572.68 1
2 -7 -3 526819 4414.67 2
2 -7 -3 505212 2982.08 3
5 2 -3 503999 3386.61 3
5 2 -3 513810 3893.18 4
5 2 0 157894 1787.59 4
5 2 0 153242 1805.42 3
-7 5 0 156711 1587.43 2
2 -7 0 157232 2053.23 3
-7 5 0 151887 1558.06 4
-7 5 0 155784 1739.92 1
2 -7 0 155903 1990.38 1
5 2 0 158376 1810.9 2
2 -7 3 435482 4012.08 3
-7 5 3 443596 4457.56 1
5 2 3 437114 3174.53 1
2 -7 3 424982 4170.81 1
-7 5 3 418159 3862.97 4
5 2 3 424478 3348.6 3
-7 5 3 418737 3842.46 2
5 2 6 8865.94 720.166 4
5 2 6 7857.36 596.846 3
2 -7 6 7716.33 952.146 1
2 -7 6 9204.22 552.573 4
2 -7 6 9497.55 873.634 3
5 2 6 8204.68 862.518 1
-7 5 6 8630.56 909.831 2
-7 5 6 9296.57 836.664 4
2 -7 6 8753.14 694.831 2
5 2 6 8778.54 962.442 2
-7 5 9 52300.7 2269.54 2
5 2 9 55215 2415.19 2
-7 5 9 58591.2 2230.23 4
5 2 9 54381.2 1524.87 3
5 2 9 58188.5 1991.97 4
2 -7 9 56958.9 1618.53 4
2 -7 9 55939.7 2586.74 1
2 -7 9 54394.1 2004.77 2
2 -7 12 3360.96 969.692 2
-7 5 12 4449.74 1150.73 2
2 -7 12 3611.85 1312.33 1
-7 5 12 2833.19 962.533 4
5 2 12 3163.34 1139.37 2
5 2 12 4396.62 915.28 4
5 3 -4 211307 2767.79 4
3 -8 -4 204189 3183.53 2
3 -8 -4 211212 3048.92 4
3 -8 -4 210321 1870.82 3
3 -8 -4 215335 3457.38 1
5 3 -4 208040 2847.77 2
5 3 -1 187035 2113.1 3
-8 5 -1 183724 1552.73 4
5 3 -1 188031 2046 2
-8 5 -1 183439 1946.41 2
3 -8 -1 191924 2435.8 1
-8 5 -1 187240 1825.76 1
3 -8 -1 190191 2233.13 3
5 3 -1 186476 2135.22 4
3 -8 2 54806.8 1400.96 1
-8 5 2 56667.8 1444.53 1
5 3 2 56098.8 856.737 1
5 3 2 51208.7 1200.47 3
-8 5 2 53089.4 1302.61 4
-8 5 2 56463.5 1297.32 2
3 -8 2 55140.8 1495.96 3
3 -8 5 143269 1682.62 4
5 3 5 143090 2612.17 1
3 -8 5 135892 2611.2 3
5 3 5 136211 2123.81 3
3 -8 5 137103 2941.95 1
-8 5 5 145371 2723.71 4
5 3 5 140091 2874.11 2
5 3 5 131967 2372.74 4
3 -8 5 138319 2073.06 2
-8 5 5 137849 2741.89 2
3 -8 8 51646.1 2313.35 1
3 -8 8 50750.5 1360.71 4
5 3 8 49049.5 2200.54 2
-8 5 8 52613 2135.87 2
5 3 8 50118.1 1430.44 3
-8 5 8 52174.3 2004.39 4
5 3 8 49013.2 1789.29 4
3 -8 8 51637 1771.89 2
5 3 11 31490.4 2182.96 2
3 -8 11 31197.1 1763.99 2
3 -8 11 33657.2 1389.77 4
-8 5 11 32452.4 2084.33 2
-8 5 11 33122 1939.71 4
5 3 11 35227.7 1855.2 4
3 -8 11 32542.4 2344.51 1
3 -8 11 35890.2 1471.36 3
4 -9 -5 118478 1363.27 3
5 4 -5 113398 2208.75 4
5 4 -5 116385 2322 2
5 4 -2 58197 1231.94 2
4 -9 -2 57542.7 1428.94 4
4 -9 -2 58175.4 1362.03 2
5 4 -2 59583.8 1332 4
-9 5 -2 54618.6 1072.58 1
5 4 -2 54618.7 1303.02 3
4 -9 -2 57531.2 1536.13 1
4 -9 -2 55105.3 1218.1 3
5 4 1 260453 2704.56 3
-9 5 1 258459 2569.94 2
-9 5 1 270153 2660.69 1
-9 5 1 259243 2585.66 4
5 4 1 269057 1786.14 1
4 -9 1 266847 2946.48 1
4 -9 4 11217 1060.64 3
4 -9 4 15808.3 1052.18 1
-9 5 4 14353.1 911.539 4
-9 5 4 16479.8 1120.63 1
-9 5 4 16421.3 1039.85 2
4 -9 4 14331.9 576.816 2
5 4 4 14297.1 795.657 1
5 4 4 13268 747.102 3
-9 5 7 138349 3072.8 4
4 -9 7 135591 3376.31 1
4 -9 7 137402 2571.44 2
-9 5 7 137785 3174.43 2
5 4 7 133680 2784.29 4
5 4 7 141509 2352.41 3
5 4 7 138424 3379.34 2
4 -9 7 144878 1929.41 4
4 -9 10 9426.34 898.913 3
4 -9 10 11882.4 1152.66 2
4 -9 10 8119.97 1366.98 1
4 -9 10 10378.7 778.32 4
5 4 10 10163.5 799.713 3
5 4 10 9363.87 1385.55 2
-9 5 10 11303.8 1304.26 2
-9 5 10 11598 1240.78 4
5 4 10 9017.42 1038.84 4
5 -10 -6 65163.7 929.601 3
5 -10 -3 161135 2641.69 4
5 5 -3 158140 2313.29 4
5 -10 -3 168016 2656.11 2
5 -10 -3 153685 2878.34 1
5 -10 -3 151596 1979.37 3
5 5 -3 162463 2325.87 2
5 5 -3 153997 2411.38 3
5 -10 0 55544.9 882.628 2
5 5 0 56328.4 1277.09 2
5 -10 0 57310.1 1552.47 3
5 5 0 54579.3 1347.37 3
-10 5 0 57443.2 1129.97 1
-10 5 0 56953.3 1159.83 4
-10 5 0 54735.4 1251.31 2
5 5 0 59335.8 1092.6 1
5 5 0 57390.9 1317.7 4
5 -10 3 209012 1368.39 2
-10 5 3 206335 2885.62 2
5 -10 3 210600 3127.14 1
-10 5 3 223489 3337.93 1
5 5 3 214710 2241.77 1
5 5 3 204658 2619.24 3
5 -10 3 198759 3164.74 3
5 -10 6 38282.4 1746.18 1
5 5 6 38242 1500.8 4
5 -10 6 40155.5 866.262 4
-10 5 6 41433.9 1686.11 2
5 5 6 39139.5 1559.42 1
-10 5 6 40178.5 1619.61 4
5 5 6 38567.8 1250.86 3
5 5 6 39966.8 1807.43 2
5 -10 6 38682.7 1211.74 2
-10 5 9 58428.7 2343.91 4
5 5 9 62011.2 1714.49 3
5 -10 9 58274.1 2609.66 1
5 -10 9 61526.6 2043.78 2
5 -10 9 63480.9 1457.75 4
5 5 9 59507 2573.79 2
5 5 9 57690.6 2175 4
-10 5 9 60773 2429.58 2
5 5 12 2226.99 885.306 4
-10 5 12 2792.97 1024.39 4
5 -10 12 -75.7977 1091.28 1
-10 5 12 2672.44 1059.2 2
5 -10 12 872.759 800.493 2
5 5 12 255.689 1081.55 2
6 -11 -4 189895 2153.78 3
5 6 -4 193824 2764.08 4
5 6 -4 191131 2940.24 3
6 -11 -4 188586 3503.54 1
6 -11 -4 181440 3122.43 2
5 6 -4 182417 2676.91 2
-11 5 -1 148348 2194.82 2
-11 5 -1 148450 1818.78 4
5 6 -1 156279 2062.19 2
6 -11 -1 152171 2458.74 3
5 6 -1 151521 2181.09 4
6 -11 -1 151382 1932.87 2
6 -11 -1 152034 2637.47 1
-11 5 -1 153237 1684.32 1
5 6 -1 146584 2338.17 3
-11 5 2 164085 2426.69 2
5 6 2 164318 1837.04 1
5 6 2 159100 2408.15 3
-11 5 2 164445 2469.68 4
6 -11 2 158393 2826.37 3
6 -11 2 168818 2657.2 1
-11 5 2 160444 2566.57 1
-11 5 2 161460 2048.21 3
6 -11 5 142506 1895.81 2
-11 5 5 149012 2919.01 4
5 6 5 139892 2333.24 3
5 6 5 139284 2514.78 1
-11 5 5 143141 2881.28 2
6 -11 5 145163 3042.9 1
5 6 5 141838 2730.2 4
5 6 5 137055 3033.46 2
6 -11 8 100472 3170.55 1
5 6 8 104137 2764.72 4
-11 5 8 102014 2875.88 4
5 6 8 99658.7 3218.77 2
-11 5 8 101507 2977.41 2
5 6 8 105984 2231.26 3
6 -11 8 105924 1551.07 4
6 -11 8 106201 2394.1 2
5 6 11 59127.8 2486.97 4
5 6 11 60411.7 2957.25 2
6 -11 11 57776.5 2037.73 3
-11 5 11 51438 2609.22 2
6 -11 11 54533.9 2850.73 1
-11 5 11 56524.4 2528.73 4
6 -11 11 58176.3 2273.03 2
4 6 -5 105223 2076.06 4
4 6 -5 101684 2149.41 3
4 6 -5 100214 2120.09 2
6 -10 -5 107512 1273.62 3
6 -10 -5 105687 2890.96 1
-10 4 -2 60200.9 1474.72 3
4 6 -2 59963.8 1530.83 3
4 6 -2 59196.1 1351.64 4
4 6 -2 60035.8 1225.29 2
6 -10 -2 58885.9 1493.4 4
6 -10 -2 60512.6 1441.98 2
6 -10 -2 62326.1 1751.38 1
-10 4 -2 58203.8 998.456 1
6 -10 -2 61888.6 1418.44 3
6 -10 1 689.892 432.642 1
4 6 1 946.961 406.912 3
-10 4 1 1172.86 358.911 4
-10 4 1 673.201 294.179 3
4 6 1 804.7 245.039 1
-10 4 1 708.353 314.211 2
-10 4 1 991.787 343.023 1
-10 4 4 115613 1423.54 3
-10 4 4 116710 2749.27 1
-10 4 4 119172 2360.6 4
-10 4 4 115585 2367.42 2
6 -10 4 111417 1503.53 2
4 6 4 110130 2009.34 1
4 6 4 109058 1945.67 3
6 -10 4 113312 2443.83 1
6 -10 7 1658.55 518.667 2
4 6 7 2548.72 690.169 4
6 -10 7 1455.83 254.992 4
4 6 7 1161.91 435.241 3
6 -10 7 1366.44 769.588 1
4 6 7 2248.88 894.216 2
-10 4 7 1281.07 627.993 2
-10 4 7 1937.39 665.122 4
6 -10 10 46205.9 1288.87 4
4 6 10 47809.3 2495.13 2
6 -10 10 48750.4 2482.61 1
4 6 10 48300 1495.84 3
6 -10 10 47304.3 1979.47 2
4 6 10 47662.4 2137.91 4
-10 4 10 46165.2 2274.06 2
6 -10 10 48405.7 1821.58 3
-10 4 10 48445.3 2183 4
3 6 -6 98287.9 2282.97 2
3 6 -6 97337.5 2075.85 4
3 6 -3 73168.4 1773.13 3
3 6 -3 72740.4 1417.46 2
6 -9 -3 76864.8 2067.51 1
6 -9 -3 73280 1790.45 2
6 -9 -3 76280.7 1311.3 3
6 -9 -3 73716.8 1765.51 4
3 6 -3 75421 1498.67 4
3 6 0 506195 3916.89 3
-9 3 0 509588 3645.82 2
-9 3 0 505272 3637.14 3
6 -9 0 509920 3233.14 4
6 -9 0 506523 4127.78 1
3 6 0 516817 3314.64 1
3 6 0 510313 3443.04 2
-9 3 3 35135.8 1212.87 4
-9 3 3 35331.6 1409.47 1
3 6 3 33799.5 1057.41 3
6 -9 3 31127.9 683.781 2
-9 3 3 32608.7 804.927 3
3 6 3 31682.5 1009.59 1
-9 3 3 34421.3 1213.68 2
6 -9 3 32845.7 1239.31 1
6 -9 6 107625 1253.65 4
3 6 6 105556 2564.14 1
6 -9 6 108494 2093.98 2
3 6 6 109043 2824.58 2
6 -9 6 105990 2753.41 1
-9 3 6 105128 2563.69 2
-9 3 6 110906 2542.8 4
3 6 6 113743 1954.55 3
3 6 6 108706 2489.09 4
3 6 9 15819.2 847.753 3
3 6 9 12625.8 1355.15 2
6 -9 9 14669.9 1129.09 2
3 6 9 12069 1150.89 4
-9 3 9 12934.1 1276.19 2
6 -9 9 14685.6 1472.58 1
-9 3 9 13344.8 1217.11 4
6 -9 9 13616.1 720.58 4
-9 3 12 42054.6 2239.69 4
3 6 12 43529 2288.99 4
-9 3 12 42299.2 2472.2 2
3 6 12 42601.3 2647.57 2
6 -9 12 43271.4 2206.81 2
6 -9 12 40616.7 2580.22 1
2 6 -7 127060 2448.03 4
2 6 -4 60282.6 1405.35 2
6 -8 -4 57893.9 843.756 3
2 6 -4 59386 1336.36 4
6 -8 -4 60317.2 1700.77 4
6 -8 -4 59514.8 1749.22 2
2 6 -4 58310.5 1568.11 3
6 -8 -4 58412.7 1967.28 1
6 -8 -1 348691 3362.18 1
2 6 -1 347989 2413.77 2
6 -8 -1 355202 2935.88 4
6 -8 -1 341376 2689.56 2
2 6 -1 352899 2772.83 4
2 6 -1 343143 3032.08 1
-8 2 -1 354563 2580.25 4
2 6 -1 347497 3240.66 3
2 6 2 314563 2723.42 1
-8 2 2 319273 3378.07 1
-8 2 2 314438 3071.74 4
2 6 2 307924 2857.87 3
-8 2 2 315275 3038.47 2
6 -8 2 314354 1631.42 2
-8 2 2 323042 2436.28 3
6 -8 2 316782 3150.7 1
6 -8 5 49060.5 1735.37 1
2 6 5 49073.7 1590.63 4
-8 2 5 50388.7 1597.16 4
2 6 5 47652.3 1203.44 3
6 -8 5 47189 703.619 4
-8 2 5 51253.6 804.505 3
2 6 5 47355 1620.83 1
6 -8 5 46651.5 1309.89 2
2 6 5 50472.7 1823.24 2
2 6 8 38210.9 1147.08 3
6 -8 8 36316.4 1012.38 4
6 -8 8 34033.9 1529.78 2
-8 2 8 35758.3 1766.81 2
2 6 8 35208.7 1645.18 4
6 -8 8 37511.3 1953.92 1
2 6 8 35289.7 1908.91 2
-8 2 8 32864.6 1579.59 4
2 6 11 64404.6 3033.26 2
6 -8 11 65110.6 2045.42 3
6 -8 11 66298.4 2569 2
-8 2 11 63187 2507.3 4
-8 2 11 63725.3 2728.75 2
2 6 11 68545.4 2625.34 4
6 -8 11 61502.9 2933.98 1
1 6 -5 29648.6 1118.5 2
1 6 -5 28561.3 968.108 4
6 -7 -2 25417.3 918.127 4
1 6 -2 25968.7 651.111 2
1 6 -2 24923 739.328 4
-7 1 -2 25483.1 857.872 3
1 6 -2 28083.9 1041.44 3
6 -7 -2 25482.5 892.266 2
6 -7 -2 24024.1 1022.83 1
-7 1 1 80682.9 1393.2 2
1 6 1 83598.8 1437.84 3
6 -7 1 84184.3 818.459 2
1 6 1 86747.4 1331.55 1
6 -7 1 86384 1478.96 1
6 -7 1 85985.7 916.149 4
-7 1 1 83957.1 1285.39 3
-7 1 1 84482.3 1412.53 4
-7 1 4 78206.7 1815.72 2
1 6 4 71653.3 1809.51 1
6 -7 4 73563.5 1453.4 2
1 6 4 71789.4 1741.27 4
-7 1 4 75020.9 1077.89 3
-7 1 4 75714 1758.77 4
1 6 4 72061.4 1329.71 3
6 -7 4 75878.4 1887.47 1
1 6 4 76108.1 2029.42 2
1 6 7 43265.3 1104.99 3
-7 1 7 38806 1573.94 4
1 6 7 39677.1 1621.69 4
-7 1 7 36206.1 518.913 3
-7 1 7 38828.1 1664.04 2
6 -7 7 39232.1 1519.63 2
1 6 7 44615 1964.67 2
6 -7 7 40836.8 990.302 4
6 -7 7 39676.6 1821.53 1
-7 1 10 11821.2 1266.85 2
6 -7 10 9404.68 1302.18 1
1 6 10 11253.3 1449.24 2
6 -7 10 10156.8 893.446 3
1 6 10 10240.6 1176.29 4
6 -7 10 11068.2 1187.58 2
6 -7 10 11140.2 772.732 4
-7 1 10 9491.53 1050.16 4
0 6 -6 344653 4043.46 2
0 6 -6 354091 3433.76 4
6 -6 -3 9816.27 388.931 3
-6 0 -3 8766.93 555.762 3
0 6 -3 9467.39 488.438 2
6 -6 -3 9066.55 803.768 1
6 -6 -3 9094.45 650.418 4
0 6 -3 9221.67 466.079 4
6 -6 -3 9529.61 693.441 2
0 6 0 520334 3601.23 3
-6 0 0 527662 3214.81 3
-6 0 0 526521 3388.44 2
6 -6 0 524293 2807.4 4
-6 0 3 6462.2 533.718 2
0 6 3 7641.63 718.017 2
0 6 3 7061.85 605.784 1
-6 0 3 7025.12 557.054 4
0 6 3 8482.67 647.94 4
0 6 3 7133.73 466.77 3
6 -6 3 6553.62 572.57 1
-6 0 3 8317.49 405.265 3
-6 0 6 275863 1976.33 3
-6 0 6 276143 3697.53 4
0 6 6 291498 2509.21 3
-6 0 6 283836 3928.67 2
0 6 6 285251 4435.16 2
6 -6 6 286760 3692.53 2
6 -6 6 284896 4226.54 1
0 6 6 287601 3913.85 4
6 -6 6 292489 2389.98 4
0 6 9 4008.69 1006.15 2
6 -6 9 4382.83 553.193 4
6 -6 9 4148.21 657.321 3
6 -6 9 5175.73 927.115 2
-6 0 9 3515.69 743.412 4
-6 0 9 4999.04 897.136 2
0 6 9 4009.75 857.418 4
6 -6 9 2853.15 943.741 1
0 6 9 5031.51 389.842 3
-6 0 12 116065 3759.44 2
6 -6 12 107046 3947.26 1
0 6 12 114165 4045.52 2
0 6 12 111586 3521.42 4
-6 0 12 108379 3278.52 4
6 -6 12 110171 3557.64 2
-1 6 -7 99924.4 2000.18 4
-5 -1 -4 44436.8 1145.2 3
-1 6 -4 44957.9 1176.79 2
6 -5 -4 44734.2 1475.11 2
-1 6 -4 45296.8 964.494 4
6 -5 -4 46994.7 1432.86 4
6 -5 -1 781560 4389.96 1
6 -5 2 28785.8 818.731 1
-1 6 2 28709.9 790.194 3
-1 6 2 28644.3 936.222 4
-5 -1 2 29086.3 719.129 3
-1 6 2 30954.4 931.824 1
-5 -1 2 29015.7 838.453 2
-1 6 2 31020 969.58 2
-5 -1 2 29986.7 872.666 4
6 -5 5 76085.1 1141.45 4
-1 6 5 76754.1 1921.96 4
-1 6 5 73999.1 2093.08 1
6 -5 5 72180.2 1952.22 1
6 -5 5 71623.7 1748.04 2
-5 -1 5 76486.2 1763.94 4
-5 -1 5 72852.9 1136.24 3
-5 -1 5 73376.3 1845.7 2
-1 6 5 75933.5 2127.1 2
-1 6 5 73122.6 1162.67 3
-5 -1 8 6765.97 362.221 3
6 -5 8 7030.34 687.635 3
-1 6 8 6062.75 364.417 3
6 -5 8 7216.21 1055.59 1
6 -5 8 7880.07 976.903 2
-1 6 8 5907.47 1025.14 2
-1 6 8 5913.82 858.107 4
6 -5 8 7140.67 594.445 4
-5 -1 8 6656.6 756.068 4
-5 -1 8 6778.12 879.016 2
-5 -1 11 13883.7 1402.46 2
6 -5 11 12961.9 1556.22 1
6 -5 11 16538.2 1025.54 4
-1 6 11 15135.9 1572.64 2
6 -5 11 13531.4 1362.69 2
-1 6 11 14586.5 1340.77 4
-5 -1 11 14030.4 1240.43 4
6 -5 11 15135.5 1000.49 3
-2 6 -8 12758 826.721 4
-2 6 -5 84050.2 1371.75 4
6 -4 -5 79142.8 1942.09 4
-2 6 -5 83961.3 1756.34 2
-4 -2 -5 78011.7 1483.26 3
6 -4 -2 212440 2326.38 2
6 -4 -2 214602 2728.29 1
-2 6 -2 214970 2552.43 1
6 -4 -2 213566 2338.06 4
6 -4 -2 215302 1469.8 3
-4 -2 -2 216795 2091.55 3
-2 6 -2 219037 1497.35 4
6 -4 1 10745.6 440.919 1
-2 6 1 10829.9 494.068 2
-2 6 1 10538.1 559.027 1
-4 -2 1 9522 464.605 3
-2 6 1 10767.5 539.48 4
-4 -2 1 10830.9 482.126 2
6 -4 1 11021.8 331.811 4
-4 -2 1 10411.9 500.537 4
6 -4 1 10920.6 436.859 2
-2 6 1 10363.8 576.64 3
-2 6 4 18942.2 1060.69 1
-2 6 4 16284.1 565.417 3
-2 6 4 16459.3 935.879 4
-4 -2 4 17926.9 815.686 4
6 -4 4 17586 784.844 3
6 -4 4 17599.2 911.698 1
-4 -2 4 18618.1 877.309 2
-4 -2 4 17058.8 645.514 3
-2 6 4 16180.1 1076.54 2
6 -4 4 18316.9 532.858 4
6 -4 4 18270.2 902.721 2
-4 -2 7 129205 2575.27 4
-2 6 7 118878 1206.91 3
-2 6 7 124157 2789.13 4
-4 -2 7 129169 1698.8 3
-4 -2 7 129384 2778.81 2
6 -4 7 126132 2257.19 3
6 -4 7 130946 2864.97 2
6 -4 7 130784 2032.3 4
-2 6 7 135394 3219.6 2
-4 -2 10 22135.9 1507.62 2
6 -4 10 21828.9 1135.91 3
-4 -2 10 21358.6 1334.36 4
-2 6 10 20009.7 1444.35 4
6 -4 10 20170.5 1575.12 2
6 -4 10 21734 1116.43 4
-2 6 10 20109 1651.16 2
6 -4 10 17654.5 1585.64 1
-2 6 13 22601.6 2090.8 2
6 -4 13 21538.2 1928.16 2
-4 -2 13 19674.3 1820.09 2
-4 -2 13 19176.9 1544.19 4
6 -4 13 19944.1 2009.33 1
-2 6 13 19796.9 1725.95 4
-3 6 -6 149969 2633.6 2
-3 6 -6 154220 1993.83 4
6 -3 -3 57166.2 1370.17 4
-3 -3 -3 53430.8 1070.21 3
6 -3 -3 58899.3 1432.65 2
-3 6 -3 55167.9 994.096 2
-3 6 -3 56263.8 737.364 4
6 -3 -3 55366.4 658.974 3
-3 6 3 7388.68 607.361 4
6 -3 3 7687.33 520.284 1
-3 -3 3 6906.03 477.481 2
-3 -3 3 7750.29 472.537 3
-3 -3 3 6657.91 482.853 4
6 -3 3 6319.4 496.403 3
-3 6 3 7486.19 404.333 3
-3 6 3 8186.31 663.431 1
-3 6 3 8172.72 652.873 2
-3 -3 6 192497 2778.69 4
6 -3 6 192049 2616.02 3
-3 6 6 198962 3271.9 4
6 -3 6 193044 3288.53 2
-3 -3 6 199130 2271.49 3
-3 6 6 202356 3643.84 2
-3 -3 6 190958 3050.92 2
6 -3 6 197148 2371.2 4
-3 -3 9 14962.3 1222.8 2
-3 6 9 13635 1385.64 2
-3 -3 9 13048.5 1008.81 4
6 -3 9 13283.1 1260.07 2
-3 6 9 13495.3 1142.87 4
6 -3 9 13625 867.788 3
-3 -3 9 13402.1 635.435 3
6 -3 9 13818.7 902.193 4
-3 -3 9 11570.6 654.71 3
-3 -3 12 66523.3 2794.71 2
-3 6 12 70282.5 2823.63 4
-3 -3 12 67289.4 2442.89 4
6 -3 12 67257.6 2971.94 2
-3 6 12 70778.6 3192.64 2
6 -3 12 67107.3 3110.33 1
-4 6 -7 110435 1829 4
6 -2 -4 33377.8 1168.57 4
-4 6 -4 34978.8 655.198 4
6 -2 -4 32338.2 597.216 3
-2 -4 -4 34225.9 889.668 3
6 -2 -4 31562.4 1194.55 2
-4 6 -1 12802.2 583.842 1
6 -2 -1 12648.6 549.024 2
-2 -4 -1 12436.3 529.545 3
-2 -4 -1 13094 481.207 1
6 -2 -1 13294.3 480.666 3
6 -2 -1 12925.8 554.104 4
-4 6 -1 13573.7 340.158 4
-2 -4 2 202827 1986.3 4
6 -2 2 204607 1687.31 1
-2 -4 2 205954 1810.4 2
-4 6 2 209024 2510.58 1
-2 -4 2 203360 2116.51 3
-4 6 2 206685 2347.06 4
-2 -4 2 209486 2507.89 1
-4 6 2 205052 2296.35 2
6 -2 2 205495 2149.34 3
6 -2 5 70559.4 1515.89 3
-2 -4 5 69210.5 1640.31 2
-2 -4 5 70673.6 1532.3 4
-4 6 5 68171.4 1821.94 4
-4 6 5 69519.5 1998.07 2
6 -2 5 72061.6 1390.34 4
-2 -4 5 70503.3 1450.98 3
6 -2 5 70609.1 1904.33 2
-4 6 5 71228 2171.11 1
-4 6 8 3041.5 897.1 2
6 -2 8 2490.17 489.201 3
-2 -4 8 2780.05 567.212 4
-2 -4 8 2502.11 671.581 2
6 -2 8 3357.09 832.4 2
6 -2 8 2582.82 521.011 4
-4 6 8 3123.59 727.058 4
-2 -4 8 2129.91 494.218 3
-4 6 11 4181.62 1157.15 2
6 -2 11 5209.18 795.446 4
-4 6 11 4974.64 955.651 4
-2 -4 11 6377.86 866.7 4
-2 -4 11 5112.91 989.393 2
6 -2 11 5594.75 1145.76 2
-5 6 -8 34052.7 1117.24 4
6 -1 -5 126931 2559.1 2
-5 6 -5 130778 1424.27 4
-1 -5 -5 128260 1633.49 3
6 -1 -5 123530 2317.89 4
-1 -5 -2 14453.7 545.5 3
6 -1 -2 13139.6 458.557 3
-1 -5 -2 14371.4 639.185 1
6 -1 -2 14974.4 651.15 4
-5 6 -2 14240.7 670.679 1
-5 6 4 31080.5 1390.24 1
-5 6 4 30171.1 1261.05 2
6 -1 4 30942.1 913.069 4
-5 6 4 29881.7 1198.21 4
6 -1 4 30357.7 979.682 3
-1 -5 4 32176.3 923.624 4
-1 -5 4 31618.5 983.264 2
-1 -5 4 30233.1 1051.4 3
-5 6 7 133194 2914.46 4
6 -1 7 122252 2140.5 3
-1 -5 7 129132 2701.14 2
6 -1 7 125553 3039.37 2
-5 6 7 129531 3108.6 2
6 -1 7 123517 2301.78 4
-1 -5 7 116501 2171.19 4
-1 -5 7 129357 2279.73 3
-1 -5 10 2535.82 605.2 4
-5 6 10 4059.49 853.912 4
6 -1 10 2283.9 921.086 2
6 -1 10 2807.04 547.202 3
-1 -5 10 3657.64 872.628 2
6 -1 10 2546.48 652.784 4
-5 6 10 1370.23 914.261 2
-1 -5 10 2319.21 467.818 3
6 -1 13 31972.9 2337.28 2
6 -1 13 34381.4 2487.2 1
-1 -5 13 32645 2644.46 1
-5 6 13 34981.2 2192.8 4
-5 6 13 35814.9 2504.95 2
-1 -5 13 32277.9 2134.14 2
0 -6 -6 255880 2282.9 3
6 0 -3 7501.74 552.119 4
6 0 -3 6132.44 572.645 2
0 -6 -3 6940.8 423.229 3
6 0 -3 6981.03 412.593 3
-6 6 0 437374 3079.19 1
0 -6 0 440888 2996.43 1
6 0 0 446844 2877.41 4
0 -6 0 444645 3184.83 3
-6 6 3 11258.7 727.792 4
0 -6 3 10122.2 794.142 1
-6 6 3 12232 838.449 1
6 0 3 10435.3 607.126 3
-6 6 3 10298.5 724.547 2
0 -6 3 9849.08 466.703 2
0 -6 3 9607.17 697.483 3
0 -6 3 10834.1 503.046 4
0 -6 6 342842 3837.94 2
0 -6 6 339324 3285.12 4
6 0 6 335904 3641.24 4
-6 6 6 327963 4553.21 2
-6 6 6 340406 4392.5 4
6 0 6 339727 4614.17 2
6 0 6 333285 3368.71 3
0 -6 6 337560 3888.71 3
6 0 9 6550.9 770.879 4
0 -6 9 9087.78 1005.47 2
0 -6 9 7703.66 753.855 4
6 0 9 6671.4 1099.78 2
-6 6 9 5714.32 932.928 4
6 0 9 6448.43 645.377 3
-6 6 9 6359.28 1086.04 2
0 -6 9 5871.45 774.065 3
-6 6 12 37415 2154.49 4
-6 6 12 43869.5 2541.98 2
6 0 12 44014.6 1958.55 4
0 -6 12 44155.6 2806.98 1
6 0 12 41952.3 2496.85 2
0 -6 12 46530.3 2275.1 2
1 -7 -4 34818.9 830.737 3
6 1 -4 33719.1 1162.29 4
6 1 -4 35408.8 956.569 3
6 1 -4 33146.9 1216.28 2
1 -7 -1 156446 2033.96 1
-7 6 -1 156262 1828.94 1
-7 6 -1 158954 1542.05 2
6 1 -1 159504 1885.33 2
6 1 -1 156745 1813.74 3
-7 6 -1 157969 1246.09 4
1 -7 -1 155140 1898.7 3
1 -7 2 43808.3 1237.25 1
-7 6 2 40860.5 1144 4
1 -7 2 38831.8 1205.87 3
6 1 2 39787 1051.13 3
6 1 2 39655.3 642.814 1
1 -7 2 41704.6 638.094 2
-7 6 2 38854.1 1072.58 2
-7 6 2 42448.8 1236.97 1
-7 6 5 1044.23 549.716 2
-7 6 5 776.206 483.631 4
6 1 5 1196 661.693 2
1 -7 5 218.012 585.806 1
6 1 5 905.633 386.637 4
6 1 5 701.269 362.462 3
1 -7 5 750.581 359.584 2
1 -7 5 532.708 277.462 4
1 -7 5 738.427 599.327 3
-7 6 8 16468.2 1210.4 4
1 -7 8 15172.9 870.631 4
-7 6 8 17029.2 1338.29 2
6 1 8 14364.6 843.402 3
1 -7 8 13415.4 1092.96 3
6 1 8 17675.8 1465.38 2
1 -7 8 18802 1532.01 1
1 -7 8 16907.1 1123.64 2
6 1 8 15273 1021.12 4
1 -7 11 15542.7 1730 1
-7 6 11 14030.4 1487.12 2
6 1 11 10523.8 1436.58 2
1 -7 11 10905.7 1182.46 2
-7 6 11 10873.4 1270.05 4
1 -7 11 13130.3 1015.8 4
6 1 11 11762.2 1142.68 4
6 2 -5 25526.3 1097.82 4
6 2 -5 29333.9 1003.07 3
2 -8 -5 29979.3 758.736 3
6 2 -5 26639.6 1188.72 2
6 2 -2 320665 2910.33 2
2 -8 -2 315949 2710.18 3
-8 6 -2 319143 2778.03 1
2 -8 -2 305314 3263.51 1
6 2 -2 316960 3002.44 4
6 2 -2 299697 2696.5 3
-8 6 1 327116 2822.47 4
-8 6 1 327123 2671.96 2
2 -8 1 332352 3119.85 1
6 2 1 322570 2895.34 3
-8 6 1 334577 2985.85 1
2 -8 1 325994 3341.24 3
6 2 1 323938 2767.89 4
2 -8 4 27226.1 800.857 2
6 2 4 26258.8 972.967 3
-8 6 4 25869.5 1172.02 2
2 -8 4 25789.6 738.5 4
2 -8 4 28311.4 1274.48 3
2 -8 4 25880.1 1296.71 1
-8 6 4 25624 1154 4
6 2 4 27702.6 1028.74 1
-8 6 7 149052 3172.52 4
-8 6 7 145095 3264.61 2
2 -8 7 143309 3536.7 1
2 -8 7 143454 2925.31 3
6 2 7 145246 2802.9 4
6 2 7 142025 3343.8 2
6 2 7 145877 2373.24 3
2 -8 7 150354 2729.13 2
2 -8 7 152923 2202.98 4
-8 6 10 50495.2 2409.44 2
6 2 10 54560.7 1634.44 3
2 -8 10 51385.8 2084.53 2
2 -8 10 51996.3 1636.54 4
6 2 10 55193.7 2090.72 4
2 -8 10 51056.1 2656.61 1
6 2 10 54066.1 2571.02 2
-8 6 10 53513.5 2296.71 4
3 -9 -6 74940.8 1120.96 3
3 -9 -3 8848.49 828.192 1
6 3 -3 7140.17 607.83 2
6 3 -3 7479.47 632.941 3
-9 6 -3 9532.21 642.676 1
3 -9 -3 8957.91 745.384 2
3 -9 -3 8144.71 522.222 3
6 3 -3 7802.45 616.54 4
6 3 0 531883 3703.21 4
6 3 0 528098 3796.15 3
-9 6 0 539420 3556.26 1
3 -9 0 540516 4192.03 1
-9 6 0 520616 3258.82 4
3 -9 0 546446 4332.01 3
6 3 0 542468 3796.17 2
-9 6 0 538602 3425.1 2
-9 6 3 142623 2399.75 2
-9 6 3 144102 2680.07 1
3 -9 3 144016 2553.86 1
6 3 3 142583 2142.53 3
3 -9 3 142050 2571.53 3
6 3 3 143514 1702.83 1
3 -9 3 144835 1274.31 2
6 3 6 122555 2185.6 3
3 -9 6 123506 3088.36 1
6 3 6 122281 2469.91 4
3 -9 6 125490 2766.27 3
3 -9 6 131353 1805.22 4
6 3 6 121829 2976.78 2
-9 6 6 124753 2841.69 2
3 -9 6 128963 2203.17 2
6 3 6 128917 2721.09 1
-9 6 6 128796 2812.56 4
3 -9 9 1730.54 947.613 1
6 3 9 512.656 859.018 2
6 3 9 1705.64 496.219 3
-9 6 9 1625.02 783.193 2
3 -9 9 813.725 578.982 2
6 3 9 304.306 606.52 4
3 -9 9 875.4 430.69 4
-9 6 9 1670.88 761.364 4
3 -9 12 39077.2 2064.86 2
6 3 12 39279 2073.72 4
-9 6 12 37066.1 2193.06 4
-9 6 12 40119 2396.81 2
6 3 12 33789.7 2367.13 2
3 -9 12 38319 2607.13 1
4 -10 -7 11241.5 424.599 3
4 -10 -4 125922 2597.9 2
6 4 -4 124283 2258.71 4
4 -10 -4 125195 2490.01 4
4 -10 -4 125630 1679.99 3
6 4 -4 123295 2162.19 3
6 4 -4 122146 2267.61 2
4 -10 -4 121018 2742.03 1
6 4 -1 3249.31 478.238 3
-10 6 -1 2314.64 279.811 4
-10 6 -1 3164.99 363.113 1
6 4 -1 2588.45 379.169 2
6 4 -1 2643.56 409.18 4
4 -10 -1 1808.96 509.094 1
-10 6 -1 2690.08 385.824 2
4 -10 -1 1722.51 449.257 3
-10 6 2 176177 2426.52 2
4 -10 2 178553 2867.54 3
6 4 2 179950 1569.69 1
6 4 2 170432 2370.7 3
-10 6 2 171099 2616.86 1
4 -10 2 177200 2661.31 1
-10 6 2 171220 2468.37 4
-10 6 5 85530.5 2228.42 2
-10 6 5 83040.9 2168.08 4
4 -10 5 90191.1 2425.8 1
4 -10 5 82511.2 1499.91 2
4 -10 5 87726.8 1261.42 4
6 4 5 83060.3 1909.33 1
6 4 5 88522.6 2057.85 4
6 4 5 84794.5 1828.58 3
4 -10 5 86910.4 2336.64 3
4 -10 8 29841.7 1337.78 2
6 4 8 29855.1 1816.74 2
4 -10 8 29613.1 1822.69 1
6 4 8 28530.9 1201.32 3
-10 6 8 29637.9 1627.29 4
-10 6 8 27777.5 1645.08 2
6 4 8 26097.3 1404.82 4
4 -10 8 23466.2 914.819 4
-10 6 11 1566 878.255 4
6 4 11 590.888 702.943 4
4 -10 11 1421.41 1105.87 1
6 4 11 835.63 965.901 2
4 -10 11 1480.44 719.292 2
-10 6 11 3099.75 1056.53 2
4 -10 11 787.012 621.893 3
5 -11 -5 100114 1462.34 3
6 5 -5 96984.3 2200.52 2
6 5 -5 95389.3 2114.23 3
5 -11 -2 185021 2973.42 1
-11 6 -2 179300 2030.38 1
6 5 -2 180345 2534.04 3
6 5 -2 181502 2506.27 4
6 5 -2 183509 2354.68 2
5 -11 -2 182316 2501.27 2
-11 6 -2 175913 1754.28 4
-11 6 1 134963 2034.33 2
-11 6 1 141912 2095.98 4
-11 6 1 136216 2065.36 1
5 -11 1 134308 2343.02 1
6 5 1 137097 1474.71 1
5 -11 1 134735 2581.65 3
5 -11 4 112409 2544.31 1
5 -11 4 111775 2584.4 3
5 -11 4 117067 1338.89 2
6 5 4 117107 1928.79 1
-11 6 4 114911 2391.28 2
6 5 4 119644 2149.47 3
-11 6 4 117730 2453.02 4
-11 6 7 155984 3372.89 4
5 -11 7 160375 1898.67 4
6 5 7 155200 3119.35 4
6 5 7 155170 3682.83 2
5 -11 7 154955 2598.45 2
5 -11 7 152521 3646.9 1
-11 6 7 158457 3480.23 2
6 5 7 149411 2623.16 3
-11 6 10 28903.1 1781.35 4
5 -11 10 29090.8 1073.51 4
6 5 10 29853.5 2067.66 2
6 5 10 28727.8 1720.18 4
6 5 10 31625.6 1355.67 3
-11 6 10 28337.6 1876.86 2
5 -11 10 27480.4 2046.73 1
5 -11 10 27878.9 1540.75 2
6 -12 -6 77139.7 1205.24 3
6 6 -6 72412.6 1943.17 3
6 -12 -3 -333.549 417.114 3
6 6 -3 -167.303 565.535 3
6 6 -3 -373.748 386.2 4
6 -12 -3 375.241 505.828 4
6 -12 -3 -76.2486 494.845 2
6 -12 -3 245.399 668.653 1
-12 6 -3 242.593 320.88 1
6 6 -3 340.074 338.821 2
6 6 0 284286 3186.19 4
-12 6 0 290047 2736.48 1
-12 6 0 278903 3024.37 2
6 6 0 271950 3010.64 2
6 6 0 276381 2605.67 1
-12 6 0 276015 2791.58 4
6 -12 0 288038 3641.06 3
6 6 0 276390 3277.05 3
6 -12 3 30190.7 1347.87 1
6 6 3 30207.3 1178.69 3
6 6 3 32401.8 927.979 1
-12 6 3 31641.9 1268.27 4
-12 6 3 31743.2 1240.13 2
-12 6 3 32693.2 1383.91 1
6 -12 3 29615.2 1468.91 3
6 6 6 77135.1 2511.31 2
-12 6 6 82072.1 2409.06 2
-12 6 6 81048.5 2357.31 4
6 -12 6 81820.9 1625 2
6 6 6 83661.5 1954.8 3
6 6 6 75612.3 2054.29 1
6 6 6 75231.1 2164.44 4
6 -12 6 83298 2563.69 1
6 6 9 4954.75 705.001 3
6 -12 9 4187.52 420.46 4
6 -12 9 2578.57 1005.94 1
-12 6 9 5055.33 979.332 4
6 6 9 4430.33 1169.46 2
-12 6 9 3469.31 961.695 2
6 6 9 3732.54 840.12 4
6 -12 9 4359.74 683.901 2
6 -12 12 23371.3 2155.24 1
-12 6 12 19739.3 1851.05 2
6 6 12 20441.8 1721.82 4
6 -12 12 22321.1 1578.97 2
-12 6 12 22460.4 1819.92 4
6 6 12 20423.5 1981.87 2
7 -13 -7 12206.4 442.675 3
6 7 -4 257125 3312.94 2
6 7 -4 253951 3393.16 4
7 -13 -4 249044 2798.54 3
7 -13 -4 252953 4248.65 1
6 7 -4 244349 3514.15 3
6 7 -1 36485.4 1135.33 2
7 -13 -1 34014.3 1033.73 2
6 7 -1 35896.1 1332.25 3
6 7 -1 37030.1 1212.91 4
-13 6 -1 34721.4 1017.7 4
7 -13 -1 33002 1399.53 3
-13 6 -1 37037.1 922.998 1
-13 6 -1 34331.4 1211.6 2
7 -13 -1 36977.3 1506.47 1
-13 6 2 178191 2694.99 2
6 7 2 179994 2034.99 1
6 7 2 170575 2670.76 3
-13 6 2 182329 2793.51 1
7 -13 2 174539 3209.11 3
7 -13 2 182840 3017.75 1
-13 6 2 173347 2368.99 3
7 -13 5 56115.6 2008.19 1
7 -13 5 58308.9 1104.9 2
-13 6 5 55413.3 1886.33 2
-13 6 5 55898.4 1906.49 4
6 7 5 55994.3 1631.49 3
6 7 5 54588.4 1554.96 1
6 7 5 56393.8 1876.09 4
6 7 8 104774 2878.29 4
-13 6 8 109732 3163.93 2
7 -13 8 100427 3193.42 1
6 7 8 107510 2387.44 3
-13 6 8 96604.5 2890.72 4
7 -13 8 109153 2329.96 2
6 7 8 105179 3306.79 2
7 -13 11 9531.84 1045.07 2
-13 6 11 8838.47 1274.81 4
7 -13 11 10678.5 1500.83 1
6 7 11 8850.84 1421.84 2
-13 6 11 11129.9 1522.06 2
7 -13 11 8319.99 1031.11 3
6 7 11 7375.18 1178.41 4
5 7 -5 231771 3504.6 3
7 -12 -5 239836 2274.28 3
7 -12 -5 234028 4344.35 1
5 7 -5 235989 3336.32 2
-12 5 -2 24132.5 791.046 4
5 7 -2 21644.6 974.534 4
7 -12 -2 23129.4 1049.94 4
5 7 -2 25766.6 907.788 2
7 -12 -2 23900.8 1092.28 3
-12 5 -2 23584.1 704.474 1
7 -12 -2 24256.7 1277.81 1
5 7 -2 24896.5 1169.81 3
7 -12 -2 24967.1 1011.69 2
-12 5 1 87769.7 1775.21 2
7 -12 1 83026.1 2123.17 3
-12 5 1 84622.3 1661.2 3
-12 5 1 88018.1 1746.21 4
-12 5 1 85648.5 1635.11 1
7 -12 1 86186.2 2009.86 1
5 7 1 90615.6 1937.44 3
5 7 1 91322.3 1460.32 1
7 -12 4 37691.2 750.081 2
-12 5 4 38198.9 1471.07 2
5 7 4 39008.1 1296.24 3
-12 5 4 37169.1 953.373 3
5 7 4 37511.3 1187.4 1
7 -12 4 38002.2 1545.33 1
-12 5 4 40208.3 1509.85 4
5 7 7 90099.1 2534.33 4
-12 5 7 91159.3 2633.99 4
5 7 7 93159.7 2915.78 2
7 -12 7 90670.8 2817.5 1
7 -12 7 97152.6 2031.78 2
-12 5 7 90736.2 2684.81 2
5 7 7 92338.3 2099.9 3
7 -12 10 9121.46 1376.39 1
5 7 10 7601.58 802.862 3
-12 5 10 8097.52 1205.91 2
5 7 10 7109.35 1288.42 2
7 -12 10 7873.89 917.365 2
5 7 10 8792 1113.28 4
-12 5 10 8568.92 1151.75 4
7 -11 -6 450.222 139.759 3
4 7 -3 83349.9 1989.97 3
4 7 -3 84615.1 1614.78 2
7 -11 -3 81411.8 2263.27 1
7 -11 -3 82928.5 1970.64 4
7 -11 -3 79569.5 1591.49 3
4 7 -3 82058.3 1708.43 4
7 -11 -3 84464.7 1976.58 2
-11 4 0 24145.2 926.787 3
4 7 0 23685.4 826.369 1
7 -11 0 20997.9 1038.66 3
7 -11 0 23645.9 637.49 2
7 -11 0 23569.4 1071.86 1
-11 4 0 24394.1 724.08 1
-11 4 0 21311.7 813.385 4
4 7 0 23398.9 1012.73 3
-11 4 0 22425.5 891.702 2
4 7 0 24187.1 867.611 2
-11 4 3 42440.1 1543.03 1
7 -11 3 41025 646.252 2
-11 4 3 41386.1 1026.96 3
7 -11 3 45278.4 1515.27 1
4 7 3 41690.8 1288.6 3
4 7 3 41944.8 1166.87 1
-11 4 3 39910.5 1372.6 4
4 7 6 19713.2 965.113 3
7 -11 6 17964.8 1268.23 1
4 7 6 19615.9 1205.53 4
-11 4 6 20326.7 1220.36 4
4 7 6 20315.6 1427.5 2
4 7 6 16956.8 1114.49 1
7 -11 6 19612.6 889.914 2
-11 4 6 21550.6 1273.99 2
7 -11 9 41623 1707.7 2
4 7 9 41345.5 1926.54 4
4 7 9 36746.2 2171.05 2
-11 4 9 38659.1 1997.31 2
7 -11 9 38829.6 968.217 4
-11 4 9 40534.6 1940.35 4
4 7 9 41696.1 1454.2 3
7 -11 9 43105.7 2243.83 1
-11 4 12 12615.1 1570.63 2
7 -11 12 14490.1 1382.77 2
4 7 12 11031.1 1717.33 2
7 -11 12 12469 1674.98 1
-11 4 12 12366.1 1449.45 4
4 7 12 14951.4 1524.53 4
3 7 -4 283624 3105.63 4
7 -10 -4 282869 4383.76 1
7 -10 -4 275829 3806.53 2
3 7 -4 284517 3066.76 2
7 -10 -4 280986 2326.55 3
3 7 -4 277094 3588.68 3
3 7 -1 82142.4 1553.78 4
-10 3 -1 80925.7 1389.17 4
3 7 -1 82492.2 1625.46 1
7 -10 -1 81738.5 1886.2 1
7 -10 -1 83994.1 1570.34 4
7 -10 -1 81202.3 1409.44 2
-10 3 -1 84754.1 959.593 1
3 7 -1 81654.6 1354.27 2
-10 3 -1 80892.9 1670.68 3
3 7 -1 78899.9 1749.63 3
3 7 2 254578 2564.15 1
7 -10 2 249837 3111.04 1
-10 3 2 260323 3036.69 4
-10 3 2 244435 2442.37 3
-10 3 2 240048 2851.16 2
3 7 2 245100 2840.8 3
-10 3 2 258151 3201.74 1
-10 3 5 16775.5 1028.57 4
3 7 5 13897.8 969.228 4
7 -10 5 13469.7 696.966 2
7 -10 5 14250.8 1056.78 1
-10 3 5 14795.8 518.036 3
3 7 5 12712 1082.26 2
3 7 5 13842.8 946.98 1
3 7 5 14833.9 782.258 3
-10 3 5 15819.3 1027.26 2
3 7 8 161668 3972.68 2
-10 3 8 163381 3508.35 4
7 -10 8 159022 3824.71 1
3 7 8 166682 3513.49 4
3 7 8 162583 2557.61 3
7 -10 8 162525 1821.6 4
7 -10 8 163951 3055.07 2
7 -10 11 3534.2 1100.9 1
3 7 11 4847.67 991.802 4
-10 3 11 5773.07 1061.43 4
-10 3 11 4437.6 1028.81 2
3 7 11 4839.73 1270.63 2
7 -10 11 5985.8 872.685 3
7 -10 11 4344.42 889.079 2
2 7 -5 156901 2349.84 4
2 7 -5 159529 2522.52 2
7 -9 -5 154238 1161.24 3
2 7 -2 59200.7 1575.65 3
7 -9 -2 59022.6 1431.17 4
2 7 -2 60625 1272.15 4
2 7 -2 57008.9 1530.64 1
7 -9 -2 57704.6 1285.61 3
7 -9 -2 58242.3 1660.95 1
2 7 -2 60497.7 1084.27 2
-9 2 -2 56078.4 1390.23 3
7 -9 -2 58104.2 1390.66 2
-9 2 1 75928.4 1390.45 1
2 7 1 74534.5 1544.8 3
7 -9 1 77640.8 1063.4 4
-9 2 1 73389.4 1464.8 4
-9 2 1 74911.8 1481.52 2
7 -9 1 77196.4 818.595 2
-9 2 1 78505.2 1397.76 3
2 7 1 76767.3 1345.56 1
2 7 4 10880.8 970.541 2
2 7 4 10840.8 678.074 3
2 7 4 11512.5 791.31 1
-9 2 4 10671.2 815.254 2
7 -9 4 11308.2 861.072 1
7 -9 4 10647.5 607.654 2
-9 2 4 11953.8 840.716 4
2 7 4 10388.6 808.276 4
-9 2 4 9735.85 471.224 3
-9 2 7 24591.1 1340.17 4
7 -9 7 27386.4 1252.21 2
2 7 7 24297.7 1349.28 4
2 7 7 25816.3 982.241 3
-9 2 7 25159.3 1419.08 2
7 -9 7 26654.5 681.065 4
7 -9 7 22486.4 1453.78 1
2 7 7 25405.8 1611.52 2
7 -9 10 3690.01 481.17 4
7 -9 10 4112.48 1084.82 1
-9 2 10 3356.76 920.62 2
7 -9 10 2727.01 701.639 3
2 7 10 2845.12 1030.76 2
2 7 10 4232.23 901.167 4
7 -9 10 3269.33 819.562 2
-9 2 10 4663.08 884.858 4
1 7 -6 36185.6 1194.15 4
1 7 -6 37087.4 1388.8 2
-8 1 -3 118390 2013.87 3
7 -8 -3 117609 2170.58 2
7 -8 -3 114094 2480.99 1
1 7 -3 119656 2271.08 3
1 7 -3 115016 1604.16 2
7 -8 -3 121680 1552.31 3
7 -8 -3 116665 2139.6 4
1 7 -3 118804 1707.78 4
-8 1 0 81008.2 1433.68 3
7 -8 0 83848.3 1102.83 2
7 -8 0 85964.2 1281.75 4
-8 1 0 84349.8 1000.32 1
7 -8 0 80382.1 1599.69 1
-8 1 0 83445.9 1527.06 2
-8 1 0 83801.1 1403.99 4
1 7 0 82794.3 1622.71 3
1 7 0 82508.8 1447.02 1
1 7 3 325369 3267.48 1
-8 1 3 321095 3408.59 4
-8 1 3 322633 3365.08 2
1 7 3 327249 3738 2
-8 1 3 337087 2553.88 3
1 7 3 323349 3533.26 4
1 7 3 320762 2978.19 3
7 -8 3 323149 3442.6 1
7 -8 6 48997.3 813.256 4
-8 1 6 51388.6 870.719 3
1 7 6 48978 1211.59 3
1 7 6 48100 1698.52 4
1 7 6 48582.7 1930.21 2
-8 1 6 50133 1700.21 4
7 -8 6 48157.9 1852.04 1
-8 1 6 49671.5 1744.43 2
7 -8 6 45880.8 1481 2
7 -8 9 117964 3475.99 1
1 7 9 123487 3640.91 2
-8 1 9 121612 3069.17 4
7 -8 9 118360 2617.41 3
7 -8 9 113344 2913.61 2
1 7 9 113688 3072.66 4
-8 1 9 116262 3210.75 2
7 -8 9 121840 1927.89 4
1 7 9 122523 1927.97 3
-8 1 12 38319.2 2318.09 2
1 7 12 42855.2 2647.02 2
-8 1 12 41414.5 2140.11 4
7 -8 12 39785.3 2217.82 2
1 7 12 40338.5 2267.27 4
7 -8 12 40358.5 2516.59 1
0 7 -7 1224.84 398.245 4
7 -7 -4 84792.7 1959.83 4
7 -7 -4 80248.1 2007.61 2
-7 0 -4 81423.7 1681.99 3
0 7 -4 78006.7 1506.67 2
7 -7 -4 73242.5 754.024 3
0 7 -4 80399.7 1416.76 4
7 -7 -4 78670 846.874 3
0 7 -1 6035.54 501.964 1
7 -7 -1 5848.93 524.794 1
-7 0 -1 5473.58 444.34 3
7 -7 -1 6414.01 445.887 4
0 7 -1 6394.7 306.215 2
7 -7 -1 5656.96 400.466 2
0 7 -1 7470.11 670.705 3
-7 0 2 147093 1705.44 3
-7 0 2 142804 1985.51 2
0 7 2 145279 2174.6 2
-7 0 2 144567 2046.36 4
7 -7 2 143151 1996.91 1
7 -7 2 144082 1448.05 2
0 7 2 143380 2011.26 1
0 7 2 136982 1889.99 3
7 -7 5 4975.19 587.728 2
7 -7 5 4199.26 657.874 1
-7 0 5 6979.7 696.32 4
0 7 5 3826.37 806.302 2
0 7 5 5319.79 723.338 1
7 -7 5 4952.17 247.695 4
0 7 5 4540.3 657.221 4
0 7 5 5428.35 476.171 3
-7 0 5 7097.48 718.443 2
-7 0 5 5539.97 379.361 3
0 7 8 130409 3102.97 4
-7 0 8 131329 3125.91 2
0 7 8 129158 3475.61 2
7 -7 8 133022 2960.89 2
7 -7 8 128601 3362.38 1
-7 0 8 130997 2916.02 4
0 7 8 130847 1811.02 3
7 -7 8 129665 2583.34 3
7 -7 8 137131 1930.78 4
-7 0 11 6930.1 1021.84 4
0 7 11 4060.45 1231.69 2
-7 0 11 4541.17 1047.28 2
7 -7 11 4655.82 997.752 2
7 -7 11 4762.28 1205.02 1
7 -7 11 4878.38 757.92 3
0 7 11 5227.12 1013.38 4
-1 7 -8 18686.3 979.083 4
-1 7 -5 1843.57 331.216 4
-6 -1 -5 1854.65 407.84 3
-1 7 -5 2181.66 426.403 2
7 -6 -2 51656 1437.82 1
7 -6 -2 50133.5 1233.59 4
-1 7 -2 50292.3 906.823 4
-1 7 -2 49172.9 1330.86 3
-1 7 -2 49132.3 1334.01 1
-1 7 -2 50202.2 730.461 2
7 -6 -2 48887.3 1193.64 2
-6 -1 -2 50039.8 1141.94 3
7 -6 1 143576 1780.36 1
-6 -1 1 146203 1866.71 4
7 -6 1 143623 1227.74 4
-1 7 1 135257 1897.94 3
-6 -1 1 141224 1805.25 2
-1 7 1 135996 1859.62 1
-6 -1 1 135805 1663.65 3
7 -6 1 139226 1370.96 2
7 -6 4 31420.3 511.016 4
-6 -1 4 33169.2 1169.82 4
-6 -1 4 33485.7 1181.52 2
-6 -1 4 32803.8 829.336 3
-1 7 4 31636.4 1264.21 4
7 -6 4 33841.7 1116.83 2
-1 7 4 32155.6 1376.58 2
-1 7 4 31114 1292.09 1
-1 7 4 31792.1 887.267 3
7 -6 4 33327.8 1245.44 1
-6 -1 7 72599.2 1157.75 3
-1 7 7 72311.5 2452.51 2
-1 7 7 69747.4 2139.63 4
-6 -1 7 71657.1 2032.13 4
7 -6 7 68250.6 1805.17 3
7 -6 7 67682.2 2023.78 2
7 -6 7 69968.2 1342.44 4
7 -6 7 69960.1 2276.27 1
-6 -1 7 69235.9 2138.15 2
-1 7 7 72265.7 1233.75 3
-1 7 10 4281.81 1046.86 2
7 -6 10 4791.36 990.046 2
-6 -1 10 3282.34 907.827 2
-6 -1 10 3101.39 788.34 4
7 -6 10 3837.13 689.146 3
7 -6 10 3712.83 1015.31 1
-1 7 10 2294.83 770.273 4
7 -6 10 3727.95 570.055 4
-2 7 -6 7041.37 511.525 4
-2 7 -6 6738.16 681.531 2
-2 7 -3 435024 2692.66 2
7 -5 -3 431728 3919.02 2
7 -5 -3 431255 3855.84 4
-2 7 -3 438787 2483.83 4
-5 -2 0 170670 1944.77 2
-5 -2 0 165722 1278.96 1
-5 -2 0 165548 1860.18 4
7 -5 0 164381 1794.73 1
-2 7 0 166566 1988.72 1
7 -5 0 162554 1618.65 4
-5 -2 0 164402 1870.02 3
7 -5 0 161669 1610.22 2
-2 7 0 159345 2139.56 3
-2 7 3 521867 4287.98 4
-5 -2 3 537906 3912.46 2
-2 7 3 532203 4487.56 1
7 -5 3 524953 3824.45 1
-5 -2 3 522528 3342.33 3
-2 7 3 530159 4485.56 2
-2 7 3 526177 3248.32 3
7 -5 6 61302.6 1945.56 1
-2 7 6 62304.1 2100.26 2
-5 -2 6 64232.9 1216.72 3
7 -5 6 63458.5 1652.56 3
-5 -2 6 63962.7 1859.79 2
7 -5 6 61723.5 1861.18 2
7 -5 6 62461.1 1201.14 4
-2 7 6 64472.1 1065.92 3
-5 -2 6 65331.9 1764.87 4
-2 7 6 61387.6 1888.87 4
-2 7 9 97901.6 2827.03 4
7 -5 9 100941 2028.1 4
7 -5 9 97521.6 2868.33 2
7 -5 9 98840.2 3119.32 1
-5 -2 9 95045.5 2517.4 4
-5 -2 9 91480.3 1289.12 3
7 -5 9 99356 2244.4 3
-5 -2 9 92760.5 2739.34 2
-2 7 9 97244 3161.7 2
-2 7 12 36729.8 2160.92 4
7 -5 12 44020.2 2583.54 1
7 -5 12 40791.7 2310.36 2
-5 -2 12 36547.2 2186.93 2
-2 7 12 38366.4 2519.8 2
-5 -2 12 38745.6 1966.13 4
-3 7 -7 5171.54 509.285 4
-3 7 -4 63170.3 1278.11 2
7 -4 -4 61045.3 1644.57 4
-4 -3 -4 61801.7 1277.99 3
7 -4 -4 60829.9 1681.35 2
-3 7 -4 60947.2 961.136 4
7 -4 -1 236715 2252.12 4
-4 -3 -1 237581 2262.66 3
7 -4 -1 236093 1955.48 3
7 -4 -1 234270 2195.07 2
7 -4 -1 231419 2422.35 1
-3 7 2 93793.9 1409.82 3
-4 -3 2 93287.2 1403.31 2
7 -4 2 92450.6 1303.83 1
-3 7 2 94222.3 1669.34 4
7 -4 2 99244.2 972.07 4
-4 -3 2 94146.6 1517.77 4
-3 7 2 93456.7 1612.42 2
-4 -3 2 99237.6 1460.34 3
7 -4 2 93144.1 1592.42 3
-3 7 2 91376.7 1689.7 1
-4 -3 5 60493.5 1525.79 4
-3 7 5 60368.2 1765.27 4
7 -4 5 59504.6 1719.74 1
-3 7 5 59235 1906.95 2
-4 -3 5 58659 1596.31 2
7 -4 5 59905.9 1507.59 3
7 -4 5 54122.3 1661.49 2
-3 7 5 58976.1 964.501 3
-3 7 5 62642.3 1998.13 1
7 -4 5 59060.6 1105.16 4
-4 -3 5 60351.9 1276.06 3
-4 -3 8 31266.6 1394.52 4
-3 7 8 32007.2 1816.56 2
-4 -3 8 31835.9 974.27 3
7 -4 8 32557.7 1170.54 4
-4 -3 8 31602.2 1553.76 2
7 -4 8 33253.4 1271.68 3
7 -4 8 33677.8 1671.17 2
-3 7 8 33506.1 1611.89 4
-3 7 11 9329.85 1189.27 4
7 -4 11 9270.66 868.372 4
7 -4 11 10286.4 890.315 3
7 -4 11 9014.45 1240.54 2
-3 7 11 9022.87 1308.92 2
7 -4 11 11291.4 1386.65 1
-4 -3 11 11023.9 1274.35 2
-4 -3 11 8997.11 1003.2 4
-4 7 -8 94861.8 1870.64 4
7 -3 -5 24717.9 1126.75 4
-3 -4 -5 25655.4 858.417 3
-4 7 -5 26902 690.852 4
7 -3 -2 144919 2012.13 4
7 -3 -2 149048 2013.74 2
-3 -4 -2 145649 1772.21 3
-3 -4 -2 143722 1688.24 1
-4 7 -2 150378 1001.99 4
7 -3 -2 148143 1442.8 3
-4 7 -2 146989 2137.09 1
-3 -4 1 311661 2628.39 3
-3 -4 1 303810 2502.06 4
7 -3 1 306168 2439.73 2
-4 7 1 301619 2343.21 2
-3 -4 1 312992 2295.77 2
7 -3 1 309220 2030.8 4
-3 -4 1 306323 2554.84 1
-4 7 1 313696 2890.55 1
7 -3 1 297184 2603.89 3
-4 7 1 304765 2595.52 4
-3 -4 4 84429.4 1684.82 2
7 -3 4 90686.4 1314.57 4
7 -3 4 90218.5 1801.21 1
-4 7 4 91797.8 1135.98 3
-4 7 4 93030.2 2216.15 1
-3 -4 4 89706.1 1583.8 3
-3 -4 4 83411.5 1628.55 4
-4 7 4 89180.4 2069.05 2
7 -3 4 90147.2 1723.56 3
-4 7 4 89114 1955.37 4
-3 -4 7 7614.86 789.208 2
-3 -4 7 9831.58 784.508 4
7 -3 7 7544.85 658.911 3
-3 -4 7 7536.63 602.688 3
-4 7 7 7548.33 883.187 4
7 -3 7 7974.91 616.459 4
7 -3 7 7748.72 912.032 2
-4 7 7 7260.96 983.308 2
-4 7 10 18679.3 1448.54 4
-3 -4 10 20106.6 1457.55 2
-4 7 10 20897.8 1705.95 2
-3 -4 10 22364.9 840.244 3
7 -3 10 20615.5 1162.52 4
7 -3 10 21400.6 1604.11 2
7 -3 10 19832.7 1108.49 3
-3 -4 10 22946.5 1333.48 4
-4 7 13 7819.66 1549.31 2
7 -3 13 8554.08 1524.71 1
-3 -4 13 9839.77 1825.64 1
7 -3 13 8811.64 1497.1 2
-3 -4 13 11350.6 1466.39 2
-5 7 -9 91516.5 1908.31 4
-5 7 -6 22849.9 705.503 4
-2 -5 -6 21794.1 805.643 3
7 -2 -3 670417 4780.79 2
-5 7 -3 666450 5025.74 1
7 -2 -3 665462 4671.17 4
-2 -5 0 191593 2078.47 3
-5 7 0 186804 1718.94 4
7 -2 0 186800 1944.19 2
7 -2 0 181884 1558.05 1
-5 7 0 189126 1363.27 2
7 -2 0 180627 1814.47 4
7 -2 0 182245 1909.7 3
-2 -5 0 187405 1792.65 1
-5 7 0 188797 2173.2 1
-5 7 3 505826 4306.16 4
-5 7 3 525402 4307.12 2
7 -2 3 526151 3374.07 1
-2 -5 3 522732 4759.68 1
-2 -5 3 513995 3789.25 3
-2 -5 3 511129 3362.54 2
-5 7 3 532432 4740.9 1
-2 -5 3 530656 3550.57 4
7 -2 3 513502 3816.09 3
7 -2 6 48333.4 1300.89 4
7 -2 6 50394.3 1420.52 3
-5 7 6 51578.6 1904.61 2
-2 -5 6 52405.4 1421.4 4
-5 7 6 49179 1751.35 4
-2 -5 6 53990.6 1415.43 3
7 -2 6 52547.2 1849.6 2
-2 -5 6 53865.2 1591.4 2
7 -2 9 10514.8 835.917 3
-2 -5 9 12482.6 949.854 4
-5 7 9 12157 1357.88 2
-2 -5 9 10969.4 781.183 3
7 -2 9 15429.8 1392.96 2
-2 -5 9 12332.6 1121.52 2
7 -2 9 13760.4 920.824 4
-5 7 9 12626.8 1191.06 4
-5 7 12 27115.8 1901.54 4
-2 -5 12 23232.4 1487.9 4
7 -2 12 25276.4 2055.66 1
-2 -5 12 25202.2 2236.66 1
7 -2 12 21052.7 1903.97 2
-2 -5 12 26448.1 1833.44 2
-5 7 12 27288.5 2158.8 2
-1 -6 -4 75539.2 1304.72 3
7 -1 -4 75157.5 1815.26 2
7 -1 -4 72506.1 1721.81 4
7 -1 -4 76148 1153.47 3
7 -1 -1 102021 1527.83 2
-6 7 -1 102025 961.662 2
7 -1 -1 100606 1544.58 4
-1 -6 -1 99990.4 1538.12 3
7 -1 -1 97525.4 1385.7 3
-6 7 -1 97877.4 984.265 4
-1 -6 -1 97656.7 1483.59 1
-6 7 -1 98374.1 1577.8 1
-1 -6 2 21360.1 838.81 3
7 -1 2 20888.6 795.293 3
-1 -6 2 20300.4 677.497 4
-1 -6 2 21675.7 579.022 2
7 -1 2 21389.5 468.144 1
-6 7 2 19867.2 921.754 1
-6 7 2 19720.4 791.12 2
-1 -6 2 21542.3 886.659 1
-6 7 2 22266.6 866.526 4
-1 -6 5 19897.1 825.918 4
-1 -6 5 21999 931.571 2
7 -1 5 21232.5 854.842 4
7 -1 5 23770.8 1227.48 2
-6 7 5 17806.1 1044.48 4
-6 7 5 20737.5 1211.06 2
-1 -6 5 23579.4 1036.92 3
7 -1 5 21481.5 918.981 3
-1 -6 8 9964.5 887.766 2
7 -1 8 10200.5 811.242 4
7 -1 8 8799.18 1104.59 2
-1 -6 8 10590.6 850.734 3
-6 7 8 8827.77 1046.29 2
7 -1 8 9176.08 730.069 3
-6 7 8 12471.9 1089.9 4
-1 -6 8 9624.41 786.323 4
7 -1 11 27177.6 1263.74 3
-6 7 11 24946.2 1946.37 2
-1 -6 11 30938.9 2328.08 1
-1 -6 11 29831 1782.4 2
7 -1 11 27831.6 1506.42 4
7 -1 11 26552.1 1907.1 2
-1 -6 11 28011 1463.59 4
-6 7 11 26677.7 1782.95 4
7 0 -5 6421.23 503.565 3
7 0 -5 6669.1 664.507 4
0 -7 -5 5911.2 436.986 3
7 0 -2 131530 1922.63 2
7 0 -2 131900 1957.85 4
0 -7 -2 137466 1798.51 3
7 0 -2 123056 1588.43 3
0 -7 -2 127718 1967.44 1
-7 7 -2 132410 1949.5 1
7 0 1 6426.14 524.393 3
7 0 1 6257.67 482.818 2
-7 7 1 6645.49 435.233 2
0 -7 1 7494.24 534.158 1
-7 7 1 7350.02 538.353 1
-7 7 1 7642.47 499.769 4
7 0 1 6840.78 423.902 4
0 -7 1 7358.65 580.292 3
0 -7 4 51490.4 1744.22 1
7 0 4 61189.7 1451.15 3
-7 7 4 57219 1649.89 4
0 -7 4 61767.1 1247.28 4
-7 7 4 56964.6 1674.43 2
-7 7 4 64681.5 1977.09 1
0 -7 4 62266.6 1302.04 2
0 -7 4 64192.3 1680.1 3
-7 7 7 868.54 671.907 2
0 -7 7 2113.39 535.894 2
-7 7 7 1876.68 625.403 4
7 0 7 2031.23 494.913 4
0 -7 7 2329.85 441.307 4
0 -7 7 2058.35 598.121 3
7 0 7 2317.98 722.109 2
7 0 7 1231.26 391.13 3
0 -7 7 1267.29 784.667 1
7 0 10 87229.1 2457.02 4
0 -7 10 90019.9 2287.8 4
-7 7 10 82694.2 2808.41 4
7 0 10 92169.2 2138.3 3
0 -7 10 83970.5 3379.56 1
-7 7 10 84652.7 3068.29 2
7 0 10 83680.4 3083.65 2
0 -7 10 89680.9 2717.2 2
1 -8 -6 12372.8 553.507 3
-8 7 -3 276986 3105.03 1
1 -8 -3 284915 2581.41 3
7 1 -3 277495 3086.99 4
1 -8 -3 269554 3362.56 1
7 1 -3 276685 2574.21 3
7 1 -3 282070 3117.06 2
-8 7 0 46953.1 944.589 4
7 1 0 46962.5 1081.81 4
7 1 0 44465.3 1102.65 3
7 1 0 46202.3 1107.36 2
-8 7 0 47972.2 1154.53 1
-8 7 0 46477.1 900.33 2
1 -8 0 44985.9 1194.15 3
1 -8 0 46193.5 1185.97 1
1 -8 3 88149.1 1946.78 3
-8 7 3 81038.2 1762.26 2
7 1 3 86877.4 1334.98 1
1 -8 3 84059.1 1981.23 1
-8 7 3 84451.5 1862.27 4
7 1 3 84620.6 1668.5 3
1 -8 3 84536.8 1302.01 4
-8 7 3 81490.3 2000.6 1
1 -8 3 82996.2 1138.77 2
7 1 6 58431 1541.99 3
1 -8 6 60133.7 2228.75 1
1 -8 6 59580 1547.3 2
-8 7 6 61979.1 2042.47 2
7 1 6 58540.1 1619.99 4
1 -8 6 61682.8 1371.04 4
7 1 6 57146 1842.13 1
7 1 6 60640 2089.56 2
-8 7 6 57630.5 1907.3 4
1 -8 6 56503.5 1809.14 3
1 -8 9 26832.6 1442.47 2
7 1 9 22572.5 1689.08 2
7 1 9 26464 1389.32 4
1 -8 9 25913 1159.88 4
7 1 9 23194.4 1117.18 3
-8 7 9 26928.5 1765.45 2
-8 7 9 27244.9 1604.63 4
1 -8 9 25620.4 1850.46 1
1 -8 12 18407.4 2028 1
7 1 12 18349.3 1442.21 4
-8 7 12 16318.7 1558.36 4
7 1 12 17417.7 1777.16 2
-8 7 12 19499.9 1877.06 2
1 -8 12 16720.2 1476.83 2
2 -9 -7 30057.1 797.448 3
2 -9 -4 1354.83 638.147 1
7 2 -4 1582.98 484.372 3
7 2 -4 1004.42 414.036 4
2 -9 -4 1580.24 311.462 3
7 2 -4 1547.79 466.316 2
-9 7 -1 110226 1677.48 1
7 2 -1 114611 1837.41 4
-9 7 -1 112262 1522.22 2
2 -9 -1 115688 1886.67 3
7 2 -1 114887 1761.17 3
2 -9 -1 113243 2009.94 1
7 2 -1 113415 1778.38 2
-9 7 -1 110000 1254.01 4
2 -9 2 68866.8 1733.56 3
2 -9 2 75304.9 1720.35 1
7 2 2 68839.4 1490.09 3
-9 7 2 71225.3 1566.55 4
7 2 2 69686 748.366 1
-9 7 2 70859.9 1496.69 2
-9 7 2 71890.4 1702.5 1
2 -9 2 71621 776.015 2
7 2 5 132273 2393.58 1
-9 7 5 136764 2736.83 4
7 2 5 125935 2364.89 4
-9 7 5 133247 2740.41 2
2 -9 5 135823 1780.98 4
2 -9 5 129677 1953.41 2
2 -9 5 133345 2741.81 3
2 -9 5 133305 2974.96 1
7 2 5 130125 2225.79 3
7 2 8 9162.59 753.667 3
-9 7 8 9936.5 1139.09 2
2 -9 8 8503.26 1195.03 1
-9 7 8 9859.53 1022.95 4
2 -9 8 10316.3 878.765 2
7 2 8 7863.84 1124.57 2
7 2 8 9156.08 908.851 4
2 -9 8 9147.92 678.793 4
2 -9 11 52261.9 2227.4 2
7 2 11 53442.5 2202.92 4
-9 7 11 51918.6 2614.92 2
2 -9 11 59218.8 2975.72 1
7 2 11 52405.7 2737.93 2
-9 7 11 50694.1 2419.08 4
2 -9 11 51280 1714.8 4
3 -10 -5 28427.5 1513.3 1
3 -10 -5 26734.8 815.009 3
7 3 -5 29206.6 1130 3
7 3 -2 322794 3292.75 4
-10 7 -2 316318 1941.36 4
3 -10 -2 313146 3620.31 1
3 -10 -2 313633 3045.59 3
-10 7 -2 320781 2937.61 1
7 3 -2 305841 3072.55 3
7 3 -2 321944 3164.2 2
-10 7 1 63186.1 1315.92 2
7 3 1 63478.3 1424.43 4
7 3 1 61902.2 1430.92 3
3 -10 1 61546.8 1643.7 3
3 -10 1 63833.8 1559.28 1
-10 7 1 64046.7 1456.87 1
7 3 1 63061.1 1493.5 2
7 3 1 60138.9 742.896 1
-10 7 1 65176.2 1394.31 4
7 3 4 307393 3004.88 1
7 3 4 296322 3339.79 3
-10 7 4 308935 4360.68 1
-10 7 4 313500 3921.37 2
-10 7 4 325102 4007.63 4
3 -10 4 298884 4017.18 3
3 -10 4 311747 2377.63 2
3 -10 4 312451 4189.1 1
7 3 7 3224.06 555.72 3
3 -10 7 5205.66 978.289 1
3 -10 7 4318.88 591.832 2
-10 7 7 4193.57 782.216 4
7 3 7 4619.89 716.968 4
-10 7 7 4949.21 884.846 2
3 -10 7 5241.18 482.991 4
7 3 7 3083.11 871.907 2
3 -10 10 102948 2766.84 2
7 3 10 105423 2922.1 4
7 3 10 107227 3568.3 2
-10 7 10 102792 3365.66 2
7 3 10 104125 2339.78 3
3 -10 10 101480 3642.54 1
3 -10 10 105811 2184.31 4
-10 7 10 95628.2 3103.24 4
4 -11 -6 3175.96 345.927 3
7 4 -6 3777.98 650.712 3
-11 7 -3 42930.3 1216.65 1
4 -11 -3 46615.8 1220.76 3
7 4 -3 46583.8 1384.96 4
4 -11 -3 45888.5 1663.89 1
7 4 -3 46767.6 1342.52 2
7 4 -3 46626.3 1358.2 3
4 -11 0 14866 889.844 1
4 -11 0 16240.2 950.513 3
-11 7 0 17047.5 700.397 4
7 4 0 17403.9 856.161 3
-11 7 0 17140.7 729.733 2
7 4 0 17104.9 801.575 2
-11 7 0 17835.6 772.546 1
7 4 0 16801.2 781.274 4
-11 7 3 44178.1 1420.57 2
-11 7 3 48245.1 1522.75 4
7 4 3 50335.7 987.573 1
4 -11 3 46600.9 607.74 2
7 4 3 46574 1391.64 3
4 -11 3 50333.3 1655.73 1
-11 7 3 48508.2 1672.36 1
4 -11 3 49307.7 1730.51 3
-11 7 6 14049.8 1080.07 2
7 4 6 12698.3 1163.91 2
4 -11 6 12187.7 693.83 2
4 -11 6 13946.7 608.248 4
-11 7 6 14506.7 1107.95 4
7 4 6 11195.6 883.315 1
4 -11 6 14036.6 1222.14 1
7 4 6 12303.7 829.33 3
7 4 6 13029 944.421 4
4 -11 9 33439.7 1500.11 2
-11 7 9 29436.1 1812.29 2
4 -11 9 29961.1 1965.79 1
7 4 9 33433.8 1677.67 4
7 4 9 30423 1973.46 2
4 -11 9 31559.5 1108.87 4
7 4 9 33133.8 1395.55 3
-11 7 9 33716.1 1847.86 4
-11 7 12 9969.82 1370.59 4
7 4 12 7557.64 1171.33 4
4 -11 12 6111.79 1364.7 1
7 4 12 7388.73 1520.72 2
4 -11 12 6596.97 1038.33 2
-11 7 12 8708.63 1408.24 2
5 -12 -7 88839.7 1251.96 3
5 -12 -4 38008.3 1677.06 1
5 -12 -4 38686.7 1098.76 3
7 5 -4 35821.3 1306.74 4
7 5 -4 37779 1352.31 3
7 5 -4 35890.8 1315.97 2
5 -12 -1 153032 2741.87 1
7 5 -1 149564 2322.06 4
-12 7 -1 141104 1775.61 4
-12 7 -1 146589 2178.82 2
-12 7 -1 143607 1927.79 1
7 5 -1 147260 2414.29 3
5 -12 -1 143055 2499.13 3
7 5 -1 157179 2273.12 2
5 -12 2 24922 1173.25 1
-12 7 2 24812.2 1072.13 4
7 5 2 24031.2 1061.73 3
-12 7 2 26213 1152.07 1
7 5 2 23986.2 638.098 1
-12 7 2 23384.7 1005.53 2
5 -12 2 24716.6 1361.86 3
7 5 5 239431 3195.2 3
5 -12 5 247381 4069.11 1
7 5 5 244097 3108.97 1
-12 7 5 249586 3884.87 2
5 -12 5 246439 2316.35 2
-12 7 5 243512 3820.68 4
5 -12 8 1821.2 547.619 2
7 5 8 2530.64 975.171 2
5 -12 8 1002.91 334.6 4
7 5 8 707.855 525.994 3
-12 7 8 526.045 671.252 2
7 5 8 969.49 657.291 4
-12 7 8 1535.15 757.348 4
5 -12 8 1083.16 840.841 1
7 5 11 35052.6 2358.09 2
7 5 11 34688.9 1943.52 4
-12 7 11 31520.1 2120.49 2
5 -12 11 32160.5 2315.95 1
5 -12 11 34468.9 1746.65 2
-12 7 11 36614.1 2167.88 4
6 -13 -8 28884.4 549.028 3
6 -13 -5 97368.7 2873.66 1
7 6 -5 101957 2335.31 3
6 -13 -5 100642 1691.12 3
7 6 -2 171181 2706 3
6 -13 -2 180490 2599.77 2
7 6 -2 172684 2646.08 4
7 6 -2 181648 2519.68 2
6 -13 -2 178694 2760.15 3
-13 7 -2 172199 1955.24 4
-13 7 -2 179742 2181.09 1
6 -13 -2 179880 3212.58 1
-13 7 1 46114.2 1336.92 2
-13 7 1 44620.5 1315.96 1
6 -13 1 41955.6 1552.41 1
6 -13 1 45808.6 1703.54 3
-13 7 1 47147 1333.24 4
7 6 1 44866.8 948.155 1
7 6 1 45090.1 1428.35 2
7 6 1 44696 1448.24 3
-13 7 4 240748 3550.76 2
6 -13 4 244065 3837.72 1
7 6 4 241582 3285.57 3
6 -13 4 233309 1525.35 2
7 6 4 242266 2677.03 1
7 6 7 4338.73 1025.12 2
6 -13 7 5374.83 565.934 2
-13 7 7 5349.69 922.283 2
6 -13 7 4482.63 943.706 1
7 6 7 4558.25 807.118 4
7 6 7 4414.2 676.099 3
-13 7 7 3400.6 833.998 4
7 6 10 30615.3 1814.85 4
-13 7 10 30198.8 2002.19 2
-13 7 10 27595.2 1805.32 4
6 -13 10 28854.1 1479.44 2
6 -13 10 28140.4 2006.63 1
7 6 10 30843.1 2112.55 2
7 6 10 28016.5 1359.59 3
7 7 -6 5079.66 888.915 3
7 -14 -6 4393.32 444.305 3
7 -14 -6 3965.42 1003.24 1
-14 7 -3 182392 2332.49 1
7 -14 -3 194232 3612.1 1
7 7 -3 193083 2780.34 2
7 -14 -3 187841 3041.19 2
7 7 -3 193112 3116.79 3
7 -14 -3 188563 2736.59 3
7 -14 0 26370.1 1332.94 1
7 7 0 24970.3 1032.69 2
7 7 0 23159.8 1034.91 4
-14 7 0 24842.5 937.682 1
-14 7 0 25840 963.73 4
7 7 0 24277.9 910.44 1
7 -14 0 25048.2 1370.36 3
7 7 0 22796.9 1170.66 3
-14 7 0 25309.1 1044.77 2
7 -14 3 204091 3423.19 1
-14 7 3 210085 3438.27 1
-14 7 3 213339 3207.98 2
-14 7 3 215490 3280.08 4
7 7 3 216648 2329.54 1
7 7 3 211664 3153.02 3
7 7 6 1041.16 520.041 1
7 7 6 377.744 607.438 4
-14 7 6 920.081 620.571 2
-14 7 6 -265.436 588.045 4
7 -14 6 -713.451 725.158 1
7 -14 6 -273.951 297.795 2
7 7 6 648.545 518.334 3
7 7 6 -188.855 776.929 2
7 7 9 25716.6 1650.1 4
7 -14 9 28336.1 1956.04 1
7 7 9 30717.7 2114.96 2
7 7 9 29576.6 1405.2 3
-14 7 9 29521.7 1801.93 4
-14 7 9 25233.5 1729.02 2
7 -14 9 27846.5 1303.16 2
7 7 12 297.12 904.631 4
7 7 12 -228.952 1081.12 2
-14 7 12 894.282 1010.33 4
-14 7 12 974.84 1029.59 2
7 -14 12 -865.283 1119.38 1
8 -15 -7 52910.5 1075.91 3
7 8 -4 77834.2 1942.38 2
8 -15 -4 79289.5 1760.01 3
7 8 -4 80928.6 2213.8 3
8 -15 -1 264022 3817 3
-15 7 -1 258159 3359.44 2
8 -15 -1 267471 4057.8 1
-15 7 -1 267043 2623.02 1
7 8 -1 271895 3228.57 2
-15 7 -1 260398 2889.52 4
7 8 -1 265696 3653.6 3
8 -15 -1 271113 2860.64 2
-15 7 2 28620 1232.2 4
7 8 2 27218.4 882.241 1
-15 7 2 30383.2 1256.93 1
8 -15 2 29097.3 1384.55 1
7 8 2 29295.3 1275.12 3
-15 7 2 32435.7 1252.94 2
-15 7 5 108470 2682.26 2
7 8 5 107730 2135.53 1
-15 7 5 112155 2748.97 4
8 -15 5 107432 1211.58 2
7 8 5 116607 2486.73 3
8 -15 5 111602 2883.47 1
-15 7 8 11600.6 1204.3 4
8 -15 8 12012.3 795.427 2
7 8 8 11704.2 1192.06 4
-15 7 8 12878.7 1238.6 2
7 8 8 11642.6 979.373 3
8 -15 8 9991.83 1291.06 1
7 8 8 11017.4 1371.28 2
-15 7 11 19179.3 1792.26 2
7 8 11 21631.5 1729.05 4
8 -15 11 20587.5 1887.27 1
7 8 11 17280.3 1868.68 2
-15 7 11 18239.2 1684.1 4
8 -14 -5 62161.1 2405.93 1
6 8 -5 60381.4 1972.51 3
8 -14 -5 63870.2 1401.89 3
-14 6 -2 25868.5 882.43 4
8 -14 -2 25668 1210.22 3
8 -14 -2 27714.7 1461.47 1
8 -14 -2 27512 1090.64 2
8 -14 -2 25582.3 1185.28 4
6 8 -2 23720.5 1090.35 4
-14 6 -2 26108.4 772.998 1
6 8 -2 26167.9 990.621 2
6 8 -2 25890.3 1262.95 3
-14 6 1 231583 2803.72 1
6 8 1 231942 2557.2 1
6 8 1 236225 3300.2 3
8 -14 1 228670 3651.05 3
-14 6 1 233577 3012.19 4
-14 6 1 217069 3007.67 2
-14 6 1 229252 2971.3 3
8 -14 1 243725 3632.3 1
8 -14 4 51537.3 1835.72 1
-14 6 4 51496.5 1725.05 2
8 -14 4 44100.3 602.51 2
6 8 4 48456.7 1355.02 1
8 -14 4 44389.9 600.76 2
6 8 4 48270.7 1543.3 3
8 -14 7 33956.8 1173.32 2
6 8 7 34091.3 1413.15 3
-14 6 7 35097.3 1743.87 4
-14 6 7 33783.6 1717.99 2
6 8 7 35553.7 1719.61 4
8 -14 7 29683.9 1753.19 1
6 8 7 31852.3 1871.32 2
6 8 10 3417.66 1192.98 2
6 8 10 3503.74 728.171 3
-14 6 10 2979.36 955.617 4
-14 6 10 1901.07 924.869 2
8 -14 10 3500.8 719.208 2
8 -14 10 4079.61 1091.22 1
6 8 10 2430.95 932.754 4
8 -13 -6 42884.5 2202.71 1
8 -13 -6 45880.9 958.994 3
8 -13 -3 97958.9 2559.31 1
5 8 -3 93152.5 1989.46 4
5 8 -3 93781.4 1810.58 2
8 -13 -3 91712.4 2114.85 2
8 -13 -3 93188.8 1888.56 3
8 -13 0 221234 3320.43 3
8 -13 0 219522 2024.46 2
-13 5 0 217134 2891.46 3
-13 5 0 222659 2303.37 1
-13 5 0 209430 2606.4 4
5 8 0 213399 2895.39 4
8 -13 0 218805 3322.48 1
5 8 0 212051 2741.49 2
-13 5 0 213612 2881.71 2
5 8 0 218478 3124.58 3
5 8 0 212225 2578.84 1
-13 5 3 62212.5 1381.23 3
-13 5 3 60959.5 1749.51 4
8 -13 3 60152.1 1830.36 1
5 8 3 60666.7 1381.23 1
-13 5 3 63486.6 1776.99 2
-13 5 3 60907.5 1890.6 1
5 8 6 28021.1 1672.49 2
-13 5 6 26389.1 1421.58 2
5 8 6 24560.3 1290.15 1
-13 5 6 27237 1422.31 4
5 8 6 28991.3 1217.22 3
8 -13 6 26690.2 1546.49 1
8 -13 6 27893.6 978.757 2
5 8 6 26984.8 1428.55 4
5 8 9 39165 1499.16 3
8 -13 9 37798.2 1578.39 2
-13 5 9 40232.6 1996.78 4
5 8 9 35945.3 1914.01 4
-13 5 9 36168.6 1976.77 2
5 8 9 41491.2 2336.38 2
8 -13 9 38290.1 2182.62 1
5 8 12 8991.8 1693.45 2
5 8 12 7735.89 1307.3 4
8 -13 12 9120.24 1549.84 1
-13 5 12 7147.02 1392.57 2
-13 5 12 7507.34 1253.34 4
4 8 -4 84042.4 2181.69 3
4 8 -4 84785.2 1852.58 4
8 -12 -4 90040 2581.3 1
4 8 -4 89599.6 1811.79 2
8 -12 -4 87645.3 1564.38 3
-12 4 -1 390872 3880.34 3
4 8 -1 378603 3722.74 1
4 8 -1 387625 4074.21 3
-12 4 -1 366579 3182.53 4
8 -12 -1 374967 3960.48 3
4 8 -1 389819 3317.58 2
-12 4 -1 384827 2368.26 1
-12 4 -1 385768 3860.61 2
8 -12 -1 392028 4362.38 1
8 -12 -1 387347 3641.21 4
4 8 -1 378816 3621.92 4
8 -12 -1 385225 3199.28 2
8 -12 2 53490.1 1616.02 1
4 8 2 53965.8 1270.24 1
-12 4 2 59559.4 1574.15 4
-12 4 2 58265.5 1348.14 3
-12 4 2 53764 1508.84 2
4 8 2 53368.7 1550.33 3
-12 4 2 57980.6 1576.79 1
-12 4 5 207984 2120.02 3
8 -12 5 207881 3649.78 1
8 -12 5 207619 2308.84 2
4 8 5 210477 3473.01 4
-12 4 5 203463 3424.08 2
4 8 5 202697 3707.08 2
-12 4 5 211975 3513.03 4
4 8 5 209586 3171.83 1
4 8 5 203352 2906.31 3
8 -12 8 9206.06 820.469 2
-12 4 8 8935.55 1046.91 4
-12 4 8 9697.38 1136.11 2
4 8 8 6822.38 1238.68 2
4 8 8 9776.03 794.535 3
4 8 8 9442.98 1060.82 4
8 -12 8 8855.38 1133.32 1
-12 4 11 34933.2 2039.77 4
4 8 11 41103.2 2213.3 4
-12 4 11 39626.9 2264.08 2
4 8 11 42139.8 2612.43 2
8 -12 11 42493.2 1955.35 2
8 -12 11 36185.9 1770.76 3
8 -12 11 41075.2 2482.16 1
3 8 -5 18651.7 953.174 2
3 8 -5 17590.7 895.776 4
8 -11 -5 19444.8 600.245 3
8 -11 -5 17623.6 1347.66 1
3 8 -2 180634 2874.34 3
8 -11 -2 180117 2499.55 2
8 -11 -2 174713 2595.91 4
8 -11 -2 167788 3022.56 1
3 8 -2 171191 2341.84 4
3 8 -2 176512 2074.59 2
-11 3 -2 176305 2623.74 3
8 -11 -2 173299 2462.29 3
-11 3 1 37071 1168.32 4
-11 3 1 38724.7 1197.7 2
-11 3 1 39301.7 1121.42 3
3 8 1 36765.3 1040.45 1
-11 3 1 39793.2 1090.65 1
3 8 1 38136.2 1267.06 3
8 -11 1 38952.2 636.51 2
8 -11 1 36506 1306.08 1
8 -11 4 29518.2 803.99 2
3 8 4 29436.1 1297.36 4
-11 3 4 28434 1252.4 2
-11 3 4 30756.7 1298.42 4
-11 3 4 28997.3 854.113 3
8 -11 4 29197.4 1331.8 1
3 8 4 28988.8 1131.33 1
3 8 4 28553.9 1101.36 3
-11 3 4 27316.1 1440.38 1
-11 3 7 31670.7 1613.51 2
-11 3 7 30798.4 1539.34 4
3 8 7 29875.5 1518.62 4
8 -11 7 25284.7 1164.61 2
3 8 7 30049.9 1198.54 3
8 -11 7 31955 1710.94 1
3 8 7 26765.2 1678.99 2
-11 3 10 47370.5 2308.76 2
8 -11 10 49353.1 2004.25 2
3 8 10 52193.3 2326.85 4
3 8 10 49140 1513.44 3
3 8 10 45957.8 2465.76 2
8 -11 10 47393.7 2433.78 1
-11 3 10 48156.6 2208.76 4
8 -11 10 47625.9 1871.15 3
2 8 -6 72156.9 1749.26 4
2 8 -6 70341.4 1895.3 2
2 8 -3 138591 2632.81 3
8 -10 -3 138597 2473.7 2
8 -10 -3 136029 2846.86 1
2 8 -3 146703 1940.9 2
2 8 -3 147713 2095.35 4
-10 2 -3 147957 2434.99 3
8 -10 -3 148762 2565.81 4
8 -10 -3 140102 1970.09 3
8 -10 0 201188 2785.07 1
-10 2 0 205175 2573.56 2
8 -10 0 204066 1855.98 2
-10 2 0 198369 2384.61 4
-10 2 0 203284 1726.51 1
-10 2 0 194442 2433.79 3
2 8 0 200250 2777.1 3
8 -10 0 200908 2166.69 4
2 8 0 205130 2421.27 1
-10 2 3 131436 2652.86 1
-10 2 3 134920 2383.39 4
2 8 3 131065 2126.12 1
-10 2 3 134248 2320.81 2
2 8 3 133552 2177.96 3
8 -10 3 130375 2405.38 1
-10 2 3 131525 1777.54 3
2 8 6 8614.64 660.841 3
2 8 6 8779.42 1051.38 2
8 -10 6 8434.37 698.199 2
8 -10 6 6492.9 856.783 1
-10 2 6 7410.78 801.3 4
-10 2 6 8420.97 877.534 2
-10 2 6 7502.1 390.489 3
2 8 6 7766.39 852.63 4
-10 2 9 97210 3027.7 2
8 -10 9 99925.6 2525.03 3
-10 2 9 96303.1 2826.06 4
2 8 9 97093.3 2927.12 4
8 -10 9 95412.9 3168.35 1
2 8 9 97053.1 1972.56 3
8 -10 9 97786.7 1442.2 4
2 8 9 103752 3424.87 2
8 -10 9 95280.3 2621.25 2
2 8 12 2868.57 1247.83 2
-10 2 12 3049.12 1116.76 2
2 8 12 2925.5 1040.18 4
8 -10 12 3911.24 1280 1
8 -10 12 2410.34 954.033 2
-10 2 12 1726.75 893.201 4
1 8 -7 189208 2888.64 4
8 -9 -4 34208.8 1391.76 4
1 8 -4 36583.4 1412.37 3
8 -9 -4 37643.3 833.31 3
1 8 -4 37872.3 1084.86 4
1 8 -4 39670.2 1093.4 2
8 -9 -4 36917.2 1463.65 2
-9 1 -4 40294.3 1291.3 3
1 8 -1 253961 2907.14 1
8 -9 -1 257359 3092.2 1
8 -9 -1 262349 2493.43 2
1 8 -1 263177 3174.96 3
-9 1 -1 262655 2568.69 4
1 8 -1 252342 2114.05 2
1 8 -1 263626 2594.44 4
8 -9 -1 265624 2718.04 4
-9 1 -1 262233 2802.87 3
8 -9 2 83279.4 1710.65 1
1 8 2 81108.5 1605.33 1
1 8 2 83492 1664.74 3
-9 1 2 85018.1 1449.05 3
-9 1 2 88520.4 1761.96 4
8 -9 2 85213.6 1020.65 2
-9 1 2 84159.5 1683.04 2
1 8 5 76532.9 2084.97 1
-9 1 5 80776.7 1278.64 3
8 -9 5 75771.7 1651.24 2
8 -9 5 74675.6 2052.11 1
1 8 5 77127.5 2075.91 4
1 8 5 79424.2 2312.81 2
1 8 5 77099.8 1597.42 3
-9 1 5 75405.5 1981.68 2
-9 1 5 77224 2003.72 4
1 8 8 130311 3594.57 2
-9 1 8 137934 3319.33 2
-9 1 8 136917 3127.07 4
8 -9 8 133497 3453.48 1
8 -9 8 130668 2716.55 3
8 -9 8 131654 1635.88 4
1 8 8 130053 2127.38 3
1 8 8 131667 3178.2 4
8 -9 8 135454 2905.5 2
-9 1 11 57785 2403.74 4
8 -9 11 61065.9 2460.51 2
8 -9 11 55066.3 2714.84 1
8 -9 11 60580.3 2092.56 3
1 8 11 66336 2695.83 4
-9 1 11 54697.4 2558.97 2
1 8 11 58804.5 2893.8 2
0 8 -8 52275 1613.38 4
0 8 -5 1332.65 383.548 2
0 8 -5 1170.93 332.882 4
-8 0 -5 1164.55 393.704 3
8 -8 -2 380398 4021.23 1
8 -8 -2 400599 3621.63 4
0 8 -2 397798 2347.61 2
0 8 -2 391082 2892.37 4
8 -8 -2 386445 3459.65 2
0 8 -2 389162 3895.39 1
-8 0 -2 404739 3509.64 3
0 8 -2 392461 3981.87 3
-8 0 1 630.887 302.618 2
8 -8 1 727.929 185.583 4
-8 0 1 180.111 320.078 4
-8 0 1 -201.508 277.841 3
0 8 1 805.296 428.019 3
8 -8 1 -44.3811 355.76 1
0 8 1 333.436 284.761 1
8 -8 1 332.651 161.858 2
0 8 4 186658 2898.15 1
8 -8 4 188407 2344.27 2
0 8 4 179571 2274.64 3
-8 0 4 180971 2745.91 2
0 8 4 183406 2919.41 4
8 -8 4 187306 2861.39 1
0 8 4 193284 3184.85 2
-8 0 4 191162 2010.98 3
-8 0 7 537.706 564.188 2
0 8 7 -37.9339 768.675 2
0 8 7 1010.78 382.603 3
0 8 7 772.12 632.537 4
8 -8 7 1283.96 685.14 1
8 -8 7 169.174 540.405 2
8 -8 7 779.125 211.572 4
-8 0 7 383.236 222.47 3
8 -8 7 527 439.449 3
-8 0 7 56.9529 533.664 4
8 -8 10 26970.5 1674.43 2
0 8 10 25557.6 1667.98 4
-8 0 10 27196 1743.52 2
-8 0 10 26820.9 1575.3 4
8 -8 10 25512.7 1817.06 1
0 8 10 27007.9 1964.43 2
8 -8 10 27185.6 1000.42 4
8 -8 10 26882.5 1367.71 3
-1 8 -6 65375.3 1483.03 4
-1 8 -6 63699.9 1703.38 2
-7 -1 -3 67863 1476.65 3
8 -7 -3 64778 950.054 3
-1 8 -3 66192.7 1087.61 2
8 -7 -3 64157.4 1623.1 2
-1 8 -3 61766.7 1129.91 4
8 -7 -3 62073 1868.25 1
8 -7 -3 63585.2 1611.29 4
-1 8 0 49502 1358.76 3
-7 -1 0 47449.3 1104.53 4
-7 -1 0 48607.3 1125.54 3
8 -7 0 49763.5 1196.44 1
8 -7 0 49628.2 930.252 2
-1 8 0 51498.3 1215.31 1
8 -7 0 51266.2 1005.28 4
-7 -1 0 49583.2 1199.62 2
-1 8 3 292709 3453.87 2
8 -7 3 288475 3086.22 1
-1 8 3 290852 3284.82 1
-1 8 3 290491 3384.84 4
-7 -1 3 276017 3038.81 2
-1 8 3 278932 2743.81 3
-7 -1 3 275487 3092.85 4
-7 -1 3 285867 2513.84 3
-7 -1 6 14705.6 957.658 4
-1 8 6 14769.8 1195.49 2
-1 8 6 14817.7 680.815 3
8 -7 6 14077.8 894.145 3
8 -7 6 14598.2 490.557 4
8 -7 6 12194 870.376 2
-1 8 6 14520.6 1043.96 4
-7 -1 6 14044.3 590.557 3
-7 -1 6 14122.4 977.829 2
8 -7 6 16578.3 1122.71 1
8 -7 9 187602 4249.81 1
8 -7 9 187767 3254.78 3
-1 8 9 172327 1811.47 3
-1 8 9 193468 4486.78 2
8 -7 9 180906 3810.8 2
-1 8 9 189397 3961.08 4
-7 -1 9 188783 3976.99 2
-7 -1 9 182057 3618.65 4
8 -7 9 194539 2465.88 4
-1 8 12 4140.84 1307.54 2
8 -7 12 4846.13 1169.64 2
-1 8 12 5140.67 1108.99 4
8 -7 12 2665.31 1134.45 1
-7 -1 12 4666.71 1051.8 2
-7 -1 12 5664.22 1063.66 4
-2 8 -7 145711 2242.68 4
-2 8 -4 23295.7 825.776 2
8 -6 -4 20812.6 1039.5 4
-6 -2 -4 21865.3 887.899 3
-2 8 -4 22728.1 694.396 4
8 -6 -4 19660.4 1055.28 2
8 -6 -4 22036.8 425.783 3
-2 8 -1 364223 3327.15 1
8 -6 -1 365076 3269.71 1
8 -6 -1 361587 2978.02 4
8 -6 -1 369367 2911.9 2
-2 8 -1 355624 3534.79 3
-6 -2 -1 352289 3021 3
-2 8 2 332500 3278.12 4
-2 8 2 321197 2921.03 3
8 -6 2 326116 2751.81 1
8 -6 2 322152 2550.36 2
-6 -2 2 332687 3066.07 4
-6 -2 2 323305 2739.2 3
-6 -2 2 316693 2871.71 2
-2 8 2 331072 3243.62 1
-2 8 2 327262 3142.58 2
8 -6 5 25633.8 1073 3
8 -6 5 28549.2 1185 2
-6 -2 5 26478.2 1113.34 4
-6 -2 5 28796.4 864.556 3
8 -6 5 27278 1227.64 1
-2 8 5 24345.1 1338.78 1
-6 -2 5 26934.1 1147.91 2
-2 8 5 26931.9 1357.63 2
8 -6 5 26597.5 619.85 4
-2 8 5 26948.3 1277.2 4
-2 8 5 25178.3 815.503 3
-2 8 8 55868.8 988.876 3
-2 8 8 56397.1 2096.09 4
8 -6 8 62636.6 2307.62 1
8 -6 8 62850 2160.12 2
8 -6 8 63812.6 1396.24 4
-6 -2 8 62808.1 1218.18 3
-6 -2 8 58505.1 1949.53 4
-2 8 8 63994.3 2484.87 2
8 -6 8 60376.1 1788.11 3
-6 -2 8 61896.5 2146.7 2
8 -6 11 26845.2 1396.02 3
8 -6 11 25406.9 1909.8 1
8 -6 11 30108.2 1914.82 2
-6 -2 11 25540.1 1579.6 4
-6 -2 11 26061.2 1784.69 2
-2 8 11 26302.5 1801.07 4
-2 8 11 25913.6 2003.71 2
-3 8 -8 52381 1439.78 4
-3 8 -5 144727 2180.88 2
-5 -3 -5 138654 2154.59 3
-3 8 -5 141174 1677.45 4
-3 8 -2 66990 1564.93 1
8 -5 -2 69818.7 1687.34 1
-3 8 -2 67856.4 934.141 4
-5 -3 -2 68551.6 1026.97 1
8 -5 -2 69438.4 1053.4 3
-5 -3 -2 71740.6 1377.39 3
8 -5 -2 69109.8 1463.97 4
8 -5 -2 66834.2 1410.43 2
8 -5 1 191867 2258.14 3
-3 8 1 193037 2357.21 1
8 -5 1 193935 1888.58 1
-3 8 1 196401 1967.69 2
-5 -3 1 192765 2058.51 1
8 -5 1 196958 1927.38 2
-5 -3 1 192827 2085.54 2
-5 -3 1 193544 2143.25 3
-3 8 1 194666 2245.74 4
-5 -3 1 187001 2152.34 4
-3 8 1 186813 2335.98 3
8 -5 1 192592 1611.42 4
8 -5 4 209151 2751.3 1
-3 8 4 202472 3034.17 4
-3 8 4 211985 2149.65 3
-3 8 4 219049 3270.88 2
8 -5 4 210043 2763.82 3
8 -5 4 214049 1669.55 4
-3 8 4 219390 3320.84 1
-5 -3 4 205285 2706.08 4
-5 -3 4 217044 2337.33 3
-5 -3 4 213062 2724.55 2
-5 -3 7 21114.7 1101.35 4
-5 -3 7 20208.5 1193.57 2
-3 8 7 19297.8 546.158 3
8 -5 7 21203.3 813.245 4
-3 8 7 22263 1466.02 2
8 -5 7 20738.5 1295.3 1
8 -5 7 21334.2 1070.24 3
-5 -3 7 21582.4 810.437 3
-3 8 7 19773.9 1252.4 4
8 -5 7 23252.1 1337.13 2
8 -5 10 19127.4 1562.36 2
8 -5 10 21615.8 1699.21 1
8 -5 10 21690.9 1050.92 4
-3 8 10 22232.2 1561.82 4
8 -5 10 20094 1163.37 3
-3 8 10 21420.4 1816.81 2
-5 -3 10 22856.9 1377.9 4
-5 -3 10 21215.8 1507.55 2
-4 8 -9 45451.9 1396.37 4
-4 8 -6 55156.8 1122.44 4
-4 -4 -6 49994 1318.52 3
-4 -4 -3 258813 2612.39 3
-4 8 -3 257846 3345.15 1
8 -4 -3 259552 1844.09 3
8 -4 -3 255362 3075.93 2
-4 8 -3 265150 1574.78 4
8 -4 -3 267948 3118.29 4
-4 8 0 292771 2352.73 4
-4 -4 0 297026 2683.99 3
8 -4 0 304824 2323.73 1
-4 -4 0 299217 2111.88 1
8 -4 0 300257 2602.21 3
8 -4 0 304762 2464.99 2
8 -4 0 304149 2409.97 4
-4 8 0 293797 2807.68 1
-4 8 0 297623 1755.62 2
-4 8 3 269886 3207.76 2
-4 -4 3 266635 2643.75 2
-4 -4 3 272673 2774.81 4
8 -4 3 267260 2993.4 3
8 -4 3 265925 2540.57 1
8 -4 3 279037 1913.36 4
-4 -4 3 286826 2745.07 3
-4 8 3 281641 3280.61 4
-4 8 3 274674 2413.4 3
-4 8 3 275276 3387.99 1
-4 -4 6 18397.6 1042.8 2
8 -4 6 21485.2 1164.22 1
8 -4 6 21723.8 790.105 4
8 -4 6 19985.2 971.359 3
-4 -4 6 19385.8 982.33 4
-4 8 6 22445.9 1350.11 2
-4 -4 6 21905.4 874.192 3
8 -4 6 21944.1 1210.52 2
-4 8 6 20050 1175.51 4
-4 -4 9 51747.2 1838.68 4
8 -4 9 53448.6 2280.88 1
8 -4 9 48157.3 2140.71 2
8 -4 9 47725.8 1485.43 4
-4 -4 9 53996.7 2086.66 2
-4 8 9 52180.8 2189.97 4
8 -4 9 50178.5 1639.19 3
-4 8 9 57712.1 2469.25 2
8 -4 12 5721.41 1241.5 2
8 -4 12 8328.92 1415.92 1
-4 -4 12 7778.8 1253.11 2
-4 -4 12 8929.92 1080.31 4
-4 8 12 6215.6 1178.02 4
-4 8 12 10729.4 1583.53 2
-3 -5 -7 75535.4 1570.61 3
-5 8 -7 73676.4 1365.93 4
-3 -5 -4 262406 2637.74 3
-5 8 -4 256638 1505.46 4
8 -3 -4 258869 1815.42 3
8 -3 -4 262854 3357.36 4
8 -3 -1 227148 2372.91 4
-5 8 -1 220321 1643.51 4
8 -3 -1 222741 2416.55 1
-5 8 -1 220819 2545.75 1
-3 -5 -1 223698 1992.86 1
8 -3 -1 222463 2320.68 2
-3 -5 -1 223197 2345.81 3
8 -3 -1 216599 2078.86 3
-3 -5 2 67964.8 1165.76 2
-3 -5 2 65825.2 1289.75 4
-5 8 2 68091.1 1475.31 4
8 -3 2 67372.5 974.87 1
8 -3 2 68456.4 1028.57 4
8 -3 2 67080.2 1400.86 3
-5 8 2 67940 1563 1
-5 8 2 68107.9 1411.89 2
-3 -5 2 69871.3 1555.43 1
-3 -5 2 70967.8 1411.45 3
8 -3 5 67474.9 1314.79 4
-3 -5 5 68162.9 1658.36 2
-3 -5 5 65529.6 1543.82 4
-3 -5 5 62854.4 1487.32 3
8 -3 5 63000.4 1573.77 3
8 -3 5 64147 1709.16 1
-5 8 5 69163.7 2029.8 2
-5 8 5 64025 1896.76 4
-3 -5 8 80053 2286.93 2
8 -3 8 77810.8 1945.81 3
8 -3 8 80985.9 2593.42 2
8 -3 8 81815.9 1854.48 4
-3 -5 8 83704.9 2103.09 4
-3 -5 8 81619.9 1815.02 3
-5 8 8 81644.5 2537.32 4
-5 8 8 76256 2685.82 2
8 -3 11 8491.12 1264.68 1
8 -3 11 9872.67 928.454 4
8 -3 11 10461.7 1358.24 2
-5 8 11 7065.19 1091.84 4
-3 -5 11 9191.72 1188.66 2
-3 -5 11 7812.61 943.62 4
8 -3 11 7704.87 868.664 3
-5 8 11 8946.37 1374.91 2
8 -2 -5 46405.7 881.773 3
-6 8 -5 45406.6 696.578 4
-2 -6 -5 48099.4 1157.62 3
-6 8 -2 305144 3133.01 1
-2 -6 -2 306704 2770.42 1
8 -2 -2 300350 2388.07 3
8 -2 1 327825 2867.96 2
-2 -6 1 316987 2359.59 2
-2 -6 1 317255 2818.4 1
-6 8 1 320967 2791.97 4
-6 8 1 317591 2498.09 2
-6 8 1 319795 3198.54 1
8 -2 1 326057 2944.58 3
-2 -6 1 322333 3027.88 3
8 -2 1 320097 2483.69 4
-6 8 4 61481.6 1707.79 4
8 -2 4 61713.2 1484.86 3
-2 -6 4 61552.4 1912.55 1
-2 -6 4 60555.6 1344.4 2
-2 -6 4 61121.1 1362.76 4
8 -2 4 63608.7 1448.45 1
-6 8 4 59512 1930.21 1
-2 -6 4 64764.6 1550.21 3
-6 8 7 145048 3156.31 4
-2 -6 7 143646 2774.79 2
8 -2 7 130176 3084.68 2
-2 -6 7 140199 2491.86 4
-6 8 7 137911 3273.61 2
8 -2 7 135255 2454.97 3
-2 -6 7 134615 2423.95 3
8 -2 7 142934 2359.1 4
-2 -6 10 81595.6 2648.55 2
8 -2 10 78469.2 2919.49 2
-2 -6 10 81381.9 2292.86 4
8 -2 10 83215.8 2170.07 3
-6 8 10 80175.4 2802.31 4
8 -2 10 81657.5 2237.95 4
-6 8 10 85334.7 3164.22 2
-1 -7 -6 40232.6 1051.19 3
-1 -7 -3 294942 3317.18 1
-7 8 -3 307246 3462.15 1
-1 -7 -3 309747 2812.02 3
8 -1 -3 297970 2418.32 3
8 -1 -3 306739 3334.91 2
8 -1 -3 312436 3361.08 4
-1 -7 0 73374 1344.73 1
8 -1 0 70786.8 1291.73 4
8 -1 0 72432.1 1388.14 2
8 -1 0 71488 1349.83 3
-1 -7 0 75432 1511.44 3
-7 8 0 73019.1 1002.89 2
-7 8 0 72881.9 1174.41 4
-7 8 0 73891 1486.13 1
-1 -7 3 138079 1840.02 4
-7 8 3 136538 2302.78 2
-1 -7 3 140734 1657.28 2
-1 -7 3 138601 2500.35 1
-7 8 3 136118 2355.39 4
8 -1 3 133057 2110.15 3
8 -1 3 136164 1586.74 1
-1 -7 3 144268 2320.24 3
-7 8 6 32046.8 1548.26 2
8 -1 6 36508.6 1635.72 2
8 -1 6 33102.9 1199.23 3
-1 -7 6 35332.3 1148.43 4
-7 8 6 32625.4 1514.59 4
-1 -7 6 33925.3 1233.27 2
8 -1 6 35004.9 1178.76 4
-1 -7 6 34778.1 1763.15 1
-1 -7 6 31397.2 1269.16 3
8 -1 9 44462 1614.65 4
-7 8 9 42630.9 2000.56 4
-1 -7 9 41219.6 2321.94 1
-1 -7 9 45809.8 1580.08 4
8 -1 9 44717.7 1568.96 3
-7 8 9 41798.1 2143.36 2
8 -1 9 41173.8 2129.01 2
-1 -7 9 41125.8 1752.18 2
-1 -7 12 1825.74 1326.94 1
-7 8 12 2852.48 1032.03 4
-7 8 12 1330.96 1072.81 2
8 -1 12 1281.27 1027.62 1
8 -1 12 223.487 1006.19 2
-1 -7 12 1958.93 900.224 2
0 -8 -7 1015.22 313.865 3
0 -8 -4 206434 2290.14 3
8 0 -4 204978 3010.32 2
8 0 -4 199951 2916.02 4
0 -8 -4 206517 3237.84 1
8 0 -4 201199 2176.64 3
-8 8 -1 502.782 175.98 4
-8 8 -1 483.002 195.493 2
8 0 -1 530.408 303.311 3
0 -8 -1 291.749 362.874 1
8 0 -1 304.188 288.131 4
8 0 -1 147.292 235.015 2
-8 8 -1 156.309 310.281 1
0 -8 -1 110.342 303.192 3
-8 8 2 351739 3695.99 1
8 0 2 369387 3369.04 3
0 -8 2 359704 3618.92 1
-8 8 2 360732 3252.32 2
8 0 2 356707 2982.91 4
0 -8 2 357754 3628.14 3
-8 8 2 363932 3458.25 4
0 -8 5 1816.94 570.476 3
0 -8 5 795.425 315.752 4
0 -8 5 1194.94 371.491 2
-8 8 5 1147.18 546.674 4
8 0 5 792.313 410.219 3
8 0 5 1462.1 451.404 4
0 -8 5 992.338 625.021 1
-8 8 5 1285.85 571.589 2
0 -8 8 62679.1 1673.31 4
-8 8 8 55838 2278.34 2
8 0 8 57828.8 1806.27 4
0 -8 8 61271.6 2593.24 1
-8 8 8 55500.2 2139.36 4
0 -8 8 51446.6 1825.53 3
0 -8 8 58166.9 1896.25 2
8 0 8 56527.1 1681.52 3
8 0 8 58226.8 2346.61 2
0 -8 11 4816.62 1391.9 1
8 0 11 2392.97 1070.53 2
0 -8 11 1078.52 586.284 4
0 -8 11 3650.21 867.187 2
-8 8 11 5359.05 1161.3 2
8 0 11 3140.4 639.189 3
-8 8 11 1898.98 892.933 4
8 0 11 2863.47 747.389 4
1 -9 -5 172921 2156.19 3
8 1 -5 192132 2394.1 3
8 1 -2 22466.1 902.701 4
1 -9 -2 22032 1022.73 1
8 1 -2 22389.9 907.195 2
1 -9 -2 22468.4 874.703 3
-9 8 -2 22666.5 435.171 4
-9 8 -2 24184.9 901.035 1
-9 8 1 233684 2371.47 2
8 1 1 236564 2505.67 4
1 -9 1 233447 2984.11 3
-9 8 1 235840 2553.15 4
8 1 1 240733 2740.01 3
-9 8 1 232597 2775.98 1
1 -9 1 238752 2788.47 1
8 1 1 233574 2756.11 2
1 -9 4 37697.7 1464.85 3
1 -9 4 37112.1 913.958 2
-9 8 4 40284.4 1450.85 2
-9 8 4 39755.5 1465.05 4
8 1 4 38430.1 1111.25 1
1 -9 4 39658.2 1008.41 4
-9 8 4 40916.2 1645.62 1
1 -9 7 125581 3413.26 1
8 1 7 129039 2446.27 3
1 -9 7 126890 2160.03 4
8 1 7 127952 2595.47 4
1 -9 7 132023 2469.15 2
1 -9 7 122492 2737.12 3
-9 8 7 126771 3000.85 4
8 1 7 134385 3318 2
-9 8 7 126859 3149.58 2
1 -9 10 47418 1614.34 4
-9 8 10 45398.7 2205.95 4
1 -9 10 48505.2 2624.11 1
8 1 10 43801.5 1588.45 3
8 1 10 44371.1 1866.22 4
8 1 10 44637.8 2367.95 2
1 -9 10 45659.3 1914.96 2
-9 8 10 46675.4 2353.75 2
2 -10 -6 16607.7 667.329 3
8 2 -6 18927.5 914.505 3
8 2 -3 99613.7 1805.95 3
2 -10 -3 101111 2217.68 1
-10 8 -3 100754 1974.97 1
2 -10 -3 104563 1757.04 3
8 2 -3 103450 2031.96 2
8 2 -3 104556 2038.49 4
-10 8 0 224320 2658.73 1
2 -10 0 229306 2873.2 1
-10 8 0 219373 2242.52 4
8 2 0 223887 2597.34 4
8 2 0 222089 2642.95 3
2 -10 0 223884 2922.39 3
-10 8 0 219951 2226.82 2
8 2 0 227667 2664.61 2
-10 8 3 134585 2632.48 1
-10 8 3 130539 2391.23 4
2 -10 3 125704 2526.16 1
2 -10 3 121972 2565.93 3
8 2 3 127635 2193.67 3
2 -10 3 129453 1271.14 2
8 2 3 124684 1395.98 1
8 2 6 51875.4 2016.89 2
8 2 6 56198.2 1774.5 1
2 -10 6 53627.1 1398.22 2
2 -10 6 56049.6 2172.61 1
8 2 6 55851.6 1674.94 4
-10 8 6 49355.8 1898.02 2
2 -10 6 54897.6 1295.14 4
-10 8 6 55047.2 1931.22 4
8 2 6 54556.2 1578.77 3
8 2 9 26289.3 1444.53 4
2 -10 9 23327.6 1304.38 2
2 -10 9 27001.1 1919.6 1
-10 8 9 26303.8 1645.75 4
8 2 9 25201.2 1821.78 2
2 -10 9 19130.8 1005.6 4
8 2 9 25065.5 1219.86 3
-10 8 9 23910.4 1708.85 2
8 2 12 3673.06 922.486 4
-10 8 12 3467.87 1043.97 4
2 -10 12 4844.23 1023.9 2
-10 8 12 5323.3 1333.3 2
2 -10 12 5045.28 1446.43 1
8 2 12 4908.05 1390.04 2
3 -11 -7 16600.9 649.281 3
8 3 -4 50852.7 1544.6 2
3 -11 -4 48026.3 1204.44 3
8 3 -4 46139.5 1492.12 4
8 3 -4 47229 1388.07 3
3 -11 -4 47688.1 1807.47 1
3 -11 -1 23670.7 1132.77 1
-11 8 -1 25892.8 866.307 2
-11 8 -1 26707.5 921.073 1
-11 8 -1 26910.9 733.012 4
8 3 -1 29068.9 1037.71 2
3 -11 -1 25623.5 1072.79 3
8 3 -1 28939.2 1061.08 3
8 3 -1 25819.2 993.097 4
3 -11 2 225772 3411.96 3
-11 8 2 227476 2956.71 4
8 3 2 225784 1356.85 1
-11 8 2 224023 2806.38 2
8 3 2 227517 2898.4 3
-11 8 2 236668 3155.63 1
3 -11 2 228587 3173.15 1
8 3 5 65986.4 1599.78 1
-11 8 5 68192.8 2052.25 4
3 -11 5 66259.4 1293.37 2
8 3 5 66143.2 1722.18 3
3 -11 5 67890.8 2209.75 1
-11 8 5 60793.1 1933.76 2
-11 8 8 24849.3 1595.11 2
3 -11 8 20620.1 1635.69 1
8 3 8 23727.9 1165.02 3
-11 8 8 22904.5 1514.83 4
8 3 8 22522.5 1612.76 2
3 -11 8 23183.5 1164.28 2
8 3 8 23899.5 1342.44 4
3 -11 8 24281.8 962.929 4
8 3 11 25773.1 2066.93 2
-11 8 11 28487.9 1943.17 4
3 -11 11 29028.3 2239.02 1
3 -11 11 26798.9 1583.8 2
-11 8 11 26856.9 1999.88 2
8 3 11 25289.4 1656.48 4
4 -12 -8 597.894 221.061 3
4 -12 -5 264771 2735.31 3
4 -12 -5 271821 4521.03 1
8 4 -5 275485 3460.96 3
8 4 -2 40204.3 1229.58 2
-12 8 -2 43006.4 1170.05 1
-12 8 -2 38711 828.483 4
4 -12 -2 38307.5 1273.44 3
8 4 -2 39482.3 1289.14 4
8 4 -2 37920.5 1249.93 3
4 -12 -2 38783.6 1502.83 1
8 4 1 363856 3831.17 2
4 -12 1 371665 4033 1
-12 8 1 365483 3476.18 4
8 4 1 369533 2163.94 1
8 4 1 366008 3760.5 3
8 4 1 360830 3625.39 4
-12 8 1 364434 3639.81 1
4 -12 1 368896 4294 3
-12 8 1 363298 3386.12 2
8 4 4 120390 2298.35 3
-12 8 4 131062 2625.94 2
4 -12 4 124952 2776.87 1
8 4 4 121221 1761.02 1
-12 8 4 126045 2646.22 4
4 -12 4 126153 1315.7 2
4 -12 7 76759.6 1781.69 2
8 4 7 74467.5 1964.61 3
-12 8 7 68820.1 2386.48 2
4 -12 7 79479.4 1477.86 4
8 4 7 76489.3 2210.8 4
-12 8 7 75602.4 2441.17 4
8 4 7 72282.8 2651.66 2
8 4 7 66195.6 2103.28 1
4 -12 7 77159.6 2700.34 1
4 -12 10 21077.7 1322.89 2
8 4 10 20501.6 1235.06 3
8 4 10 19801 1453.71 4
-12 8 10 18823.9 1579.41 4
-12 8 10 20310.9 1668.64 2
8 4 10 20817.8 1838.4 2
4 -12 10 21662.6 1917.73 1
5 -13 -6 43327.1 1101.11 3
5 -13 -6 43642.5 2101.37 1
8 5 -6 44879.7 1588.77 3
8 5 -3 32861 1257.34 3
8 5 -3 31933.7 1220.15 2
5 -13 -3 31648.1 1487.22 1
8 5 -3 30102.5 1203.06 4
-13 8 -3 32801.5 1111.24 1
5 -13 -3 32743.3 1154.08 3
5 -13 0 196103 3173.58 1
-13 8 0 192328 2528.73 1
8 5 0 196116 2767.78 4
8 5 0 194765 2816.5 3
-13 8 0 192800 2578.44 2
5 -13 0 194499 3170.42 3
-13 8 0 191836 2375.37 4
8 5 0 199607 2742.17 2
8 5 3 117815 1491.58 1
8 5 3 114223 2266.71 3
-13 8 3 116117 2327.51 2
-13 8 3 118774 2616.07 1
5 -13 3 120571 2621.3 1
-13 8 3 116019 2424.8 4
8 5 6 35176.2 1384.96 1
-13 8 6 33226.2 1611.05 2
8 5 6 38119.6 1599.19 4
5 -13 6 33313.2 1018.13 2
5 -13 6 37724.2 1810.45 1
-13 8 6 36607.9 1678.63 4
8 5 6 35815.2 1380.23 3
5 -13 9 8006.94 587.393 4
-13 8 9 9585.23 1153.72 4
5 -13 9 8144.85 1281.18 1
8 5 9 7776.61 985.168 4
-13 8 9 9055.61 1197.31 2
8 5 9 8131.31 1318.54 2
5 -13 9 8533.43 831.311 2
8 5 9 8852.72 861.633 3
-13 8 12 8777.47 1355.65 4
8 5 12 9263.97 1319.88 4
5 -13 12 9843.04 1644.01 1
-13 8 12 8740.56 1434.99 2
8 5 12 9045.24 1608.6 2
6 -14 -7 26971.7 814.757 3
8 6 -7 27960.9 1403.03 3
8 6 -4 58233.4 1771.54 3
6 -14 -4 54783.1 2098.27 1
6 -14 -4 57705.4 1476.45 3
8 6 -1 254113 3270.97 4
6 -14 -1 263331 3891.48 1
-14 8 -1 252506 3082.23 2
-14 8 -1 252037 2611.75 4
-14 8 -1 250176 2765.74 1
6 -14 -1 259000 3605.24 3
8 6 -1 259615 3144.22 2
8 6 -1 256233 3391.82 3
6 -14 2 25433.4 1274.22 1
8 6 2 25836.7 709.729 1
-14 8 2 25275.1 1173.09 1
8 6 2 23954.7 1153.71 3
-14 8 2 25346.3 1121.96 4
-14 8 2 27185.5 1161.7 2
6 -14 5 93073 2646.82 1
8 6 5 94531 1871.3 1
8 6 5 88145.7 2119.76 3
-14 8 5 96723.3 2563.6 4
6 -14 5 93839.6 1248.8 2
-14 8 5 94140.7 2441.18 2
8 6 8 17210.5 1323.75 4
-14 8 8 18146.8 1456.33 2
8 6 8 15579.1 1515.84 2
-14 8 8 17580.8 1380.58 4
6 -14 8 16348.6 947.939 2
8 6 8 15315.3 1067.26 3
6 -14 8 18802.7 1575.46 1
6 -14 11 42195.2 2592.54 1
-14 8 11 43363.8 2466.74 2
-14 8 11 43633.1 2364.1 4
8 6 11 44759.5 2706.59 2
6 -14 11 46295.4 1970.74 2
8 6 11 43223.1 2222.49 4
8 7 -5 121194 2689.94 3
7 -15 -5 121568 3305.67 1
7 -15 -5 120135 2067.54 3
8 7 -2 11083.4 906.99 3
7 -15 -2 10618.7 1020.84 1
-15 8 -2 10686.1 589.673 4
7 -15 -2 10838.7 911.32 3
-15 8 -2 12477.9 650.831 1
8 7 -2 10445.7 729.438 2
8 7 1 323978 3897.71 2
8 7 1 331160 3975.27 3
-15 8 1 317539 3630.13 2
-15 8 1 324483 3528.21 1
7 -15 1 329062 4329.05 1
8 7 1 331060 2798.71 1
-15 8 4 97803.6 2383.88 2
-15 8 4 101686 2497.72 4
7 -15 4 97886.3 2576.67 1
8 7 4 96355.4 1697.91 1
8 7 4 92903.8 2221.27 3
-15 8 7 22699.9 1518.48 2
8 7 7 18574.3 1561.82 2
-15 8 7 17768.3 1367.36 4
7 -15 7 23098.5 906.437 2
7 -15 7 19795.1 1511.12 1
8 7 7 18909.5 1326.45 4
8 7 7 21014.2 1202.94 3
-15 8 10 30063 1969.56 4
8 7 10 28079 1810.73 4
7 -15 10 32946.4 1498.07 2
7 -15 10 31426.6 2174.79 1
8 7 10 29690.3 1489.58 3
-15 8 10 32832 2052.43 2
8 7 10 30216 2195.56 2
8 8 -6 36890.5 1703.88 3
8 -16 -6 39715.3 1201.28 3
8 -16 -6 40549.5 2195.74 1
-16 8 -3 1417.01 373.81 1
8 8 -3 1039.56 422.049 2
8 8 -3 531.082 611.016 3
8 -16 -3 716.983 494.406 2
8 -16 -3 793.606 704.317 1
8 -16 -3 999.454 486.646 3
-16 8 0 2155.69 511.048 2
8 -16 0 1366.68 724.953 1
8 8 0 1903.32 487.427 2
-16 8 0 1842.09 459.113 1
-16 8 0 1576.01 406.922 4
8 8 0 776.975 548.688 3
8 8 0 1562.73 389.167 1
-16 8 3 255.214 506.08 4
8 8 3 -91.353 487.898 3
8 -16 3 396.371 631.296 1
-16 8 3 489.108 477.675 2
8 8 3 257.895 286.315 1
8 8 6 62739.9 2176.79 4
8 8 6 63511.7 1969.79 3
-16 8 6 65320.6 2295.82 4
8 -16 6 63683.7 1122.93 2
-16 8 6 64623.2 2261.04 2
8 -16 6 66888.6 2450.4 1
8 -16 9 4056.69 615.108 2
-16 8 9 4815.44 1049.65 4
8 8 9 5033.72 1016.99 4
-16 8 9 3301.1 1003.12 2
8 8 9 3492.45 1095.72 2
8 -16 9 5579.61 1194.82 1
8 8 9 4302.24 781.605 3
9 -17 -7 43089.8 2445.94 1
9 -17 -7 43601.5 1149.18 3
8 9 -7 42352.2 1894.48 3
9 -17 -4 23823 1581 1
8 9 -4 24486.1 1418.43 3
9 -17 -4 21225 1077.25 3
9 -17 -1 176268 3497.71 1
8 9 -1 177197 3173.69 3
-17 8 -1 170244 2485.83 4
-17 8 -1 175277 2992.49 2
-17 8 -1 170577 2331.64 1
8 9 2 74354.5 1511.18 1
-17 8 2 72150.2 1935.16 1
-17 8 2 71811.8 1957.02 2
-17 8 2 71277.6 1961.68 4
9 -17 2 74437.1 2233.79 1
8 9 2 74552.1 2094.81 3
-17 8 5 169050 3425.9 2
9 -17 5 167833 3625.11 1
8 9 5 161342 2608.11 1
8 9 5 166619 3150.29 3
8 9 8 5434.22 988.325 4
9 -17 8 6148.72 588 2
8 9 8 5888.7 1152.23 2
-17 8 8 6631.23 1106.7 2
9 -17 8 6128.55 1186.49 1
-17 8 8 4385.7 940.209 4
8 9 8 6540.13 865.578 3
-17 8 11 34399.7 2235.37 4
8 9 11 28976.4 2285.05 2
8 9 11 30795.8 2069.33 4
9 -17 11 28004.5 2189.68 1
-17 8 11 31832.7 2206.96 2
9 -16 -5 15680.8 1431.81 1
7 9 -5 16756 1282.48 3
9 -16 -5 16955.4 888.817 3
9 -16 -2 68523.6 2010.62 3
7 9 -2 76341.6 2138.07 3
9 -16 -2 74981.3 2339.53 1
-16 7 -2 74938.4 1350.42 1
9 -16 -2 74721.7 1817.67 2
-16 7 -2 71038.7 1524.26 4
7 9 -2 74532.1 1780.79 2
7 9 1 43469.4 1524.8 2
7 9 1 49691.7 1689.26 3
-16 7 1 51607.7 1538.27 4
-16 7 1 47759.1 1380.13 1
9 -16 1 44040.5 1719.08 1
7 9 1 49057.9 1267.2 1
-16 7 1 47870.5 1565.3 2
7 9 4 127306 2656.26 3
-16 7 4 134420 2907.84 4
7 9 4 137177 2228.89 1
9 -16 4 135291 3017.16 1
-16 7 4 133919 2860.25 2
7 9 7 8694.57 1082.71 4
7 9 7 6350.79 1138.3 2
7 9 7 9241.01 904.423 3
-16 7 7 9126.22 1064.54 2
9 -16 7 7862.69 1149.59 1
9 -16 7 8664.03 591.425 2
-16 7 7 9037.18 1089.04 4
-16 7 10 13829 1506.57 2
7 9 10 15131.7 1720.61 2
7 9 10 13492 1417.01 4
-16 7 10 12180.8 1374.55 4
7 9 10 12845.4 1113.84 3
9 -16 10 11108.6 929.767 2
9 -16 10 13455.4 1586.84 1
6 9 -6 30990.8 1589.79 3
9 -15 -6 30439.4 947.95 3
9 -15 -6 28689.8 1848.5 1
9 -15 -3 41726 1450.37 3
6 9 -3 44522.8 1695.99 3
9 -15 -3 45590.6 1594.33 2
6 9 -3 46418.1 1376.26 2
9 -15 -3 44576.1 1859.53 1
6 9 0 38926.5 1210.7 1
6 9 0 35145.6 1411.25 3
6 9 0 37041.8 1261.05 2
9 -15 0 37292.6 918.984 2
-15 6 0 38071.4 1386.44 3
9 -15 0 38327.3 1627.81 3
-15 6 0 37304.3 1208.31 4
-15 6 0 36906.7 1081.69 1
9 -15 0 39195.6 1601.65 1
-15 6 0 36056.9 1339.76 2
-15 6 3 61562.5 1850.54 4
9 -15 3 60461.4 1953.94 1
-15 6 3 58736.6 1482.2 3
-15 6 3 56509 1852.84 1
-15 6 3 58460 1772.91 2
6 9 3 61511.7 1790.34 3
6 9 3 61137.3 1429.56 1
9 -15 6 22588 1467.9 1
9 -15 6 22634.3 797.225 2
-15 6 6 22256 1386.51 2
6 9 6 21744.2 1523.02 2
6 9 6 23302 1403.16 4
6 9 6 20510.5 1183.33 1
6 9 6 21374.1 1148.99 3
-15 6 6 23747.8 1423.77 4
6 9 9 4850.04 1303.11 2
-15 6 9 4147.29 965.348 2
6 9 9 5241.14 1001.84 4
-15 6 9 3337.09 914.786 4
6 9 9 5390.04 801.193 3
9 -15 9 4773.77 1109.06 1
9 -15 9 4448.86 662.389 2
6 9 12 8738.25 1649.47 2
-15 6 12 8222.97 1382.92 4
-15 6 12 5881.13 1345.15 2
9 -15 12 5364.36 1343.48 1
6 9 12 7244.77 1297.82 4
9 -14 -7 45593.8 752.471 3
9 -14 -4 37343.2 1802.13 1
5 9 -4 39106.8 1284.53 2
5 9 -4 41859.1 1654.89 3
9 -14 -4 38094.5 1194.81 3
-14 5 -1 293743 3651.55 2
5 9 -1 302170 3544.59 4
-14 5 -1 308258 3139.98 4
9 -14 -1 316341 3061.98 2
9 -14 -1 316339 3995.59 3
-14 5 -1 307739 3721.05 3
5 9 -1 305338 3207.63 2
9 -14 -1 311347 4235.32 1
-14 5 -1 312077 2413.03 1
5 9 -1 305329 3566.76 1
5 9 -1 301223 3862.34 3
9 -14 -1 312484 3529.73 4
-14 5 2 162046 2688.04 4
-14 5 2 166509 2456.47 3
-14 5 2 163287 2729.72 2
9 -14 2 162836 2920.89 1
5 9 2 173348 2263.63 1
-14 5 2 164340 2679.87 1
5 9 2 162704 2800.2 3
-14 5 5 166201 2143.26 3
-14 5 5 172837 3289.33 4
-14 5 5 163290 3178.25 2
9 -14 5 170657 1839.5 2
5 9 5 165685 3215.52 4
5 9 5 167620 3510.45 2
5 9 5 160177 2768.22 1
9 -14 5 174649 3462.73 1
5 9 5 168126 2862.08 3
5 9 8 39933.9 2225.88 2
-14 5 8 37691.2 1890.64 4
9 -14 8 35769.2 1368.14 2
5 9 8 37267.7 1873.8 4
9 -14 8 37406.7 2035.6 1
5 9 8 38756.3 1560.66 3
-14 5 8 38330.8 1902.76 2
5 9 11 59279.5 2711.92 4
5 9 11 54854.6 2954.49 2
9 -14 11 57808.4 2202.93 2
9 -14 11 61339.2 2345.07 3
-14 5 11 60898.3 2755.09 4
-14 5 11 55516 2663.91 2
9 -14 11 54038 2824.11 1
4 9 -5 6502.53 672.34 2
9 -13 -5 5336.47 979.879 1
4 9 -5 7087.55 901.335 3
9 -13 -5 6279.15 483.228 3
9 -13 -2 62932.1 1727.28 3
4 9 -2 62396.4 1581.25 4
-13 4 -2 65183.7 1765.21 3
9 -13 -2 65102 1618.83 2
-13 4 -2 62613.7 949.895 1
9 -13 -2 62828 1999.73 1
9 -13 -2 60993.3 1674.36 4
4 9 -2 66144.2 1393.36 2
4 9 -2 64927.7 1891.31 3
9 -13 1 74719.9 1982.19 1
-13 4 1 75619.8 1537.18 1
-13 4 1 74790.6 1678.42 3
9 -13 1 72464.1 934.617 2
4 9 1 70471.7 1822.92 3
-13 4 1 72193 1779.72 2
4 9 1 73044.6 1499.33 1
-13 4 1 76534.7 1721.84 4
9 -13 4 52115.5 934.557 2
-13 4 4 54434.8 1264.34 3
9 -13 4 56149.1 1859.48 1
4 9 4 55164.6 1550.41 1
-13 4 4 57543.7 1783.25 2
4 9 4 51879.8 1568.22 3
-13 4 4 56371.3 1797.69 4
4 9 7 1699.42 687.056 4
9 -13 7 1823.36 796.536 1
-13 4 7 2396.76 787.963 4
9 -13 7 2640.51 524.921 2
4 9 7 2577.51 554.371 3
-13 4 7 2336.6 734.085 2
4 9 7 1243.44 826.183 2
4 9 10 36886 2021.12 4
-13 4 10 36105.6 2011.8 4
9 -13 10 37514 1733.76 2
9 -13 10 35882.8 1786.72 3
4 9 10 30487.5 2221.57 2
-13 4 10 34731.8 2039.95 2
9 -13 10 35157 2194.5 1
4 9 10 38027.5 1477.9 3
3 9 -6 42542.6 1524.49 2
9 -12 -6 40152.4 703.146 3
3 9 -3 42612.8 1639.78 3
9 -12 -3 41795.4 1287.56 3
9 -12 -3 41858.3 1477.18 2
9 -12 -3 44616.1 1777.95 1
3 9 -3 43979.1 1296.69 4
3 9 -3 45541.2 1174.22 2
-12 3 -3 43617.9 1477.82 3
9 -12 -3 44219.1 1503.27 4
-12 3 0 42472.1 1292.26 3
9 -12 0 41247.5 1490.6 1
9 -12 0 43201 943.488 2
3 9 0 40767.1 1432.36 3
-12 3 0 41786.3 1330.41 2
-12 3 0 39818.4 1186.94 4
9 -12 0 40295.4 1111.93 4
-12 3 0 42233.5 904.308 1
3 9 0 41632.6 1215.05 1
3 9 0 40040.2 1164.9 2
9 -12 3 1265.87 220.522 2
-12 3 3 958.573 489.937 2
3 9 3 1376.3 455.157 1
9 -12 3 1681.79 186.226 2
3 9 3 1450.61 522.04 3
-12 3 3 1238.41 549.022 1
9 -12 3 743.443 543.872 1
-12 3 3 1148.74 360.044 3
-12 3 3 1780.23 565.473 4
9 -12 6 46025.1 1855.99 1
3 9 6 48029.8 1831.63 4
-12 3 6 47637.7 1825.11 2
-12 3 6 46569.3 999.743 3
3 9 6 48618.9 1477.16 3
3 9 6 45310.4 1980.72 2
9 -12 6 49394.4 1363.13 2
-12 3 6 43181.5 1725.89 4
9 -12 9 4277.41 1058.92 1
3 9 9 4327.96 671.741 3
9 -12 9 4096.88 742.972 2
3 9 9 4953.6 952.27 4
-12 3 9 3642.4 938.867 2
3 9 9 2509.75 990.807 2
-12 3 9 4682.8 895.288 4
-12 3 12 22541.9 1897.67 2
9 -12 12 24402.6 2060.08 1
3 9 12 22349.8 2089.04 2
9 -12 12 22048.6 1607.21 2
-12 3 12 18977.9 1685.63 4
3 9 12 22612.3 1863.45 4
2 9 -4 202450 3294.88 3
9 -11 -4 198107 2211.84 3
2 9 -4 194322 2615.09 4
-11 2 -4 190882 2986.6 3
2 9 -4 198897 2489.11 2
9 -11 -1 219947 2685.98 4
2 9 -1 213138 2827.9 1
2 9 -1 220535 2215.52 2
9 -11 -1 217710 2419.97 2
2 9 -1 217867 2640.18 4
-11 2 -1 209724 1241.29 1
-11 2 -1 215500 2801.53 3
2 9 -1 214845 3136.51 3
9 -11 -1 216424 3143.77 1
-11 2 -1 212767 2479.67 4
-11 2 2 110793 2135.97 1
2 9 2 116405 2150.69 3
9 -11 2 112051 1090.82 2
-11 2 2 112498 1843.2 3
-11 2 2 117202 2153.44 4
2 9 2 115652 1953.9 1
-11 2 2 114281 2097.87 2
9 -11 2 113646 2224.35 1
-11 2 5 169633 2003.02 3
2 9 5 164546 3082.2 4
-11 2 5 166617 3045.99 2
9 -11 5 167753 2267.5 2
2 9 5 162443 2954.1 1
2 9 5 173697 3430.51 2
-11 2 5 171744 3095.09 4
9 -11 5 171155 3203.69 1
2 9 5 167422 2576.24 3
-11 2 8 11166.1 1117.31 4
9 -11 8 14304.7 1337.94 1
2 9 8 13027.2 890.328 3
9 -11 8 13477.7 1001.15 2
2 9 8 13432.5 1411.4 2
-11 2 8 12550.7 1169.82 2
2 9 8 11957.1 1190.1 4
2 9 11 83200.2 3074.98 4
9 -11 11 77281.3 2475.86 3
-11 2 11 78648.5 2877.18 4
2 9 11 81243.2 3436.38 2
-11 2 11 71808.2 2932.71 2
9 -11 11 82767.3 3281.85 1
9 -11 11 79535.1 2724.78 2
9 -10 -5 53378.7 827.444 3
-10 1 -5 51266 1600.81 3
1 9 -5 55376.3 1414.1 4
9 -10 -5 51963.6 764.061 3
-10 1 -2 128234 2181.78 3
1 9 -2 116624 2447.29 3
9 -10 -2 121163 2048.24 2
1 9 -2 124046 1519.62 2
1 9 -2 117815 1818.85 4
1 9 -2 118878 2299.61 1
9 -10 -2 122081 2167.68 4
9 -10 -2 121809 2483.61 1
-10 1 1 14590.2 702.94 1
9 -10 1 13887.5 843.027 1
-10 1 1 16114.3 809.14 4
1 9 1 14427.7 866.24 3
-10 1 1 14380.5 710.17 3
9 -10 1 15405.8 486.339 2
-10 1 1 15372.7 801.426 2
1 9 1 16132.6 771.337 1
9 -10 1 15921.4 558.595 4
1 9 4 54206.9 1827.38 2
-10 1 4 54241.1 1223.46 3
-10 1 4 60811.6 1737.43 4
1 9 4 56583.6 1734.28 4
1 9 4 56629 1637.75 1
1 9 4 53413.4 1432.94 3
9 -10 4 51171.2 1628 1
9 -10 4 57502.9 1240.15 2
-10 1 4 59209.1 1686.11 2
9 -10 7 14081.7 955.577 2
-10 1 7 13702.4 524.649 3
1 9 7 13373.4 1143.77 4
1 9 7 11262.2 777.289 3
-10 1 7 14484.7 1077.96 4
1 9 7 10978.9 1224.25 2
9 -10 7 12079.8 1143.46 1
-10 1 7 14573.7 1118.28 2
9 -10 10 13950.5 1262.34 2
-10 1 10 12606.7 1325.35 2
1 9 10 13274.7 1479.81 2
1 9 10 13909.5 1330.67 4
9 -10 10 14748 1164.55 3
9 -10 10 15834.1 1573 1
-10 1 10 13243.7 1250.87 4
0 9 -6 39957.4 1214.23 4
0 9 -6 38869.4 1370.21 2
0 9 -3 914.157 280.258 2
9 -9 -3 728.993 408.776 4
9 -9 -3 907.198 673.951 1
-9 0 -3 859.277 415.691 3
0 9 -3 1017.31 315.141 4
0 9 -3 -137.676 727.704 3
9 -9 -3 73.3663 446.92 2
9 -9 0 78219.3 1339.8 4
-9 0 0 76468.8 1514.22 4
-9 0 0 80074.1 1560.34 3
9 -9 0 77628.1 1675.91 1
-9 0 0 79939.2 1645.81 2
-9 0 0 81125 1065.89 1
0 9 0 78488.6 1819.23 3
0 9 0 78766.5 1569.93 1
0 9 3 3557.23 711.298 2
-9 0 3 3312.3 536.696 2
-9 0 3 3694.1 577.53 4
9 -9 3 2975.35 574.22 1
-9 0 3 3068.01 411.773 3
0 9 3 3524.17 655.724 4
0 9 3 3092.6 555.596 1
0 9 3 3205.17 550.609 3
0 9 6 40861.3 1876.53 2
-9 0 6 41553.9 1577.44 4
0 9 6 40368.4 1668.69 4
9 -9 6 43739.9 1452.3 2
-9 0 6 38350.1 1554.61 2
-9 0 6 41224.1 987.993 3
9 -9 6 40934.9 1680.16 1
0 9 6 42092.9 1204.62 3
9 -9 9 926.114 656.961 2
-9 0 9 1472.62 777.695 2
9 -9 9 1124.95 267.557 4
0 9 9 1114.46 412.702 3
9 -9 9 917.978 608.517 3
0 9 9 1017.23 801.715 4
9 -9 9 1987.26 948.489 1
-9 0 9 1824.8 696.637 4
0 9 9 1574.53 920.721 2
9 -9 12 33656.2 2078.63 2
-9 0 12 33181.4 2177.27 2
0 9 12 36370.2 2505.45 2
0 9 12 35470.4 2231.27 4
9 -9 12 32463.9 2301.94 1
-9 0 12 31015.1 1902.89 4
-1 9 -7 114200 2119.74 4
-1 9 -7 110171 2443.24 2
9 -8 -4 43615.4 741.835 3
-1 9 -4 42181.8 1045.6 4
-8 -1 -4 42662.3 1302.77 3
-1 9 -4 41388 1059.81 2
9 -8 -4 45256.7 1574.15 2
9 -8 -4 41475.5 1464.18 4
-1 9 -1 260230 3280.73 3
9 -8 -1 247953 2639.73 4
-1 9 -1 257545 1747.84 2
9 -8 -1 244103 2492.77 2
-1 9 -1 250394 2922.59 1
-8 -1 -1 235219 2680.49 3
9 -8 -1 248859 2985.91 1
-8 -1 2 16185.9 710.413 3
9 -8 2 17934.5 413.091 4
-8 -1 2 17323 832.451 4
-1 9 2 17651 866.467 2
-8 -1 2 15451.5 771.454 2
-1 9 2 17308.5 847.446 1
9 -8 2 18313.5 820.802 1
-1 9 2 17272.3 888.023 4
9 -8 2 17892.8 597.903 2
-1 9 2 16191.5 855.325 3
-8 -1 5 180155 2951.73 4
9 -8 5 180476 3040.82 1
-1 9 5 183287 3394.68 2
-8 -1 5 181872 2993.89 2
-1 9 5 173557 3106.21 4
9 -8 5 166973 2641.71 2
-1 9 5 173082 2254.06 3
-1 9 5 175985 3242.91 1
-8 -1 5 187774 2157.83 3
9 -8 8 38451.3 923.595 4
-8 -1 8 36608.9 904.535 3
9 -8 8 37581.5 1857.92 1
9 -8 8 40155.8 1572.58 3
-1 9 8 39609.7 1074.55 3
-8 -1 8 37522.6 1642.73 4
-8 -1 8 39336.4 1804.09 2
9 -8 8 38042.5 1694.42 2
-1 9 8 36297 1763.5 4
-1 9 8 41967.2 2156.1 2
-1 9 11 88599.1 3158.37 4
9 -8 11 85767.5 3004.17 2
-8 -1 11 93269 3204.99 2
9 -8 11 87290.8 2466.69 3
-8 -1 11 87437.3 2849.08 4
9 -8 11 87154.7 3278.08 1
-2 9 -8 6886.16 630.695 4
-2 9 -5 136502 1831.84 4
-7 -2 -5 141308 2338.28 3
-2 9 -5 139542 2165.16 2
-7 -2 -2 73133.4 1536.12 3
-2 9 -2 73215.1 1798.28 3
9 -7 -2 68209.6 1766.12 1
9 -7 -2 71957.1 1538.85 2
-2 9 -2 71849 1160.51 4
9 -7 -2 70948.5 1199.06 3
-2 9 -2 69226.2 1699.82 1
9 -7 -2 69856.1 1557.27 4
-2 9 -2 67300.9 778.285 2
-2 9 1 117846 1944.65 1
-2 9 1 110001 1616.99 2
-7 -2 1 116509 1839.31 4
-2 9 1 109158 1984.78 3
9 -7 1 107066 1699.52 1
-7 -2 1 114791 1815.82 2
9 -7 1 115046 1460.95 2
9 -7 1 107850 1286.3 4
-7 -2 1 114257 1747.47 3
-2 9 4 1330.41 454.025 3
-2 9 4 2080.82 663.018 2
-2 9 4 1483.75 517.222 1
-7 -2 4 1391.43 343.672 3
9 -7 4 1744.36 479.765 1
-7 -2 4 982.501 409.879 2
-2 9 4 598.762 489.021 4
-7 -2 4 1369.56 457.771 4
9 -7 7 34057.6 845.49 4
-7 -2 7 31325.2 1470.91 2
-2 9 7 30021.1 1714.65 2
9 -7 7 34642.1 1391.33 3
9 -7 7 33416.5 1516.8 2
-7 -2 7 35223.3 968.984 3
-7 -2 7 35681.5 1501.58 4
-2 9 7 32188.2 1586.26 4
9 -7 7 36621 1658.48 1
-2 9 7 33692.2 949.649 3
-7 -2 10 8893.86 1001.67 4
9 -7 10 7564.15 1089.27 2
-2 9 10 8560.46 1307.92 2
9 -7 10 8518.44 649.299 4
-7 -2 10 9830.98 1172.72 2
-2 9 10 6356.86 1051.31 4
9 -7 10 6554.16 841.761 3
9 -7 10 7856.37 1209.75 1
-3 9 -6 123058 1768.24 4
-6 -3 -6 125454 2214.11 3
-3 9 -6 122180 2273.72 2
9 -6 -3 145414 2434.08 4
-3 9 -3 141815 1484.52 4
-3 9 -3 147775 1406.61 2
9 -6 -3 142045 1462.32 3
-6 -3 -3 138091 2099.18 3
-3 9 -3 138580 2574.08 1
9 -6 -3 139460 2370.84 2
-6 -3 0 642034 4172.23 3
9 -6 0 632903 3640.5 4
-3 9 0 638103 2893.99 2
-3 9 3 8948.31 691.93 3
-3 9 3 9443.44 778.339 4
-3 9 3 10136.3 820.894 1
9 -6 3 9250.35 319.293 4
9 -6 3 9142.33 601.092 1
-6 -3 3 8954.9 641.849 4
-3 9 3 9274.92 798.111 2
9 -6 3 9174.74 707.693 3
-6 -3 3 9045.35 581.451 3
-6 -3 3 8800.98 611.193 2
-3 9 6 91845.2 1452.53 3
9 -6 6 90472.5 2252.53 2
-3 9 6 90832.6 2386.25 4
-6 -3 6 89478.9 2116.6 4
9 -6 6 87280 2060.1 3
9 -6 6 91298.1 2298.99 1
9 -6 6 94371.6 1356.72 4
-6 -3 6 89443.6 2188.5 2
-6 -3 6 91440 1639.4 3
-3 9 6 89127.6 2550.59 2
9 -6 9 20654.3 901.196 4
-6 -3 9 19205.8 1238.34 4
9 -6 9 20319.5 1474.04 2
-3 9 9 21360.7 1510.52 4
-6 -3 9 21237 1439.21 2
9 -6 9 20518.6 1529.89 1
9 -6 9 20976.7 1181.96 3
-3 9 9 21339.4 1661.9 2
9 -6 12 51645.5 2720.69 1
-6 -3 12 50490.8 2238.77 4
9 -6 12 47393.1 2526.69 2
-3 9 12 53589 2616.06 4
-3 9 12 54533.6 2940.08 2
-6 -3 12 50329 2493.96 2
-4 9 -7 147753 2013.34 4
-5 -4 -7 139308 2334.22 3
-5 -4 -4 10007.5 645.182 3
9 -5 -4 10820.5 382.806 3
-4 9 -4 11642.6 427.539 4
9 -5 -4 10527.3 820.866 2
9 -5 -1 257676 2611.53 4
-5 -4 -1 260720 1846.31 1
9 -5 -1 258845 2567.23 2
9 -5 -1 252995 2367.74 3
-5 -4 -1 263183 2699.91 3
-4 9 2 63358.5 1413.07 2
-4 9 2 62430.9 1386.54 3
9 -5 2 60090 1111.76 1
-4 9 2 65037.2 1575.16 1
-5 -4 2 62848 1375.17 4
9 -5 2 62659.8 1454.36 3
9 -5 2 63347.4 930.487 4
9 -5 2 61822.9 1284.55 2
-4 9 2 64035.1 1508.53 4
-5 -4 2 64048.9 1357.85 3
-5 -4 2 57365.7 1433.24 1
-5 -4 2 63566.8 1302.17 2
-4 9 5 115042 1574.18 3
9 -5 5 110402 1449.58 4
9 -5 5 110174 2240.99 1
-4 9 5 111057 2581.69 2
-5 -4 5 108578 2140.32 2
-5 -4 5 111838 1867.81 3
-4 9 5 109311 2440.07 4
9 -5 8 9501 1012.01 1
-4 9 8 11954.8 1296.69 2
-5 -4 8 12916.5 1073.53 2
-5 -4 8 10778 675.967 3
-4 9 8 12005.3 1142.24 4
-5 -4 8 10294.6 894.069 4
9 -5 8 10121.9 851.79 3
9 -5 8 8594.21 1036.35 2
9 -5 8 9149.9 658.89 4
9 -5 11 61783.1 2692.26 2
-4 9 11 58517.4 2853.6 2
-5 -4 11 61669.4 2548.86 2
9 -5 11 61931.1 2026.09 3
-5 -4 11 62691.4 2279.13 4
9 -5 11 59801.4 2713.14 1
-4 9 11 59357.1 2603.67 4
-5 9 -8 5380.44 491.056 4
-4 -5 -5 96888.1 1768.75 3
9 -4 -5 95202.2 1011.71 3
-5 9 -2 44813.7 1315.22 1
-4 -5 -2 42650.7 949.194 1
-4 -5 -2 43632.8 1136 3
9 -4 -2 42782 1194.25 2
9 -4 -2 42425.3 930.459 3
9 -4 -2 42420.2 1218.32 4
9 -4 1 242225 2105.99 4
-4 -5 1 244077 2360.97 2
-5 9 1 246404 2869.98 1
-5 9 1 244561 2244.95 2
9 -4 1 249095 1933.6 1
-4 -5 1 246846 2628.49 3
-5 9 1 239449 2577.84 4
9 -4 1 240780 2624.27 3
-4 -5 1 243344 2417.7 1
9 -4 1 245863 2433.6 2
-4 -5 4 17693.9 833.732 4
-5 9 4 14756.6 1049.74 1
-5 9 4 17639 994.636 4
-4 -5 4 17183 828.4 3
-4 -5 4 16100.9 804.867 2
9 -4 4 15285.8 778.41 1
-5 9 4 14123.3 981.668 2
9 -4 4 16265.8 892.596 3
9 -4 7 188189 3485.45 1
-5 9 7 186559 3616.5 4
9 -4 7 187838 2507.88 4
-4 -5 7 190652 3311.78 2
9 -4 7 186371 2969.62 3
-4 -5 7 187840 3058.03 4
-4 -5 7 187792 2655.73 3
9 -4 7 187561 3585.95 2
-5 9 10 1456.38 797.395 4
-5 9 10 1239.44 960.544 2
-4 -5 10 369.592 602.14 4
9 -4 10 432.228 794.948 1
-4 -5 10 448.438 688.717 2
9 -4 10 215.387 889.177 2
9 -4 10 1039.05 510.25 4
9 -4 10 834.283 558.911 3
-6 9 -6 91916.4 1182.13 4
-3 -6 -6 92315.8 1725.89 3
9 -3 -3 33981 798.765 3
-6 9 -3 32848.1 1259.36 1
-3 -6 -3 33353.8 1108.13 1
-3 -6 -3 33684.9 1017.96 3
9 -3 -3 35594.7 1204 4
9 -3 -3 33570.1 1182.08 2
9 -3 0 423233 2698.08 1
-6 9 0 424077 2963.76 4
-6 9 0 429484 3672.75 1
9 -3 0 431488 3135.14 4
9 -3 0 416855 3275.5 3
-3 -6 0 437365 3065.32 1
9 -3 0 434134 3346.66 2
-3 -6 3 78450.6 1950.73 1
9 -3 3 80552.8 1250.05 4
-6 9 3 84517.8 2010.87 1
-6 9 3 80817.1 1888.21 4
-3 -6 3 76055.3 1386.27 2
9 -3 3 78102.8 1248.59 1
9 -3 3 82816.9 1726.52 3
-3 -6 3 80671.2 1546.13 4
-3 -6 3 81584.5 1680.42 3
-6 9 3 82699.2 1822.12 2
-6 9 6 96882.9 2603.84 2
-3 -6 6 98315 1989.25 3
9 -3 6 94318.5 2249.39 1
9 -3 6 100961 2116.64 3
-3 -6 6 99158.1 2144.43 2
9 -3 6 97949.8 1777.58 4
9 -3 6 99210.7 2516.11 2
-3 -6 6 102490 2052.52 4
-6 9 6 95415.5 2485.54 4
9 -3 9 17772.5 1369.31 1
9 -3 9 17718.4 1464.98 2
9 -3 9 16468.4 985.293 4
9 -3 9 17778.8 1084.39 3
-6 9 9 17632.2 1390.54 4
-3 -6 9 16515.9 1240.8 2
-3 -6 9 16478.5 1077.32 4
-6 9 9 19287.3 1550.37 2
-3 -6 12 33041.3 2007.57 2
9 -3 12 38875.4 2392.46 2
9 -3 12 35198.5 2252.45 1
-6 9 12 39715 2561.16 2
-3 -6 12 34605 1747.82 4
-6 9 12 36227.8 2246.29 4
-3 -6 12 35585.7 2658.7 1
-2 -7 -7 25420.7 951.359 3
9 -2 -4 11390.7 814.495 4
-2 -7 -4 12578.5 660.858 3
9 -2 -4 11273.2 811.687 2
9 -2 -4 11214.1 536.554 3
-2 -7 -4 11801.5 860.768 1
-2 -7 -1 72263.2 1475.87 3
-7 9 -1 69836.3 1529 1
-7 9 -1 69552 1004.27 4
9 -2 -1 71382.5 1436.64 4
9 -2 -1 71861.3 1347.65 3
9 -2 -1 68416.8 1434.29 2
-7 9 -1 70534.6 794.413 2
-2 -7 -1 68086.9 1361.18 1
-7 9 2 57680.3 1447.64 4
9 -2 2 57644.7 744.791 1
9 -2 2 57433.7 1381.84 3
-2 -7 2 57240.3 1464.45 1
-7 9 2 55517.2 1320.74 2
-2 -7 2 57080.2 1426.99 3
-2 -7 2 57583.8 1065.49 2
-7 9 2 58230.8 1587.88 1
9 -2 2 54573.9 1103.51 4
-7 9 5 159331 2956.03 4
-2 -7 5 154264 2333.53 4
-7 9 5 148630 2944.81 2
-2 -7 5 143833 2449.08 3
-2 -7 5 150894 2324.91 2
9 -2 5 155567 2204.33 4
-2 -7 5 156033 3279.51 1
-7 9 8 21912.7 1489.77 2
9 -2 8 23846.1 1588.45 2
-2 -7 8 24062.5 1151.09 4
-7 9 8 20965.3 1417.15 4
-2 -7 8 20169.3 1201.39 2
9 -2 8 23298.1 1118.15 4
9 -2 8 23271.5 1165.41 3
-2 -7 8 19957.2 1619.69 1
-2 -7 8 20327.2 1115.35 3
-2 -7 11 44110.6 1821.05 4
-7 9 11 45769.7 2308.64 4
9 -2 11 43644.1 2310.52 1
9 -2 11 46095.2 1813.88 4
9 -2 11 47473.9 2493.24 2
-7 9 11 45217.2 2533.84 2
-2 -7 11 41596.1 2641.73 1
-2 -7 11 45256.7 2160.95 2
9 -2 11 47765.3 1759.04 3
9 -1 -5 83465.8 1393.9 3
-1 -8 -5 79782.1 1529.78 3
-8 9 -2 99448.8 1865.71 1
-8 9 -2 95285.2 818.412 4
-1 -8 -2 95450.7 1715.04 3
9 -1 -2 93795.7 1780.1 2
9 -1 -2 94486.9 1525.67 3
-1 -8 -2 93120.1 1790.81 1
-8 9 1 229602 2527.85 4
-8 9 1 232482 2880.42 1
9 -1 1 235536 2393.73 4
9 -1 1 224354 2644.76 3
-8 9 1 227044 2311.87 2
9 -1 1 225078 2671.11 2
-1 -8 1 238259 2706.2 1
-1 -8 1 230133 2812.4 3
-1 -8 4 34191.7 1051.35 4
-1 -8 4 39073.6 1018.29 2
-8 9 4 37426.5 1580.96 1
-8 9 4 39633.6 1463.58 4
-1 -8 4 36787.8 1541.76 1
9 -1 4 36083.4 1246.26 3
-1 -8 4 36549.4 1350.8 3
-8 9 4 37918 1429.62 2
9 -1 7 207572 3144.86 3
9 -1 7 221482 3118.58 4
-1 -8 7 228383 4573.13 1
9 -1 7 215231 4108.22 2
-1 -8 7 218559 3327.45 2
-8 9 7 220590 3991.39 4
-1 -8 7 199647 3284.75 3
-1 -8 7 229192 3044.15 4
-8 9 10 11482.2 1257.49 4
9 -1 10 11147.8 992.254 4
-8 9 10 13292 1435.22 2
9 -1 10 12788.9 983.228 3
-1 -8 10 13298.9 1177.07 2
-1 -8 10 10701.1 950.672 4
9 -1 10 12636.8 1464.97 2
-1 -8 10 14103.2 1676.76 1
9 0 -6 39295.6 1081.96 3
0 -9 -6 37416.5 1046.97 3
0 -9 -3 3673.93 633.815 1
9 0 -3 2778.52 516.662 2
9 0 -3 3581.01 561.915 4
-9 9 -3 3208.47 566.816 1
9 0 -3 3656.37 455.054 3
0 -9 -3 2912.87 449.735 3
-9 9 0 53984.8 999.675 2
-9 9 0 51292.6 1091.38 4
9 0 0 51889.6 1238.4 4
-9 9 0 52021 1361.91 1
0 -9 0 53373.2 1342.56 1
0 -9 0 54202.6 1425.08 3
9 0 0 53853.9 1316.22 3
9 0 3 320.083 443.181 3
9 0 3 1022.7 246.437 1
9 0 3 728.363 260.527 1
-9 9 3 145.726 500.609 4
-9 9 3 1676.76 655.354 1
0 -9 3 651.61 244.202 2
-9 9 3 881.567 458.605 2
0 -9 3 874.328 527.473 1
0 -9 3 885.715 592.923 3
-9 9 6 28065.5 1424.3 4
0 -9 6 31433.5 1660.8 1
9 0 6 31064.1 1239.8 3
0 -9 6 31840.7 1155.02 2
9 0 6 31523.2 1201.96 4
0 -9 6 30453.8 1081.32 4
0 -9 6 28368 1340.53 3
-9 9 6 30678.4 1538 2
0 -9 9 5578.7 672.983 4
0 -9 9 4311.46 797.338 2
-9 9 9 3277.75 880.92 4
9 0 9 4673.45 1047.42 2
9 0 9 4346.63 769.798 4
-9 9 9 3675.55 1029.13 2
0 -9 9 3879.98 1099.54 1
9 0 9 5447.41 717.293 3
9 0 12 13990.4 1608.76 1
9 0 12 14547.7 1740.96 2
-9 9 12 15280.7 1764.11 2
0 -9 12 13823.7 1379.92 2
-9 9 12 14743.9 1586.48 4
0 -9 12 13352.3 1751.11 1
1 -10 -7 8661.73 555.482 3
1 -10 -4 41233.3 1558.87 1
-10 9 -4 40151.7 1449.05 1
1 -10 -4 39710.8 1118.71 3
9 1 -4 38463 1402.48 4
9 1 -4 37825.2 1382.11 2
9 1 -4 38244.9 1110.03 3
-10 9 -1 5323.05 364.724 4
1 -10 -1 5152.12 637.959 1
-10 9 -1 5151.14 392.402 2
-10 9 -1 4876.25 505.237 1
9 1 -1 4848.79 496.161 2
9 1 -1 5273.75 522.927 4
1 -10 -1 4460.3 543.955 3
9 1 -1 5100.06 545.391 3
-10 9 2 104859 2015.17 4
1 -10 2 108531 1219.63 2
1 -10 2 104018 2135.52 1
9 1 2 102461 1790.29 4
9 1 2 102957 1973.56 3
-10 9 2 105237 1890.72 2
-10 9 2 107793 2196.39 1
1 -10 2 104423 2209.53 3
1 -10 5 58136.9 1301.19 4
-10 9 5 57105.9 1874.74 2
1 -10 5 61651.4 2132.38 1
1 -10 5 58060 1294.17 2
1 -10 5 58957.2 1876.92 3
-10 9 5 60928.7 1928.59 4
9 1 5 62229.8 1671.48 3
9 1 5 59246.3 1560.44 1
9 1 8 18557.7 1063.16 3
1 -10 8 20905 1139.83 2
9 1 8 20591 1206.32 4
1 -10 8 23170 1762.15 1
-10 9 8 20729.8 1555.6 2
9 1 8 18537.7 1535.79 2
1 -10 8 18926.2 961.938 4
-10 9 8 19593.8 1376.01 4
9 1 11 15179.5 1107.88 3
-10 9 11 14462.7 1591.31 2
1 -10 11 17061 1392.58 2
1 -10 11 16808.6 1827.3 1
-10 9 11 16190.7 1520.74 4
9 1 11 13528.5 1618.49 2
9 1 11 15280.5 1271.76 4
2 -11 -8 74543.5 1364.94 3
9 2 -5 137548 2273.26 3
2 -11 -5 139140 2043.33 3
-11 9 -2 83362.1 1015.05 4
9 2 -2 86949.8 1845.87 4
2 -11 -2 80858.4 1736.23 3
2 -11 -2 82385 1984.66 1
-11 9 -2 84193.5 1736.93 1
9 2 -2 84770.3 1694.3 3
9 2 1 271251 3200.12 2
9 2 1 255061 2914 4
2 -11 1 268333 3472.41 3
-11 9 1 262236 2886.37 4
-11 9 1 266309 2731.2 2
-11 9 1 273374 3234.85 1
2 -11 1 263276 3245.57 1
9 2 1 264736 3116.87 3
2 -11 4 90467.7 1280.73 2
2 -11 4 87526.4 2286.5 3
9 2 4 99159.1 1544.93 1
-11 9 4 95377.6 2266.91 4
9 2 4 93302.4 2017.11 3
-11 9 4 99008.4 2253.71 2
-11 9 7 143316 3322.68 4
2 -11 7 147857 2238.26 4
9 2 7 139310 3043.57 1
2 -11 7 146193 3695.73 1
9 2 7 142845 3551.03 2
9 2 7 142694 2847.54 4
9 2 7 140195 2669.38 3
2 -11 7 144687 2539.52 2
9 2 10 2617.23 1077.75 2
9 2 10 2776.06 792.99 4
2 -11 10 1653.44 1004.7 1
2 -11 10 2768.08 741.922 2
-11 9 10 3214.77 1046.37 2
-11 9 10 1083.27 792.182 4
2 -11 10 2249.68 566.967 4
9 2 10 1848.05 596.223 3
3 -12 -6 34352.2 1028.7 3
9 3 -6 34727.4 1338.83 3
3 -12 -3 10209.7 925.028 1
9 3 -3 12238.6 828.309 4
-12 9 -3 11977.3 774.738 1
3 -12 -3 12044.5 756.101 3
9 3 -3 13534.4 813.973 3
9 3 -3 13087.7 832.825 2
3 -12 0 41199.9 1438.51 1
9 3 0 40889.3 1238.36 4
-12 9 0 40551.7 1080.36 4
3 -12 0 40780.2 1466.99 3
-12 9 0 41158.6 1100.62 2
9 3 0 40162.8 1260.92 2
-12 9 0 41261.3 1256.19 1
9 3 0 40351 1289.57 3
-12 9 3 25856.4 1284.08 1
3 -12 3 23985.1 1371.19 3
-12 9 3 22981.7 1104.49 2
3 -12 3 23527.7 511.033 2
-12 9 3 26156.9 1197.44 4
3 -12 3 24743.5 1270.99 1
9 3 3 24537.9 591.593 1
9 3 3 26306.6 1143.26 3
-12 9 6 63728.3 2152.1 2
3 -12 6 71948.8 2470.14 1
-12 9 6 65754.9 2197.85 4
9 3 6 64639.5 1813.42 1
3 -12 6 67137.1 1471.36 2
9 3 6 66924.3 1963.51 4
9 3 6 63665.9 1826.08 3
9 3 9 1245.39 650.494 4
3 -12 9 375.077 865.261 1
-12 9 9 1697.56 845.264 4
9 3 9 132.316 879.256 2
9 3 9 1362.78 565.769 3
3 -12 9 617.14 408.838 4
-12 9 9 1196.2 748.077 2
3 -12 9 839.147 546.933 2
-12 9 12 8778.82 1418.87 4
9 3 12 9456.83 1577.28 2
9 3 12 9779.69 1215.24 4
3 -12 12 8037.78 1084.18 2
-12 9 12 9394.53 1506.24 2
3 -12 12 9589.73 1628.01 1
9 4 -7 7105.59 834.255 3
4 -13 -7 7257.81 518.594 3
-13 9 -4 99849.5 2219.1 1
4 -13 -4 100908 1903.34 3
4 -13 -4 111636 2755.12 1
9 4 -4 107757 2154.37 3
-13 9 -1 55121.8 1383.17 2
4 -13 -1 58459.1 1843.74 1
-13 9 -1 58504.7 1163.56 4
9 4 -1 55579.4 1541.41 3
9 4 -1 52190.2 1488.64 4
-13 9 -1 55578.9 1388.13 1
9 4 -1 56215.2 1498.25 2
4 -13 -1 56981.3 1666.72 3
4 -13 2 141775 2927.08 3
9 4 2 145397 1175.52 1
-13 9 2 151177 2451.67 2
-13 9 2 138512 2434.92 4
9 4 2 155174 2597.03 3
-13 9 2 151062 2666.01 1
4 -13 2 151919 2808.04 1
-13 9 5 3765.01 726.271 4
4 -13 5 2758.37 314.784 2
-13 9 5 3390.9 729.815 2
9 4 5 1544.91 499.092 3
4 -13 5 1942.71 683.752 1
9 4 5 2870.5 467.958 1
-13 9 8 21550.4 1541.89 2
-13 9 8 22060.8 1524.1 4
4 -13 8 19963.2 1649.42 1
9 4 8 22226.3 1404.94 4
9 4 8 20799.6 1173.45 3
4 -13 8 23179.6 1128.34 2
9 4 8 21246.7 1671.45 2
4 -13 8 21860 885.156 4
4 -13 11 848.651 1171.72 1
-13 9 11 875.602 874.355 4
9 4 11 -481.141 740.765 4
4 -13 11 1507.87 731.916 2
-13 9 11 1024.14 961.129 2
9 4 11 585.686 1145.83 2
5 -14 -8 44186.9 1004.82 3
5 -14 -5 95303.5 2809.27 1
9 5 -5 101317 2315.25 3
5 -14 -2 239625 3752.35 1
9 5 -2 250575 3359.01 3
5 -14 -2 244342 3321.87 3
9 5 -2 246094 3167.11 2
-14 9 -2 235537 2258.7 4
-14 9 -2 244307 2875.78 1
9 5 1 295540 3682.22 2
9 5 1 282634 3470.08 4
9 5 1 295114 3664.74 3
5 -14 1 291435 4157.49 3
-14 9 1 297950 3321.49 2
-14 9 1 293214 3439.73 1
5 -14 1 305833 3982.29 1
-14 9 1 293776 3334.42 4
9 5 4 15943.8 668.384 1
-14 9 4 14537.5 1034.67 4
-14 9 4 15174.9 1044.42 2
9 5 4 15516.7 967.745 3
5 -14 4 13409.7 364.427 2
5 -14 4 16074 1159.42 1
9 5 7 82825.4 2441.01 4
-14 9 7 84679.6 2688.13 4
9 5 7 81472 2157.02 3
5 -14 7 85100.5 2897.72 1
9 5 7 79141.9 2788.02 2
5 -14 7 83931.6 1728.17 2
9 5 7 74806 2159.2 1
9 5 10 10031.6 1455.94 2
5 -14 10 9934 964.004 2
5 -14 10 7191.52 1362.25 1
9 5 10 8809.07 1143.45 4
-14 9 10 9362.8 1347.62 2
-14 9 10 9799.39 1334.26 4
9 5 10 9395.07 973.351 3
6 -15 -6 14397.8 754.237 3
9 6 -6 17007.7 1207.42 3
6 -15 -6 13644.3 1367.72 1
-15 9 -3 39616.1 1238.55 1
9 6 -3 37558 1357.54 2
9 6 -3 40870.9 1479.61 3
6 -15 -3 40563.4 1384.78 3
6 -15 0 47307.8 1752.66 1
9 6 0 47592.9 1571.9 3
6 -15 0 44911.9 1707.32 3
-15 9 0 49540 1327.7 4
9 6 0 52351.5 1562.63 2
-15 9 0 46396.2 1395.52 1
-15 9 0 50565.9 1444.39 2
6 -15 3 19609.2 1241.9 1
9 6 3 21295.3 655.706 1
-15 9 3 18793.8 1050.35 2
9 6 3 18891.5 1069.32 3
-15 9 3 19686.9 1103.45 4
-15 9 6 48333.4 1946.74 2
6 -15 6 47928.3 1061.77 2
9 6 6 49533.2 1889.71 4
-15 9 6 47507.8 1985.79 4
9 6 6 52015.1 1613.28 1
6 -15 6 43974 2028.35 1
9 6 6 46677.9 1678.21 3
9 6 9 13744 1257.37 4
9 6 9 12337.6 1068.56 3
-15 9 9 11647.2 1300.53 2
9 6 9 11365.1 1469.76 2
6 -15 9 11908.8 1468.51 1
6 -15 9 12379 911.748 2
-15 9 9 13055.7 1355.37 4
-15 9 12 6750.12 1338.04 4
9 6 12 6959.14 1244.92 4
9 6 12 5062.01 1561.14 2
-15 9 12 6655.1 1416.17 2
6 -15 12 6831.78 1453.9 1
7 -16 -7 1895.5 394.097 3
9 7 -7 547.802 789.843 3
7 -16 -4 112183 3050.85 1
7 -16 -4 109397 2209.16 3
9 7 -4 111172 2561.63 3
7 -16 -1 35421.8 1530.16 3
-16 9 -1 35336.5 1300.51 2
-16 9 -1 37843 1119.34 4
7 -16 -1 39954.5 1707.8 1
-16 9 -1 37889.1 1172.79 1
9 7 -1 39844.7 1509.8 3
9 7 -1 36546.7 1306.39 2
9 7 2 82744.6 1310.28 1
-16 9 2 85113.8 2054.95 4
-16 9 2 82458.5 2009.04 2
7 -16 2 83863.3 2278.1 1
-16 9 2 79651.2 2042.97 1
9 7 2 81975.8 2111.93 3
-16 9 5 44137 1770.54 2
9 7 5 37553.5 1228.36 1
-16 9 5 45633.5 1840.69 4
9 7 5 41556.2 1601.21 3
7 -16 5 37253.4 587.957 2
7 -16 5 41816.9 1890.76 1
7 -16 8 17976 914.023 2
7 -16 8 17997.6 1577.94 1
-16 9 8 17754.2 1460.73 4
-16 9 8 16683.4 1428.16 2
9 7 8 17252.9 1371.61 4
9 7 8 20295.9 1743.43 2
9 7 8 17904.7 1223.97 3
9 7 11 12322.5 1722.75 2
-16 9 11 11586.5 1426.65 2
-16 9 11 10594.1 1403.35 4
9 7 11 9790.17 1325.92 4
7 -16 11 9279.88 1474.98 1
9 8 -5 117605 2857.33 3
8 -17 -5 114454 2229.63 3
8 -17 -5 116357 3403.77 1
9 8 -2 76528.8 2117.19 3
-17 9 -2 71588.7 1483.37 4
8 -17 -2 72841.3 2348.92 1
-17 9 -2 69460.4 1533.08 1
-17 9 1 173833 2793.81 4
8 -17 1 174315 3389 1
-17 9 1 170499 2767.6 1
9 8 1 172389 3106.2 3
9 8 1 166227 2215.34 1
-17 9 4 4640.13 719.443 2
-17 9 4 5607.04 804.647 4
8 -17 4 5277.28 848.53 1
9 8 4 6040.41 532.805 1
9 8 4 4260.57 720.064 3
9 8 7 69620.6 2181.38 3
-17 9 7 77837.3 2634.75 4
8 -17 7 72449.3 1359.98 2
9 8 7 71403.5 2434.3 4
8 -17 7 72973.2 2767.8 1
9 8 7 72194 2753.29 2
9 8 10 1744.85 917.814 4
-17 9 10 3503.16 1027.61 2
8 -17 10 3155.18 1183.38 1
9 8 10 2228.07 1086.98 2
9 8 10 3162.86 818.083 3
-17 9 10 3322.09 1056.2 4
9 9 -6 2357.35 880.454 3
9 -18 -6 3408.57 1050.69 1
9 -18 -6 3388.39 551.051 3
-18 9 -3 48740.4 1330.07 1
9 -18 -3 49731.3 2095.22 1
9 9 -3 45824.5 1800.92 3
9 -18 0 3060.94 813.337 1
-18 9 0 3166.52 519.914 4
9 9 0 3738.1 781.302 3
-18 9 0 3511.57 589.951 2
-18 9 0 3973.04 536.947 1
9 9 3 52663.4 1239.86 1
-18 9 3 55168.2 1869.53 4
-18 9 3 53737.8 1804.3 2
9 9 3 49190.6 1797.22 3
9 -18 3 53032.2 1981.99 1
9 -18 6 2746.34 930.088 1
9 9 6 2187.96 772.944 4
-18 9 6 2783.8 777.505 4
-18 9 6 2593.65 730.936 2
9 -18 6 1863.6 149.448 2
9 9 6 2282.46 593.786 1
9 9 6 1719.09 678.268 3
9 9 9 11832.1 1524.61 2
9 9 9 12791 1155.01 3
-18 9 9 12659.5 1378.1 2
9 -18 9 14379.4 1621.06 1
-18 9 9 17472.4 1597.68 4
9 9 9 16628.2 1499.97 4
9 10 -7 33272.9 1849.66 3
10 -19 -7 27168.5 2140.13 1
10 -19 -4 93250.9 3088.93 1
9 10 -4 97876.8 2726.71 3
-19 9 -1 26545.5 1306.57 2
-19 9 -1 26764.7 1111.82 4
-19 9 -1 24473.7 985.205 1
9 10 -1 27053.1 1398.86 3
-19 9 2 100544 2343.48 1
-19 9 2 108558 2487.4 4
9 10 2 108766 1909.52 1
10 -19 2 109539 2855.98 1
-19 9 2 100661 2438.01 2
9 10 2 101927 2625.21 3
-19 9 5 35863.6 1742.9 4
10 -19 5 36833.6 1885.06 1
-19 9 5 38443.8 1761.85 2
9 10 5 33884.7 1612.77 3
9 10 5 33179.1 1220.05 1
9 10 8 32969.9 1883.82 4
10 -19 8 33643 2155.98 1
-19 9 8 34598.1 1966.73 2
-19 9 8 32855.6 1974.92 4
9 10 8 37534 1787.12 3
9 10 11 4229.43 1138.72 4
9 10 11 3717.76 1430.13 2
10 -19 11 5839.35 1433.47 1
-19 9 11 5468.63 1281.06 2
-19 9 11 3233.5 1171.29 4
8 10 -5 43787.9 1977.08 3
10 -18 -5 43392.3 2239.62 1
10 -18 -5 39960.7 1403.37 3
-18 8 -2 37589.2 1063.75 1
10 -18 -2 36242.5 1787.96 1
-18 8 -2 39620.7 1219.37 4
8 10 -2 38321.1 1643.98 3
10 -18 -2 41275.4 1420.72 2
10 -18 1 119476 2923.71 1
-18 8 1 112143 2189.83 1
-18 8 1 114012 2506.43 2
8 10 1 117500 2063.79 1
8 10 1 116280 2707.17 3
-18 8 1 118447 2388.43 4
-18 8 4 46345.4 1840.74 4
-18 8 4 46306.8 1802.56 2
10 -18 4 45547.3 1941.06 1
8 10 4 43146.2 1723.68 3
8 10 4 39494.2 1284.1 1
8 10 7 28007.9 1661.08 4
8 10 7 25757.2 1818.5 2
-18 8 7 27387.2 1707.37 4
10 -18 7 26330.3 780.052 2
10 -18 7 28518.3 1852.05 1
-18 8 7 28042 1710.08 2
8 10 7 30017.7 1549.59 3
8 10 10 13145.2 1458.61 4
-18 8 10 12761.4 1453.9 4
8 10 10 10611.5 1570.75 2
10 -18 10 12070 1589.83 1
-18 8 10 12364.7 1467.33 2
8 10 10 13310.4 1299.53 3
7 10 -6 15797.1 1326.91 3
10 -17 -6 13111.8 767.632 3
10 -17 -3 11051.5 1134.34 1
-17 7 -3 9343.65 560.659 1
7 10 -3 6954.11 665.349 2
10 -17 -3 10585.7 898.635 3
10 -17 -3 9390.77 861.882 2
7 10 -3 7656.34 963.933 3
7 10 0 25967.2 1140.59 2
-17 7 0 26795 994.304 1
-17 7 0 26741.4 1110.04 4
7 10 0 25702.5 1087.44 1
10 -17 0 28532.5 1535.44 1
10 -17 0 27400.2 825.5 2
-17 7 0 26242.5 1246.85 2
7 10 3 21895.7 899.401 1
-17 7 3 21731.8 1167.35 2
-17 7 3 19864.1 1149.51 4
10 -17 3 23139.8 1370.39 1
7 10 3 19336.2 1175.09 3
10 -17 6 931.913 764.868 1
7 10 6 3495.71 983.766 2
-17 7 6 819.008 664.722 4
7 10 6 1530.93 604.804 1
7 10 6 2531.85 802.284 4
-17 7 6 869.651 634.833 2
10 -17 6 1901.85 257.394 2
7 10 6 2016.32 664.655 3
7 10 9 24534.9 2002.39 2
7 10 9 27561.1 1817.54 4
7 10 9 30444.1 1574.71 3
10 -17 9 25159.2 1140.68 2
-17 7 9 25622.5 1792.43 2
10 -17 9 23342.3 1847.16 1
-17 7 9 27164.3 1832.56 4
10 -16 -7 881.595 264.624 3
6 10 -4 209436 3178.67 2
10 -16 -4 204476 4229.33 1
6 10 -4 204250 3671.21 3
10 -16 -4 201209 2957.49 3
10 -16 -1 79618.5 1642.37 2
6 10 -1 76316.8 2148.77 3
10 -16 -1 75408.1 2244.21 3
-16 6 -1 78954.1 2043.83 2
-16 6 -1 81558.6 1366.18 1
-16 6 -1 78938.5 1703.81 4
10 -16 -1 78017.6 2305.99 1
6 10 -1 77413.3 1931.69 1
6 10 -1 78551.6 1788.44 2
-16 6 2 285843 3659.83 1
6 10 2 281457 3081.27 1
-16 6 2 288340 3494.53 3
-16 6 2 296539 3826.71 4
-16 6 2 291077 3878.79 2
6 10 2 293970 4000.58 3
10 -16 5 1551.65 196.86 2
10 -16 5 2599.18 777.941 1
-16 6 5 1699.83 634.742 2
6 10 5 1184.66 598.962 3
6 10 5 1598.61 546.859 1
10 -16 5 1720.4 195.656 2
-16 6 5 1649.01 668.333 4
-16 6 8 94173.6 2999.43 4
-16 6 8 88367.9 2904.27 2
10 -16 8 94676.4 3185.96 1
10 -16 8 96975.5 2014.5 2
6 10 8 97854.6 2988.88 4
6 10 8 97420 2521.25 3
10 -16 11 10528.5 1229.31 3
-16 6 11 8958 1387.87 4
10 -16 11 8770.38 1455.61 1
-16 6 11 8412.33 1351.24 2
6 10 11 9335.33 1350.62 4
6 10 11 7094.91 1555.66 2
5 10 -5 26983.6 1225.14 2
5 10 -5 30917.8 1591.53 3
10 -15 -5 28411.7 1032.88 3
10 -15 -5 30899.3 1866.15 1
-15 5 -2 91603.1 1227.93 1
10 -15 -2 90087 2484.92 1
5 10 -2 88643 1780.21 2
10 -15 -2 91233.3 2146.68 4
10 -15 -2 90387.1 2188.69 3
10 -15 -2 87985.4 1932 2
5 10 -2 89411 2332.19 3
10 -15 1 76485.2 2173.96 1
10 -15 1 76361.4 1013.17 2
5 10 1 79906.7 1689.27 1
-15 5 1 78298.6 1630.97 1
-15 5 1 80446.7 1885.51 4
-15 5 1 79782.9 1869.7 3
5 10 1 80954.3 2089.85 3
-15 5 1 82309.2 2016.42 2
-15 5 4 57392.3 1881.34 4
10 -15 4 56246.5 1934.69 1
-15 5 4 55708.6 1445.64 3
5 10 4 57997.2 1765.36 3
-15 5 4 52741.7 1786.36 2
10 -15 4 50269.6 623.617 2
5 10 4 54769 1535.7 1
5 10 7 18276.2 1339.21 4
-15 5 7 18139 1355.44 2
10 -15 7 17747.1 874.22 2
10 -15 7 16637.8 1363.58 1
-15 5 7 16725.1 1297.43 4
5 10 7 15911.2 1070.69 3
5 10 7 17633 1498.36 2
10 -15 10 17202.7 1654.19 1
5 10 10 15722.1 1788.65 2
-15 5 10 17970.9 1512.96 4
5 10 10 16988.4 1539.28 4
10 -15 10 17782.6 1188.85 2
-15 5 10 17688.3 1585.08 2
5 10 10 17127.9 1175.52 3
10 -14 -6 4160.46 380.34 3
10 -14 -6 3846.03 1036.02 1
10 -14 -3 115976 2238.03 3
4 10 -3 122565 2760.89 3
10 -14 -3 116225 2916.9 1
10 -14 -3 112408 2388.99 2
4 10 -3 114397 1971.82 2
4 10 -3 112142 2189.2 4
-14 4 0 23826.2 1131.37 2
10 -14 0 24142.8 946.349 4
10 -14 0 23319.6 1292.45 1
4 10 0 24404.4 979.13 2
-14 4 0 23232.9 753.415 1
10 -14 0 23726 769.401 2
-14 4 0 21997.8 1061.88 3
4 10 0 24586.8 1007.42 1
4 10 0 23062.1 1245.92 3
-14 4 0 22652.3 1002.84 4
4 10 3 63895 1591.46 1
-14 4 3 66758.3 1863.39 2
-14 4 3 68133.2 1999.23 1
10 -14 3 66552.3 1966.06 1
-14 4 3 69215.1 1580.14 3
-14 4 3 69254.1 1928.65 4
4 10 3 64488.1 1815.87 3
4 10 6 155.038 612.215 4
-14 4 6 826.965 591.655 2
4 10 6 505.297 540.256 3
4 10 6 475.188 764.494 2
10 -14 6 92.1778 654.769 1
10 -14 6 271.906 338.253 2
-14 4 6 701.847 582.083 4
-14 4 6 290.212 313.355 3
-14 4 9 36583.3 1948.06 4
10 -14 9 37506.5 1556.12 2
4 10 9 37531.7 1516.51 3
10 -14 9 36903.8 2086.49 1
4 10 9 36575.9 1969.65 4
4 10 9 34738.7 2204.41 2
-14 4 9 33319.9 1873.98 2
4 10 12 2507.6 1102.72 4
4 10 12 2575.72 1240.34 2
10 -14 12 1912.27 1173.67 1
-14 4 12 1681.51 967.431 4
-14 4 12 807.59 944.641 2
3 10 -4 366596 3845.51 4
3 10 -4 378979 3607.19 2
10 -13 -4 372403 3493.23 3
3 10 -4 381323 4779.46 3
3 10 -1 65188.8 1611.27 4
10 -13 -1 64589.8 1431.09 2
-13 3 -1 61586 839.297 1
10 -13 -1 61073.7 1877.7 1
-13 3 -1 61695.1 1459.76 4
3 10 -1 65456.9 1712.03 1
-13 3 -1 62036.2 1670.58 3
10 -13 -1 62541.2 1549.46 4
3 10 -1 65690.2 1379.15 2
3 10 -1 68924.3 1970.27 3
-13 3 2 484953 4582.33 4
-13 3 2 466405 4037.35 3
10 -13 2 452691 2122.79 2
10 -13 2 466276 4708.68 1
3 10 2 479467 4008.53 1
-13 3 2 484232 4490.86 1
3 10 5 34045.7 1525.31 4
10 -13 5 36137 1015.82 2
3 10 5 30685.3 1584.33 2
-13 3 5 33388.5 1480.32 4
10 -13 5 33144.4 1542.22 1
3 10 5 33262 1403.78 1
-13 3 5 35446.7 1014.36 3
-13 3 5 33207.4 1470.77 2
3 10 5 34687.4 1326.85 3
3 10 8 66374.3 2443.86 4
10 -13 8 70282.6 2618.32 1
10 -13 8 73249.3 2014.27 2
-13 3 8 68773.2 2445.56 4
-13 3 8 72608.2 2521.38 2
3 10 8 68318.1 1923.33 3
-13 3 11 3567.35 1024.86 4
3 10 11 2370.73 1154.89 2
10 -13 11 3465.94 872.316 3
10 -13 11 2883.31 799.356 2
3 10 11 2664.22 1005.16 4
10 -13 11 1442.7 986.685 1
-13 3 11 4202.97 1098.22 2
2 10 -5 34527.4 1205.86 2
10 -12 -5 32539.4 1818.41 1
2 10 -5 33787.5 1210.75 4
10 -12 -5 36443.6 887.942 3
10 -12 -2 20823.1 1019.3 4
2 10 -2 22421.2 926.593 4
10 -12 -2 23843 1309.59 1
10 -12 -2 22884.1 1001.64 2
2 10 -2 20756.8 1291.04 3
2 10 -2 20948.6 738.567 2
-12 2 -2 23175.7 1107.73 3
2 10 -2 21720.8 1130.82 1
10 -12 1 26322 650.369 2
-12 2 1 25788.9 1059.67 4
10 -12 1 25542.1 787.729 4
10 -12 1 25494.4 1216.85 1
2 10 1 26112.4 992.156 1
2 10 1 24179.7 1174.06 3
-12 2 1 24864.3 987.242 3
-12 2 1 26473.2 938.273 1
-12 2 1 25253.3 1093.61 2
-12 2 4 12909.8 679.44 3
2 10 4 12724.9 1004.02 2
2 10 4 13159.9 872.108 1
-12 2 4 13418.9 931.727 4
10 -12 4 13985.7 960.758 1
10 -12 4 12698.2 587.199 2
2 10 4 12644.4 844.564 3
2 10 4 12851.4 987.09 4
-12 2 4 14218.3 960.48 2
-12 2 7 19600.5 660.126 3
10 -12 7 18787.9 1035.12 2
2 10 7 19699.7 1364.33 4
10 -12 7 19379.3 1373.46 1
2 10 7 18441.6 1472.78 2
-12 2 7 20747 1319.43 4
-12 2 7 21868.7 1380.48 2
2 10 7 18093 999.196 3
-12 2 10 4345.22 912.58 4
10 -12 10 4366.73 826.632 3
2 10 10 3591.9 966.795 4
10 -12 10 5951.89 1165.05 1
-12 2 10 4827.73 995.521 2
10 -12 10 5720.61 893.387 2
2 10 10 5499.31 1283.47 2
1 10 -6 7749.25 671.251 4
1 10 -6 7588.19 708.146 2
10 -11 -3 51841.4 1583.21 2
-11 1 -3 52225.8 1555.07 3
1 10 -3 53229.4 1145.64 2
10 -11 -3 54503.4 1914.15 1
1 10 -3 51106 1811.79 3
1 10 -3 50302.8 1294.06 4
10 -11 -3 52138.9 1627.82 4
-11 1 0 36908.4 778.133 1
1 10 0 38863.7 1444.19 3
10 -11 0 36527.2 903.871 2
10 -11 0 38067.9 1056.43 4
-11 1 0 40263.1 1321.43 2
1 10 0 38978.8 1218.27 1
-11 1 0 37300.7 1160.94 4
10 -11 0 34345.7 1349.43 1
-11 1 0 35927.9 1159.13 3
10 -11 3 55895.1 1011.5 2
-11 1 3 58302.9 1654.06 4
-11 1 3 58911.4 1371.13 3
1 10 3 56538.1 1558.13 1
10 -11 3 55756.6 1625.06 1
-11 1 3 53281 1567.18 2
1 10 3 57621.9 1567.33 3
-11 1 6 25529.7 825.831 3
10 -11 6 25806.3 1397.28 1
1 10 6 25346 1539.6 2
10 -11 6 24929.7 1088.25 2
1 10 6 24711.8 1052.95 3
-11 1 6 27739.6 1402.49 2
1 10 6 24929.7 1380.86 4
-11 1 6 26102.2 1346.15 4
-11 1 9 20211 1429.85 4
1 10 9 19869.9 1501.11 4
10 -11 9 21549.1 1363.24 2
1 10 9 19450.8 1729.59 2
10 -11 9 20038.7 1551.8 1
-11 1 9 18095.5 1423.44 2
1 10 9 20549.5 1007.67 3
10 -11 9 20064.7 1300.94 3
-11 1 12 5353.36 1066.67 4
1 10 12 3709.86 1328.33 2
-11 1 12 5702.18 1221.24 2
1 10 12 5487.78 1195.7 4
10 -11 12 3854.83 985.968 2
10 -11 12 4503.09 1206.58 1
0 10 -7 2913.76 509.219 4
-10 0 -4 330088 3830.28 3
10 -10 -4 343632 2804.59 3
0 10 -4 333288 3155.68 4
0 10 -4 332566 2986.26 2
10 -10 -4 349993 5014.86 1
10 -10 -1 4126.27 478.488 4
10 -10 -1 3645.77 451.877 2
-10 0 -1 4035.02 504.403 3
0 10 -1 3996.23 823.391 3
10 -10 -1 4532.98 697.225 1
0 10 -1 4174.93 569.067 1
0 10 -1 4535.98 350.453 2
0 10 2 259209 3088.66 1
10 -10 2 260684 2074.33 2
10 -10 2 257043 1696.36 4
-10 0 2 255635 3132.65 4
-10 0 2 260875 3125.43 2
-10 0 2 249080 2801.9 3
10 -10 2 255945 3069.22 1
0 10 2 256657 3181.02 3
-10 0 5 3428.32 405.333 3
-10 0 5 2747.03 571.848 4
0 10 5 4060.36 708.714 4
-10 0 5 2939.3 593.58 2
0 10 5 3549.74 531.052 3
10 -10 5 3628.9 621.433 1
10 -10 5 2939.09 508.538 2
0 10 5 3366.88 755.238 2
0 10 5 3361.75 668.233 1
10 -10 8 225545 3728.79 3
0 10 8 232339 4324.54 4
-10 0 8 233035 4110.1 4
10 -10 8 235873 4508.91 1
-10 0 8 228059 4188.37 2
-10 0 8 225830 2027.79 3
10 -10 8 228774 3819.16 2
0 10 8 230812 2890.96 3
-10 0 11 7425.58 1161 2
10 -10 11 7306.83 1096.3 2
-10 0 11 7351.82 1110.87 4
10 -10 11 6289.52 934.132 3
0 10 11 7466.45 1204.69 4
0 10 11 9534.56 1569.44 2
10 -10 11 7115.02 1263.55 1
-1 10 -8 15800.2 932.298 4
10 -9 -5 45501.7 748.398 3
10 -9 -5 44635.6 656.691 3
-1 10 -5 50693.2 1299.08 2
-1 10 -5 50083.4 1231.48 4
-9 -1 -5 49469.2 1534.6 3
-1 10 -2 114059 1686.46 4
-1 10 -2 116562 1225.55 2
-1 10 -2 113884 2480.86 3
-9 -1 -2 113508 2027.06 3
10 -9 -2 115215 2033.3 2
10 -9 -2 114741 2093.93 4
-1 10 -2 112703 2309.55 1
10 -9 -2 113096 2365.4 1
-1 10 1 2651.85 642.049 3
-1 10 1 2776.07 486.819 1
10 -9 1 2821.26 307.983 4
10 -9 1 3303.91 539.349 1
-9 -1 1 3150.78 415.298 3
-9 -1 1 3009.05 459.15 2
10 -9 1 3074.73 303.217 2
-9 -1 1 2956.79 453.692 4
-9 -1 4 38208.5 1349.17 2
10 -9 4 41661.4 1415.62 1
-1 10 4 38019.7 1220.76 3
-9 -1 4 42323 1425.1 4
-1 10 4 39013.3 1561.38 2
-1 10 4 40732.4 1519.36 4
-9 -1 4 41296.6 1126.32 3
-1 10 4 40440.3 1487.97 1
-9 -1 7 12520.8 1009.42 4
10 -9 7 10450.2 904.505 2
10 -9 7 11092.4 1064.18 1
10 -9 7 8741.63 316.542 4
-1 10 7 9677.45 1132.89 2
10 -9 7 10616.8 895.02 3
-9 -1 7 10946.8 597.906 3
-1 10 7 10431.3 699.315 3
-1 10 7 10338 1045.82 4
-9 -1 7 10794.4 975.453 2
-1 10 10 8324.37 1356.21 2
10 -9 10 10299.5 1152.77 2
-1 10 10 11021.6 1271.96 4
-9 -1 10 11843.3 1185.45 4
10 -9 10 10799.7 1032.78 3
-9 -1 10 10284.9 1204.32 2
10 -9 10 10307.4 1323.63 1
-8 -2 -6 48461.8 1521.62 3
-2 10 -6 50003.5 1232.36 4
-2 10 -3 142853 2733.45 1
10 -8 -3 143100 2525.75 4
10 -8 -3 140555 2454.73 2
-2 10 -3 139790 1749.08 4
-8 -2 -3 144752 2313.52 3
10 -8 -3 139768 1638.8 3
-2 10 -3 146681 1473.19 2
10 -8 -3 137056 2854.54 1
-8 -2 0 242089 1791.25 1
-8 -2 0 245624 2866.66 2
10 -8 0 246175 2412.92 4
-8 -2 0 250372 2775.1 4
10 -8 0 232890 2746.54 1
-8 -2 0 246761 2791.81 3
10 -8 0 241835 2318.05 2
-2 10 0 243080 2891.15 1
-2 10 0 239454 3171.71 3
10 -8 3 105450 1904.23 1
-2 10 3 105068 1953.02 3
-2 10 3 105929 2167.49 1
-8 -2 3 104218 2033.01 4
-2 10 3 105365 2202.96 2
-8 -2 3 106246 1767.06 3
-2 10 3 106104 2236.19 4
-8 -2 3 107451 1981.01 2
10 -8 6 17173.7 1030.41 3
-2 10 6 15538.3 1101.36 4
-2 10 6 15732.6 1232.64 2
-8 -2 6 17823.8 1083.09 2
10 -8 6 14605.8 402.47 4
-8 -2 6 18056 1059.29 4
10 -8 6 17219.2 1031.39 2
-8 -2 6 16564.5 749.223 3
10 -8 6 15956.9 1080.81 1
-2 10 6 16692.8 795.923 3
-8 -2 9 51741.3 2018.85 4
-2 10 9 48864.1 1003.39 3
10 -8 9 54636.7 2140.95 2
-2 10 9 50875.9 2206.42 4
-2 10 9 53815 2507.78 2
-8 -2 9 51502.8 2118.05 2
10 -8 9 50358.8 2238.69 1
10 -8 9 53134.8 1167.68 4
10 -8 9 50871.3 1852.69 3
-8 -2 12 17697 1606.36 2
10 -8 12 16020.3 1575.51 2
-2 10 12 12475 1620.27 2
-8 -2 12 18303.7 1496.9 4
10 -8 12 12712.2 1634.36 1
-2 10 12 18406.3 1748.62 4
-3 10 -7 3753.04 450.637 4
-3 10 -7 3276.74 586.043 2
-7 -3 -4 322215 3467.42 3
-3 10 -4 315653 2474.86 4
10 -7 -4 311844 2064.52 3
-3 10 -4 321575 2594.23 2
-3 10 -1 65978.8 1772.23 3
10 -7 -1 71475.4 1459.67 4
10 -7 -1 68928.8 1572.14 1
10 -7 -1 69465.6 1405.94 2
-3 10 -1 64996.2 705.771 2
-7 -3 -1 65750.5 779.073 1
-7 -3 -1 64004.6 1443.69 3
-3 10 -1 69315.2 1646.1 1
10 -7 -1 67441.9 1338.32 3
-3 10 2 300258 3304.67 3
-3 10 2 297927 3419.14 1
10 -7 2 310759 2003.95 4
-7 -3 2 303742 2986.88 3
10 -7 2 304115 2819.07 1
-7 -3 2 306151 3197.78 4
-7 -3 2 297986 3038.29 2
-3 10 2 314995 3430.79 4
10 -7 2 307737 2709.54 2
-3 10 2 312433 3188.94 2
-3 10 5 27486.6 1347.4 4
-7 -3 5 27648.2 1177.51 4
10 -7 5 27983.7 1187.73 1
-7 -3 5 28229.7 1183.58 2
10 -7 5 26464.8 556.758 4
10 -7 5 27094.7 1198.18 3
-3 10 5 24641.9 923.744 3
-3 10 5 28432.3 1441.12 2
-7 -3 5 28374.7 962.584 3
10 -7 5 25832.5 575.214 4
10 -7 8 170279 3152.72 3
10 -7 8 163355 3594.46 1
10 -7 8 168304 2042.89 4
-3 10 8 161571 3913 2
-7 -3 8 158764 3369.14 2
-7 -3 8 165568 3256.15 4
-7 -3 8 166059 2214.15 3
-3 10 8 163126 3643.37 4
10 -7 8 164999 3465.5 2
10 -7 11 13487.8 1467.04 1
-7 -3 11 13871.6 1267.73 4
-3 10 11 17464.2 1798.66 2
-7 -3 11 14502.4 1394.2 2
10 -7 11 15480.9 1173.73 3
10 -7 11 12696.8 1411.3 2
-3 10 11 14567.3 1508.17 4
-4 10 -8 31797.6 1056.18 4
-4 10 -5 86405.6 1262.13 4
-4 10 -5 89232.8 1604.63 2
-6 -4 -5 86683.4 1809.77 3
10 -6 -2 148513 1776.76 3
-4 10 -2 148674 2505.9 1
-6 -4 -2 152607 2231.1 3
10 -6 -2 147218 2235.85 2
-6 -4 -2 156428 1547.31 1
10 -6 -2 147055 2551.64 1
10 -6 -2 154314 2347.57 4
-4 10 1 2831.75 484.273 1
10 -6 1 2798.88 300.514 4
-4 10 1 2426.91 431.81 4
10 -6 1 2520.09 356.525 1
-4 10 1 2498.56 367.586 2
10 -6 1 2968.97 482.286 3
-6 -4 1 2955.81 432.036 3
-6 -4 1 2960.36 377.825 1
-4 10 1 2788.38 539.78 3
-6 -4 1 2387.65 407.437 4
-6 -4 1 2885.11 425.957 2
10 -6 1 3102.38 363.57 2
-4 10 4 124248 1897.78 3
-6 -4 4 124727 2210.61 4
-4 10 4 121422 2582.61 1
-4 10 4 121542 2485.82 4
-6 -4 4 121482 1972.35 3
10 -6 4 117653 2065.02 1
-4 10 4 121444 2542.07 2
10 -6 4 121126 1236.98 4
-6 -4 4 119311 2115.06 2
-6 -4 7 11544 958.413 2
10 -6 7 9719.54 547.93 4
10 -6 7 7527.32 933.907 2
-4 10 7 8518.64 959.365 4
-4 10 7 10023.4 1188.06 2
-6 -4 7 8524.2 802.635 4
10 -6 7 9750.73 840.171 3
-6 -4 7 9679.02 663.381 3
10 -6 7 8650.69 909.31 1
10 -6 10 36361.4 2002.65 1
-6 -4 10 29876.3 1600.31 4
-6 -4 10 30170.6 1746.7 2
10 -6 10 33582.2 1933.48 2
-4 10 10 34931.3 1976.9 4
10 -6 10 34061.5 1201.78 4
10 -6 10 34680.9 1549.84 3
-4 10 10 33083.2 2098.74 2
-5 10 -6 40372.2 881.917 4
-5 -5 -6 38689.7 1247.61 3
-5 10 -3 209123 1529.47 4
10 -5 -3 204168 2912.91 2
-5 10 -3 209036 3178.64 1
10 -5 -3 207122 1959.21 3
10 -5 -3 205925 2932.47 4
-5 -5 -3 202444 2365.65 1
-5 10 0 53633 832.773 2
-5 10 0 54262.2 1158.24 4
-5 -5 0 56485.3 1022.07 1
10 -5 0 56102.7 1145.43 1
10 -5 0 54077.2 1182.07 2
-5 -5 0 53078.6 1311.98 3
-5 10 0 54404.5 1401.05 1
10 -5 0 55941 1178.7 4
10 -5 0 55116.2 1267.7 3
-5 -5 3 159434 2173.72 2
10 -5 3 166473 2020.17 1
-5 -5 3 160470 2285.15 3
-5 10 3 159970 2579.48 2
-5 10 3 166973 2723.39 4
10 -5 3 162029 2504.82 3
-5 -5 3 153238 2301.36 4
10 -5 3 168443 1619.47 4
-5 10 3 159000 2771.99 1
10 -5 6 64666.6 1277.49 4
-5 10 6 63224.4 2157.48 2
-5 -5 6 65717.7 1780.14 4
10 -5 6 66507.4 2019.1 2
-5 -5 6 64731.6 1580.19 3
-5 10 6 64339.1 2096.15 4
-5 -5 6 64217.1 1814.37 2
10 -5 6 63128.2 1869.21 1
10 -5 6 62366 1765.58 3
10 -5 9 34146.8 1823.67 1
-5 10 9 31090.9 1951.3 2
10 -5 9 29941.5 1751 2
-5 -5 9 32038.7 1649.34 2
10 -5 9 31755.4 1175.74 4
-5 -5 9 32364 1530.87 4
10 -5 9 31841.3 1450.13 3
-5 10 9 28224.4 1706.71 4
-5 10 12 15171.6 1559.14 4
10 -5 12 16127.6 1703.5 2
-5 10 12 15271.5 1819.96 2
10 -5 12 14889.5 1602.58 1
-5 -5 12 18825.9 2216.05 1
-5 -5 12 17597.4 1590.35 2
-5 -5 12 16724.4 1367.38 4
-6 10 -7 2360.33 295.013 4
-4 -6 -7 3104.94 498.553 3
10 -4 -4 112225 1369.83 3
-4 -6 -4 106496 1882.53 3
10 -4 -4 112148 2325.9 4
10 -4 -1 1286.77 367.514 2
-6 10 -1 938.958 233.389 4
-4 -6 -1 1399.56 382.089 3
10 -4 -1 833.546 350.825 3
10 -4 -1 1166.33 385.911 4
-4 -6 -1 1423.97 322.653 1
-6 10 -1 1220.7 367.612 1
10 -4 -1 1184.4 361.84 1
10 -4 2 72850.3 1072.15 1
-4 -6 2 72652.8 1497.44 4
-6 10 2 67108.9 1624.61 4
-6 10 2 73383.7 1776.59 1
10 -4 2 75152.5 1207.19 4
-4 -6 2 70971.3 1565.1 3
10 -4 2 71272 1608.66 3
-4 -6 2 72449 1648.67 1
-6 10 2 71610.9 1535.55 2
10 -4 2 70080.3 1515.32 2
-4 -6 2 71949.8 1360.73 2
-4 -6 5 102312 2011.64 4
-6 10 5 102068 2504.16 2
10 -4 5 96289.8 1598.43 4
10 -4 5 100316 2033.07 1
-6 10 5 100710 2431.97 4
-4 -6 5 102224 2012.41 3
10 -4 5 100087 2118.45 3
-4 -6 5 104372 2032.24 2
10 -4 8 26540.9 1487.39 1
-4 -6 8 22352.9 1313.9 2
10 -4 8 25367.8 1611.21 2
-6 10 8 24185.9 1486.93 4
-4 -6 8 23161.3 1193.95 4
-4 -6 8 23082.1 1071.23 3
-6 10 8 22822 1617.58 2
10 -4 8 25990.4 1060.9 4
10 -4 8 24941.3 1217.1 3
-6 10 11 14729.3 1656.05 2
10 -4 11 11787.8 1385.95 1
10 -4 11 12965.3 1075.6 3
-4 -6 11 14080.4 1772.86 1
-4 -6 11 11809.9 1095.68 4
-4 -6 11 12564.4 1292.62 2
10 -4 11 11231.7 1448.23 2
-6 10 11 13792.5 1493.57 4
-3 -7 -8 146253 2346.14 3
-3 -7 -5 12913.1 713.698 3
10 -3 -5 14734.3 554.242 3
10 -3 -2 272908 3137.64 4
10 -3 -2 271950 3069.64 2
-7 10 -2 269767 3280.35 1
10 -3 -2 266292 2554.06 3
-3 -7 -2 274214 2926.54 3
-3 -7 -2 269304 2678.42 1
-7 10 -2 268579 1667.19 4
-3 -7 1 81098.4 1569.49 1
-7 10 1 80254.3 1340.56 2
10 -3 1 81721.4 989.56 1
-7 10 1 79191 1543.22 4
-3 -7 1 80765.7 1393.34 2
10 -3 1 81505.9 1387.98 4
10 -3 1 82157.5 1667.79 3
-7 10 1 81107.1 1761.03 1
-3 -7 1 82331.4 1701.44 3
10 -3 1 80835.8 1579.07 2
-7 10 4 271932 3707.68 4
10 -3 4 268854 2761.72 1
-3 -7 4 266877 3942.32 1
-7 10 4 269656 3666.93 2
10 -3 4 257239 3243.17 3
-3 -7 4 261764 2779.78 2
-3 -7 4 266393 2993.52 4
-3 -7 4 267538 3274.26 3
10 -3 7 11967 771.2 4
-3 -7 7 11945 1314.99 1
-7 10 7 12116.1 1193.03 2
-3 -7 7 14018.5 935.099 2
-3 -7 7 12465.3 864.542 4
-3 -7 7 13488.5 911.831 3
-7 10 7 13242.7 1162.75 4
10 -3 7 12726.2 1002.78 1
10 -3 7 13284.8 910.502 3
10 -3 7 13880.5 1175.63 2
10 -3 10 71857.5 2058.1 4
-7 10 10 69587.6 2754.59 4
10 -3 10 75296.9 2757.72 1
-7 10 10 75653.9 2993.51 2
-3 -7 10 73854.1 2529.41 2
10 -3 10 80232.3 2235.45 3
10 -3 10 75260.1 2913.06 2
-3 -7 10 79601.3 3375.91 1
-3 -7 10 71518.1 2256.35 4
10 -2 -6 6859.15 482.447 3
-2 -8 -6 8287.58 587.412 3
10 -2 -3 126949 2334.57 2
10 -2 -3 125418 2301.21 4
10 -2 -3 124745 1733.87 3
-8 10 -3 124104 2390.99 1
-2 -8 -3 124137 2001.56 3
-2 -8 -3 124631 2195.81 1
-2 -8 0 182681 2526.99 3
10 -2 0 180140 2364.95 3
-8 10 0 182021 2550.36 1
-8 10 0 175750 2014.56 4
-8 10 0 181422 1648.82 2
10 -2 0 184740 2274.73 4
-2 -8 0 178680 2251.37 1
10 -2 0 179131 2351.79 2
10 -2 3 128818 2269.11 3
-2 -8 3 131986 1738.05 2
-2 -8 3 126407 2494.57 1
-2 -8 3 126017 1967.26 4
10 -2 3 121777 1795.44 4
-2 -8 3 121510 2236.88 3
10 -2 3 129596 1417.37 1
-8 10 3 126262 2281.92 2
-8 10 3 128105 2390.6 4
10 -2 6 82670.1 1991.55 3
-8 10 6 80614.4 2397.04 2
10 -2 6 79337.7 1972.32 1
-8 10 6 77521 2331.98 4
10 -2 6 78174.7 1725.18 4
-2 -8 6 80780.7 2645.32 1
-2 -8 6 80403 2011.12 3
-2 -8 6 81483.6 1851.69 2
10 -2 9 13497.1 1248.69 1
-2 -8 9 14154.7 1154.45 2
-2 -8 9 13358.9 971.439 4
-8 10 9 14397.8 1441.21 2
-8 10 9 11677.8 1219.43 4
10 -2 9 13359.7 999.973 3
10 -2 9 11852.6 928.804 4
10 -2 9 12394.6 1347.88 2
-2 -8 9 13102.1 1546.79 1
-8 10 12 11008.4 1486.97 4
10 -2 12 9114.06 1495.72 2
10 -2 12 9969.46 1352.06 1
-8 10 12 13372.3 1696.2 2
-2 -8 12 13081.5 1375.61 2
-2 -8 12 10731.2 1693.85 1
-1 -9 -7 9730.06 643.997 3
-1 -9 -4 62433.4 1437.77 3
-9 10 -4 59733.9 1802.36 1
-1 -9 -4 58043.3 1768.21 1
10 -1 -4 60102 1259.29 3
10 -1 -1 21402.9 892.05 4
-9 10 -1 21075.4 623.929 4
-1 -9 -1 23629.1 982.256 3
10 -1 -1 22660.3 887.471 3
10 -1 -1 22500 904.084 2
-9 10 -1 21174.6 942.868 1
-1 -9 -1 20122.9 927.929 1
-9 10 -1 21811.9 593.762 2
-1 -9 2 119534 2252.35 3
10 -1 2 118085 1813.95 4
-9 10 2 116158 1959 2
10 -1 2 121973 2193.28 2
-9 10 2 123977 2355.39 1
-1 -9 2 119347 2220.73 1
-9 10 2 118761 2140.71 4
10 -1 2 120286 2127.97 3
-1 -9 2 123653 1530.55 2
-1 -9 5 71031.9 2285.14 1
-9 10 5 66853.5 2015.62 4
-9 10 5 65316.8 2005.74 2
-1 -9 5 68975.3 1542.85 4
-1 -9 5 65605.2 1468.81 2
10 -1 5 65053.8 1730.06 3
-1 -9 5 63117.9 1834.93 3
-1 -9 8 554.238 427.064 4
-1 -9 8 2149.43 913.602 1
10 -1 8 1071.72 535.419 4
-9 10 8 -371.919 829.39 2
-1 -9 8 775.751 513.017 2
10 -1 8 872.644 750.843 2
10 -1 8 389.141 497.888 3
-9 10 8 143.424 649.944 4
-9 10 11 31791.2 2048.54 4
-9 10 11 32858.5 2155.74 2
-1 -9 11 29605.9 1492.07 4
-1 -9 11 32507 1784.86 2
10 -1 11 32274.1 1609.23 4
10 -1 11 31659.8 1982.92 1
10 -1 11 28591.8 2070.73 2
10 -1 11 30860.5 1539.07 3
-1 -9 11 32493.3 2386.78 1
0 -10 -8 222212 2623.17 3
10 0 -5 3415.42 492.298 3
0 -10 -5 2968.71 415.181 3
0 -10 -5 2045.77 688.182 1
10 0 -2 259726 3166.06 4
10 0 -2 264264 3134.53 2
-10 10 -2 258479 1613.3 4
-10 10 -2 267698 3225.24 1
10 0 -2 248927 2741.95 3
0 -10 -2 252934 2998.57 3
0 -10 -2 250162 3166.41 1
10 0 1 4219.4 571.448 3
0 -10 1 3692.07 575.284 1
-10 10 1 4036.82 487.884 4
-10 10 1 3704.87 543.69 1
10 0 1 4307 482.355 4
-10 10 1 3773.88 409.497 2
0 -10 1 4203.68 615.2 3
10 0 1 3616.13 495.756 2
-10 10 4 347307 4284.92 4
10 0 4 356956 3049.84 1
-10 10 4 354739 4231.75 2
10 0 4 360563 3921.47 3
0 -10 4 343481 3224.94 4
0 -10 4 353554 4593.13 1
0 -10 4 352539 2828.82 2
0 -10 4 347163 4259.94 3
10 0 7 2468.44 679.617 1
10 0 7 5055.63 973.29 2
0 -10 7 4439.17 997.09 1
0 -10 7 2973.32 505.107 4
-10 10 7 3842.65 828.931 4
10 0 7 2862.51 582.093 4
0 -10 7 3416.43 545.585 2
10 0 7 2841.23 590.087 3
-10 10 7 2493.72 772.7 2
-10 10 10 84330.5 3153.89 2
0 -10 10 80074.2 3367.37 1
0 -10 10 86270.9 2210.56 4
10 0 10 82157.9 3148.55 2
0 -10 10 90604.8 2650.15 2
10 0 10 87425.3 2346.7 3
10 0 10 86885.2 2523.96 4
-10 10 10 82884.2 2972.14 4
1 -11 -6 5663.63 511.071 3
10 1 -6 5655.46 662.66 3
10 1 -3 138052 2494.71 4
1 -11 -3 143692 2678.88 1
1 -11 -3 141103 2232.84 3
-11 10 -3 135474 2440.69 1
10 1 -3 133710 2131.89 3
10 1 -3 140482 2512.9 2
1 -11 0 18213.7 973.152 1
1 -11 0 15283.6 975.035 3
-11 10 0 18265.5 735.983 4
10 1 0 17407.3 846.644 4
10 1 0 17239.1 894.278 3
-11 10 0 18767.1 718.234 2
10 1 0 16582.4 892.967 2
-11 10 0 18005.5 915.191 1
1 -11 3 54615.7 1788 3
1 -11 3 54937.3 1777.32 1
10 1 3 51474.6 710.582 1
-11 10 3 49027.4 1513.55 2
10 1 3 49695.2 716.386 1
-11 10 3 53441.4 1656.35 4
10 1 3 56255.8 1597.9 3
-11 10 3 51508 1722.91 1
1 -11 3 56437.4 972.666 2
-11 10 6 33.7573 631.472 2
10 1 6 1465.81 533.795 3
1 -11 6 219.988 721.017 1
1 -11 6 252.038 337.861 2
1 -11 6 226.848 328.384 4
10 1 6 697.634 488.104 4
-11 10 6 462.589 574.795 4
10 1 6 -204.534 448.274 1
10 1 9 44167.6 1798.29 4
1 -11 9 43956.6 2389.62 1
-11 10 9 40851.3 2079.52 4
10 1 9 42931.1 1677.38 3
-11 10 9 42728.7 2203.61 2
1 -11 9 42669.7 1709.62 2
1 -11 9 43097.9 1468.61 4
10 1 9 39409.4 2198.04 2
-11 10 12 3679.41 1089.57 4
10 1 12 1495.41 886.529 1
10 1 12 3391.88 1142.61 2
-11 10 12 571.267 1048.65 2
1 -11 12 2523.29 854.994 2
1 -11 12 3962.67 1351.6 1
10 2 -7 29466 1188.45 3
2 -12 -7 25021.2 912.855 3
2 -12 -4 13745.6 1053.84 1
2 -12 -4 13641.3 771.003 3
-12 10 -4 13473.6 904.647 1
10 2 -4 12107.8 770.255 3
10 2 -1 4070.1 561.862 4
-12 10 -1 5351.24 487.284 2
2 -12 -1 5502.34 663.31 3
10 2 -1 4768.11 571.312 2
10 2 -1 4563.52 619.171 3
2 -12 -1 4783.02 750.886 1
-12 10 -1 5027.59 406.112 4
-12 10 -1 5515.52 590.491 1
2 -12 2 33348.8 1473.58 3
-12 10 2 36372.9 1284.54 4
2 -12 2 33853.8 1337.84 1
-12 10 2 34233.6 1175.18 2
-12 10 2 33658.6 1334.97 1
10 2 2 33133.9 1265.96 3
10 2 2 31704.5 1176.76 4
10 2 5 50052.3 1603.19 3
-12 10 5 48864.9 1790.51 4
10 2 5 52575 1351.56 1
2 -12 5 51466.4 2002.14 1
-12 10 5 49813.1 1806.54 2
2 -12 5 50286.3 1114.41 2
10 2 8 4766.98 786.599 4
-12 10 8 5107.17 964.352 2
-12 10 8 5044.01 943.883 4
2 -12 8 5233.75 682.979 2
2 -12 8 5369.83 597.952 4
10 2 8 4631.73 1067.57 2
10 2 8 6384.87 788.416 3
2 -12 8 4890.37 1046.19 1
10 2 11 28565 1457.31 3
-12 10 11 29174.4 2092.99 2
2 -12 11 28219.8 2218.82 1
-12 10 11 26067.7 1911.03 4
10 2 11 26064.8 1653.9 4
2 -12 11 29071.4 1619.21 2
10 2 11 26043.8 2105.52 2
3 -13 -8 67388.1 1353.76 3
3 -13 -5 47182.7 1995.12 1
10 3 -5 47378.6 1483.96 3
3 -13 -5 45602.9 1285.75 3
10 3 -2 310330 3700.12 4
-13 10 -2 326004 2308.93 4
-13 10 -2 326797 3462.44 1
3 -13 -2 304496 3993.62 1
10 3 -2 316901 3621.78 2
10 3 -2 312647 3483.62 3
3 -13 -2 328384 3706.06 3
10 3 1 26331.7 1120.33 2
3 -13 1 24623.2 1185.43 1
10 3 1 26804.6 1078.75 4
-13 10 1 26330.9 998.661 2
-13 10 1 27141.1 1050.67 4
10 3 1 28479.8 1214.34 3
3 -13 1 26573.7 1350.9 3
-13 10 1 25213.5 1150.08 1
10 3 4 313459 3894.69 3
-13 10 4 310740 4107.89 2
3 -13 4 325833 2174.12 2
10 3 4 323822 2497.64 1
-13 10 4 327640 4296.26 4
10 3 7 4500.98 705.128 3
3 -13 7 6214.51 608.897 2
10 3 7 4863.36 999.792 2
10 3 7 4125.59 715.886 4
3 -13 7 5591.37 1005.39 1
-13 10 7 5807.44 900.827 4
-13 10 7 5719.64 942.293 2
10 3 7 4172.18 722.971 1
-13 10 10 95643.7 3337.43 2
10 3 10 95158.4 3583.12 2
3 -13 10 97134.7 3655.59 1
-13 10 10 93603.2 3227.21 4
3 -13 10 96688.5 2595.67 2
10 3 10 99825.7 2934.18 4
10 3 10 92760.6 2523.85 3
10 4 -6 946.707 587.74 3
4 -14 -6 605.653 761.816 1
4 -14 -6 1365.05 412.969 3
4 -14 -3 45354.9 1440.93 3
10 4 -3 44546.4 1461.07 3
-14 10 0 8956.82 706.88 1
10 4 0 7944.51 676.85 4
-14 10 0 9606.27 670.282 2
-14 10 0 9188.73 612.171 4
10 4 0 9663.54 823.011 3
10 4 0 8616.39 728.531 2
4 -14 0 9601.22 939.276 1
4 -14 0 6729.88 939.379 3
-14 10 3 80277.6 1978.73 2
10 4 3 80814.8 1986.54 3
4 -14 3 80978.2 2227.78 1
10 4 3 78300.7 952.983 1
-14 10 3 77737.8 2032.35 4
10 4 6 2818.52 645.398 4
-14 10 6 3194.67 727.918 2
10 4 6 2700.82 535.022 1
-14 10 6 2887.01 735.249 4
4 -14 6 1860.98 334.291 2
10 4 6 2396.62 603.029 3
4 -14 6 1675.37 746.438 1
10 4 9 18235.5 1339.76 4
10 4 9 18862.2 1222.87 3
10 4 9 17929 1698.8 2
4 -14 9 14869 979.774 2
-14 10 9 17259.9 1502.1 2
4 -14 9 15198.7 1602.43 1
-14 10 9 16208.4 1460.76 4
10 4 12 -514.681 1238.37 2
10 4 12 1203.02 840.008 4
4 -14 12 374.338 1234.01 1
-14 10 12 -76.0992 1110.07 2
-14 10 12 903.117 987.613 4
10 5 -7 28655.3 1448.32 3
5 -15 -7 27627.3 969.753 3
5 -15 -4 46268.5 1428.52 3
10 5 -4 48354.8 1592.29 3
-15 10 -4 44361.8 1484.98 1
-15 10 -1 138256 2305.88 2
-15 10 -1 130100 2244.47 1
-15 10 -1 139636 1981.97 4
10 5 -1 145631 2618.43 3
5 -15 -1 134253 2715.76 3
10 5 -1 143861 2545.43 2
5 -15 -1 140515 2943.36 1
-15 10 2 102368 2219.71 4
5 -15 2 108575 2542.71 1
-15 10 2 102172 2327.79 1
-15 10 2 106871 2193.25 2
10 5 2 102440 2288.9 3
5 -15 5 26740.9 1538.59 1
-15 10 5 26625.2 1421.05 2
10 5 5 24771.5 929.237 1
5 -15 5 24894.4 625.483 2
10 5 5 26160.8 1275.27 3
-15 10 5 24611.8 1437.41 4
-15 10 8 5527.7 1010.08 4
10 5 8 2925.75 1056.04 2
5 -15 8 3758.91 987.573 1
-15 10 8 6207.85 1055.25 2
5 -15 8 4411.47 573.967 2
10 5 8 4085.01 726.168 3
10 5 8 5581.62 912.31 4
10 5 11 5913.04 1425.33 2
-15 10 11 6048.14 1284.91 2
-15 10 11 5429.42 1177.16 4
10 5 11 5778.56 1125.37 4
5 -15 11 5816.73 1397.85 1
10 6 -5 9433.88 944.496 3
6 -16 -5 7836.79 1113.03 1
6 -16 -5 6988.88 660.349 3
6 -16 -2 281848 3863.89 3
10 6 -2 296215 3890.62 3
-16 10 -2 290408 2728 4
6 -16 -2 279326 4339.36 1
-16 10 -2 293372 3281.73 1
6 -16 1 96138.8 2447.73 1
-16 10 1 99018.1 2059.1 4
-16 10 1 97888 2143.03 1
-16 10 1 100579 2106.48 2
10 6 1 95745.4 2281.69 3
10 6 4 193278 2114.49 1
-16 10 4 188117 3330.89 2
-16 10 4 191685 3497.85 4
6 -16 4 189237 3653.31 1
10 6 4 184702 3209.71 3
10 6 7 3263.44 817.214 4
-16 10 7 3484.04 923.691 4
-16 10 7 3859.12 899.185 2
10 6 7 4269.94 725.64 1
6 -16 7 3342.65 906.222 1
6 -16 7 4139.86 451.379 2
10 6 7 4286.02 1038.55 2
10 6 7 3890.36 693.897 3
6 -16 10 63195.8 3024.84 1
6 -16 10 63363.6 1930.68 2
10 6 10 62581.7 3049.12 2
10 6 10 60937.8 2549.69 4
-16 10 10 66976.5 2873.75 4
10 6 10 65565.9 2257.6 3
-16 10 10 68558.8 2938.93 2
10 7 -6 16795.2 1276.12 3
7 -17 -6 13286.9 810.629 3
7 -17 -6 14150.1 1510.57 1
7 -17 -3 23880.9 1507.8 1
-17 10 -3 24147.6 1016.13 1
7 -17 -3 23538.7 1194.08 3
10 7 -3 23474.9 1268.7 3
-17 10 0 31630.6 1214.13 1
-17 10 0 33586.5 1191 4
7 -17 0 34000.7 1609.42 1
10 7 0 34644.7 1444.86 3
-17 10 0 31091.5 1259.24 2
7 -17 3 14508.3 1147.99 1
-17 10 3 14563.7 988.14 2
-17 10 3 16694.8 1081.63 4
10 7 3 13425.1 1005.21 3
10 7 3 14144.4 564.334 1
-17 10 6 6997.67 955.106 4
7 -17 6 8281.79 1132.31 1
-17 10 6 9277.61 1044.53 2
7 -17 6 8310.2 381.522 2
10 7 6 9319.86 937.008 3
10 7 6 8231.43 744.387 1
10 7 9 5377.63 870.163 3
-17 10 9 5157.87 1058.08 2
10 7 9 6412.41 1296.27 2
10 7 9 5197.83 973.698 4
7 -17 9 6783.47 1308.96 1
7 -17 9 4240.06 587 2
-17 10 9 6108.15 1116.79 4
10 8 -7 27659.4 1631.19 3
8 -18 -7 30460.9 2112.68 1
10 8 -4 56971.1 1988.4 3
8 -18 -4 56580.4 1756.45 3
-18 10 -4 51168.2 1584.39 1
8 -18 -4 56630.5 2336.42 1
-18 10 -1 103337 1947.11 4
8 -18 -1 105273 2825.52 1
-18 10 -1 99432.2 1990.02 1
-18 10 -1 102464 2298.83 2
10 8 -1 108826 2585.99 3
10 8 2 56130.8 1181.34 1
10 8 2 60762.6 1953.73 3
-18 10 2 60012.1 1838.48 1
-18 10 2 64380.1 1899.1 2
8 -18 2 63729.4 2193.21 1
-18 10 2 66461.1 1916.97 4
10 8 5 57499.2 1449.55 1
-18 10 5 54141.9 2031.94 2
8 -18 5 55905.9 2216.35 1
10 8 5 62392.3 2057.84 3
-18 10 5 59802.2 2175.5 4
10 8 8 31566.6 2062.04 2
8 -18 8 33598.8 1034.72 2
10 8 8 30965.2 1756.54 4
8 -18 8 30674.7 2080.18 1
-18 10 8 33059.7 1955.24 2
-18 10 8 34256.7 1974.12 4
10 8 8 30966.7 1600.81 3
8 -18 11 2229.36 1126.77 1
10 8 11 3643.65 1104.34 4
-18 10 11 2841.6 1128.69 4
10 8 11 730.287 1162.73 2
-18 10 11 2713.25 1140.2 2
10 9 -5 40628.2 1880.29 3
9 -19 -5 39653.5 1513.27 3
9 -19 -5 42082.3 2258.18 1
10 9 -2 81236.4 2302.77 3
-19 10 -2 81067.1 1708.2 1
9 -19 -2 77016.5 2562.52 1
-19 10 -2 82629.5 1704.68 4
-19 10 1 29609.2 1275.9 1
-19 10 1 29734 1274.19 4
10 9 1 31888.2 1083.35 1
-19 10 1 33462.2 1410.12 2
9 -19 1 33234 1652.09 1
10 9 1 31284.7 1532.93 3
-19 10 4 49912.4 1955.15 4
10 9 4 49026.8 1245.1 1
-19 10 4 50855.6 1900.82 2
10 9 4 52792.9 1928.3 3
10 9 7 23973.6 1811.73 2
-19 10 7 28163.8 1715.47 2
9 -19 7 27248.8 1857.25 1
10 9 7 23031 1542.25 4
-19 10 7 25314.2 1643.14 4
9 -19 7 20980.3 547.89 2
10 9 7 24643.1 1454.86 3
-19 10 10 23813.4 1888.88 4
10 9 10 23400.2 1791.05 4
9 -19 10 23031 2014.1 1
10 9 10 22008.9 2109.72 2
-19 10 10 21988.8 1875.08 2
10 9 10 21309.1 1495.66 3
10 10 -6 18462.8 1508.88 3
10 -20 -6 18632.6 1773.13 1
10 10 -3 697.678 712.58 3
10 -20 -3 461.378 842.676 1
-20 10 -3 71.029 355.92 1
10 -20 0 21028.1 1473.83 1
-20 10 0 24588 1141.66 4
-20 10 0 20481.3 1177.04 2
-20 10 0 21312.3 1051.53 1
10 10 0 21953.9 1353.07 3
10 10 3 12063.9 1138.77 3
-20 10 3 12804.6 1033.59 4
10 10 3 11076.8 683.373 1
-20 10 3 11906.7 1007.41 2
10 -20 3 14937.5 1246.6 1
10 10 6 27140.1 1216.5 1
10 -20 6 29504.5 1823.37 1
-20 10 6 30772.8 1726.09 2
-20 10 6 29962 1753.09 4
10 10 6 32623.8 1627.3 3
10 10 9 3620.49 1017.16 4
-20 10 9 4904.72 1140.4 4
10 -20 9 2061.36 1105.53 1
10 10 9 5577.77 1340.74 2
-20 10 9 4253.3 1008.29 2
10 10 9 2565.33 808.705 3
11 -21 -7 20171.7 1987.64 1
10 11 -7 24095.7 1745.8 3
10 11 -4 25558.4 1628.35 3
11 -21 -4 24314.3 1831.04 1
11 -21 -1 31672.2 1817.08 1
-21 10 -1 30476.1 1500.77 2
-21 10 -1 30823.2 1239.69 4
10 11 -1 32167.3 1623.52 3
-21 10 -1 30546.3 1145.09 1
10 11 2 32993.8 1167.31 1
-21 10 2 34893.9 1533.4 4
10 11 2 31847.6 1639.58 3
-21 10 2 34273.4 1585.24 2
11 -21 2 35415.6 1837.14 1
-21 10 5 33062.3 1766.38 4
-21 10 5 29558.1 1643.29 2
10 11 5 29488.9 1173.3 1
10 11 5 30996.9 1656.33 3
11 -21 5 29278.3 1781.98 1
10 11 8 40925 2401.9 2
10 11 8 42167.3 2156.38 4
-21 10 8 47485 2421.14 4
11 -21 8 45752.2 2486.36 1
10 11 8 41934.5 1993.97 3
-21 10 8 45172.2 2304.2 2
9 11 -5 44106.1 2067.58 3
11 -20 -5 40647.4 2261.29 1
11 -20 -2 11976.6 886.76 2
-20 9 -2 11820.4 682.477 1
9 11 -2 12069.7 1129.42 3
-20 9 -2 12748.7 795.244 4
11 -20 -2 10643.1 1170.54 1
11 -20 1 66035.2 2391.74 1
-20 9 1 71473.9 1987.25 4
-20 9 1 66838.4 1820.55 1
9 11 1 67523.3 1731.61 1
9 11 1 70173.3 2275.39 3
9 11 4 15156.5 842.145 1
-20 9 4 16218 1199.07 4
-20 9 4 16843.1 1202.46 2
9 11 4 16434 1242.73 3
11 -20 4 17427.3 1369.7 1
9 11 7 5734.89 1123.43 2
9 11 7 8212.74 1125.88 4
-20 9 7 6230.82 997.777 4
11 -20 7 7939.4 1163.59 1
-20 9 7 5004.57 925.544 2
9 11 7 8383.99 1035.89 3
9 11 10 1783.93 1260.55 2
9 11 10 1473.56 1025.88 4
11 -20 10 1865.88 1144.22 1
-20 9 10 1056.28 919.112 4
-20 9 10 -65.5337 905.565 2
9 11 10 1240.45 802.649 3
8 11 -6 11885.7 1318.47 3
11 -19 -6 10495.4 1466.72 1
11 -19 -6 9127.21 774.4 3
11 -19 -3 22734 1578.77 1
-19 8 -3 21612.6 840.274 1
8 11 -3 21306.3 1418.08 3
-19 8 0 57825.7 1883.63 2
-19 8 0 54120.8 1472.97 1
-19 8 0 55091.5 1654.42 4
11 -19 0 57064.3 2163.61 1
8 11 0 56501.2 1656.39 1
-19 8 3 28307.9 1419.85 4
11 -19 3 29893.6 1572.86 1
8 11 3 28712.4 1074.13 1
-19 8 3 28532.2 1427.45 2
8 11 3 31375 1538.67 3
8 11 6 27282.5 1657.69 4
11 -19 6 29046.3 1760.31 1
-19 8 6 26204.5 1604.49 4
-19 8 6 24624.4 1521.44 2
8 11 6 24957.3 1259.14 1
8 11 6 26623.9 1482.34 3
-19 8 9 23609.7 1788.24 2
-19 8 9 22453.8 1765.67 4
11 -19 9 22599.5 1845.69 1
8 11 9 23330.4 1954.42 2
8 11 9 21284 1683.1 4
8 11 9 21874.8 1490.59 3
7 11 -7 28829.2 1717.14 3
11 -18 -7 28861.1 2122.12 1
7 11 -4 65377.1 2319.96 3
11 -18 -4 63909.5 1875.63 3
-18 7 -1 132186 2776.33 2
7 11 -1 140675 2770.46 1
-18 7 -1 135567 2381.05 4
11 -18 -1 145467 2280.85 2
-18 7 -1 133296 1889.76 1
7 11 -1 128893 2439.76 2
11 -18 -1 132584 3173.98 1
7 11 -1 145015 3057.06 3
-18 7 2 63879.8 1821.98 1
-18 7 2 64801.9 1924.89 4
-18 7 2 63600.7 1949.1 2
7 11 2 65018.5 2051.5 3
7 11 2 61109.6 1536.23 1
11 -18 2 63781.9 2143.46 1
-18 7 5 130512 3074.88 2
7 11 5 142448 3032.06 3
11 -18 5 137765 3364.35 1
7 11 5 127432 2489.83 1
-18 7 8 27362.6 1748.37 2
-18 7 8 24880.5 1706.85 4
11 -18 8 25807.9 1834.82 1
7 11 8 22099.9 1810.9 2
7 11 8 25555 1699.39 4
7 11 8 26139.6 1508.39 3
11 -18 8 25779.7 958.109 2
-18 7 11 14078.7 1637.71 4
7 11 11 10309.2 1488.48 4
7 11 11 12763 1676.56 2
-18 7 11 12295.9 1501.97 2
11 -18 11 13646.9 1734.73 1
6 11 -5 32335.6 1710.18 3
11 -17 -5 28242.8 1811.17 1
11 -17 -5 28057 1140.29 3
11 -17 -2 3737.11 749.521 3
11 -17 -2 4451.45 870.772 1
-17 6 -2 2861 303.43 1
6 11 -2 3063.01 480.428 2
6 11 -2 3437.56 803.088 3
11 -17 -2 3449.84 606.64 2
-17 6 -2 2631.34 452.795 4
11 -17 1 176885 3425.36 1
-17 6 1 181991 2941.41 4
-17 6 1 173212 2537.46 1
6 11 1 172791 3182.25 3
6 11 1 174965 2641.19 1
-17 6 1 179944 3084.35 2
6 11 4 22353.1 1054.95 1
6 11 4 25415.4 1328.76 3
11 -17 4 22847.8 1391.32 1
-17 6 4 23202.9 1331.67 4
-17 6 4 21047.4 1000.51 3
-17 6 4 22352.3 1276.99 2
6 11 7 20127.9 1473.12 4
-17 6 7 19696.6 1431.12 2
-17 6 7 23081.7 1557.52 4
11 -17 7 23540.5 1659.75 1
11 -17 7 22209.9 846.192 2
6 11 7 20247.3 1640.11 2
6 11 7 23130.3 1385.98 3
11 -17 10 1559.69 976.991 1
-17 6 10 2548.48 957.502 4
6 11 10 3356.15 1216.27 2
6 11 10 3463.3 836.988 3
-17 6 10 1371.62 883.465 2
6 11 10 4200.63 1083.46 4
5 11 -6 68400.7 2334.98 3
11 -16 -6 68811.1 2835.96 1
11 -16 -6 66301.6 1419.73 3
11 -16 -3 2445.45 619.319 3
11 -16 -3 2464.75 583.564 2
11 -16 -3 1866.61 738.587 1
5 11 -3 3455.23 826.934 3
5 11 -3 2719.73 447.485 2
-16 5 0 64772.3 1886.71 2
-16 5 0 66958.9 1353.85 1
11 -16 0 66821 1304.29 2
-16 5 0 68802.4 1735.17 4
11 -16 0 69612.3 2162.11 1
5 11 0 62588.1 1652.14 2
5 11 0 66867.7 1718.77 1
5 11 0 66782.9 2024.51 3
-16 5 3 27588.2 1309.45 4
-16 5 3 24786.2 1066.18 3
-16 5 3 24009.6 1266.16 1
11 -16 3 24739.5 1336.36 1
-16 5 3 24760.9 1246.75 2
5 11 3 26527.2 1069.42 1
5 11 3 26014.4 1274.04 3
5 11 6 8706.96 1021.73 4
11 -16 6 8072.12 1030.3 1
11 -16 6 8213.56 518.154 2
-16 5 6 6729.63 937.733 4
5 11 6 9706.28 916.713 3
5 11 6 10187.4 1175.55 2
-16 5 6 9657.59 1001.05 2
5 11 9 13271.5 1334.17 4
-16 5 9 14936.5 1411.7 4
11 -16 9 12294.1 1422.86 1
11 -16 9 11967.5 912.839 2
-16 5 9 12245.7 1305.19 2
5 11 9 13911.6 1133.85 3
5 11 9 14981.9 1657.94 2
11 -15 -7 89708.1 1065.66 3
11 -15 -7 90005.7 1013.14 3
11 -15 -4 101941 2057.18 3
4 11 -4 101106 2708.16 3
4 11 -4 104797 2029.95 2
4 11 -1 266690 3442.93 4
-15 4 -1 271035 3186.7 4
11 -15 -1 271787 3864.45 3
4 11 -1 274910 3647.95 1
11 -15 -1 283905 3027.82 2
11 -15 -1 277478 4163.42 1
-15 4 -1 274415 2023.51 1
4 11 -1 285644 3089.34 2
4 11 -1 284326 4074.52 3
11 -15 -1 277403 3416.4 4
-15 4 2 69496.8 1907.25 2
11 -15 2 58101 734.568 2
-15 4 2 68576.9 1789.84 1
4 11 2 67099.4 1617.73 1
-15 4 2 66831.1 1837.21 4
-15 4 2 65683.5 1693.93 3
11 -15 2 65817.4 1994.72 1
4 11 2 59633.3 1828.84 3
4 11 5 220287 4103.36 2
-15 4 5 221538 3822.96 4
4 11 5 222720 3850.91 4
11 -15 5 226518 2123.84 2
11 -15 5 219054 2165.22 2
-15 4 5 216437 2691.74 3
-15 4 5 220095 3756.92 2
11 -15 5 226533 3953.27 1
4 11 5 227252 3481.72 3
-15 4 8 27281.7 1668.67 4
4 11 8 24627.4 1634.05 4
4 11 8 28399.7 2010.39 2
11 -15 8 29056.4 1247.87 2
11 -15 8 30881.4 1850.76 1
4 11 8 26674 1359.8 3
-15 4 8 27643.8 1661 2
-15 4 11 25413 1929.31 2
-15 4 11 25043.6 1917.84 4
4 11 11 26066 2180.51 2
11 -15 11 25288.6 2099.07 1
4 11 11 26430.4 1998.11 4
11 -15 11 27513.7 1759.15 3
3 11 -5 11951.3 1121.9 3
3 11 -5 11671.6 795.726 2
11 -14 -5 12888.4 1323.5 1
11 -14 -5 11865.3 660.911 3
3 11 -2 42651.6 1724.46 3
3 11 -2 43894.3 1138.61 2
11 -14 -2 44520.5 1403.15 2
3 11 -2 41186.6 1565.71 1
3 11 -2 42020.2 1360.89 4
11 -14 -2 44224.2 1492.53 4
11 -14 -2 45101 1523.38 3
11 -14 -2 44645.6 1764.82 1
3 11 1 43014.7 1316.49 1
11 -14 1 44448.3 873.25 2
11 -14 1 47083.6 1683.59 1
-14 3 1 47145 1453.26 4
-14 3 1 40983.7 1341.44 3
-14 3 1 44269.1 1479.88 2
3 11 1 42615.8 1552.05 3
11 -14 1 43141.5 1103.04 4
-14 3 1 44561.7 1223.14 1
3 11 4 12018.7 867.087 1
-14 3 4 13969 1000.65 4
3 11 4 11885.7 886.461 3
-14 3 4 11021.9 686.185 3
11 -14 4 12778.5 1008.44 1
11 -14 4 13179.4 534.568 2
-14 3 4 13259.4 968.117 2
11 -14 4 12498.9 476.494 2
3 11 7 32117.8 1930.87 2
-14 3 7 32489.2 1664.16 4
11 -14 7 33172 1244.62 2
11 -14 7 31746 1743.02 1
-14 3 7 30274.1 909.856 3
3 11 7 35777.4 1820.95 4
-14 3 7 33634.5 1710 2
3 11 7 31017.5 1386.14 3
-14 3 10 27342.9 1804.73 4
11 -14 10 28051.5 1496.86 2
3 11 10 24975.8 1815.75 4
11 -14 10 24518.1 1878.38 1
-14 3 10 29425 1899.71 2
3 11 10 26352.5 2081.86 2
11 -14 10 27495 1625.91 3
2 11 -6 40449.9 1438.51 2
11 -13 -6 41381.4 766.148 3
11 -13 -6 43557.9 836.774 3
2 11 -3 14124.5 1121.95 3
11 -13 -3 14437 893.207 3
2 11 -3 14721 677.676 2
11 -13 -3 14810.4 959.038 2
2 11 -3 14732 813.49 4
11 -13 -3 14475.3 1157.74 1
2 11 0 8746.39 616.948 2
-13 2 0 9694.03 478.252 1
11 -13 0 11436.6 993.233 1
-13 2 0 8644.16 690.769 4
2 11 0 9715.27 731.899 1
2 11 0 8334.06 981.915 3
-13 2 0 9265.55 799.179 2
11 -13 0 9342.41 547.485 2
11 -13 0 10097.6 664.1 4
-13 2 0 8077.05 701.658 3
-13 2 3 6333.19 741.782 1
-13 2 3 6205.24 546.447 3
-13 2 3 5668.44 672.223 2
-13 2 3 5041.18 649.297 4
11 -13 3 4879.36 701.765 1
11 -13 3 6284.78 335.9 2
2 11 3 5977.33 703.451 3
2 11 3 5476.18 648.629 1
2 11 6 27310.2 1621.52 2
11 -13 6 28503 1525.89 1
-13 2 6 29586.9 1475.76 4
-13 2 6 26972.2 919.286 3
11 -13 6 27464.8 1080.93 2
2 11 6 27276.9 1510.06 4
-13 2 6 26759.6 1416.08 2
2 11 6 29271.6 1229.89 3
2 11 9 23564.3 1658.81 4
2 11 9 26978.2 1257.64 3
2 11 9 22040 1816 2
11 -13 9 22404.2 1317.28 2
11 -13 9 24188.2 1721.26 1
-13 2 9 23070.2 1561.5 4
-13 2 9 26738.3 1683.14 2
11 -13 9 24651.1 1490.93 3
2 11 12 3964.79 1406.08 2
11 -13 12 1397.22 981.854 1
2 11 12 2344.62 1074.46 4
-13 2 12 2718.7 1024.85 2
-13 2 12 3635.68 1076.35 4
11 -12 -4 83419.6 1637.3 3
1 11 -4 82124.5 2278.63 3
11 -12 -4 80746.9 2578.81 1
1 11 -4 77337.5 1703.18 4
1 11 -4 81603.1 1556.84 2
11 -12 -1 476639 4902.92 1
1 11 -1 470415 4523.35 1
-12 1 -1 463976 4016.17 4
-12 1 -1 466609 4379.75 3
11 -12 -1 479360 3819.57 2
1 11 -1 479449 3339.55 2
11 -12 -1 479164 4170.78 4
1 11 2 182172 2650.64 1
-12 1 2 181922 2795.76 4
11 -12 2 176324 1628.3 4
-12 1 2 185800 2812.61 1
-12 1 2 186467 2835.59 2
11 -12 2 179112 1662.72 2
11 -12 2 181792 2860.72 1
1 11 2 171001 2829.79 3
-12 1 2 183486 2562.32 3
-12 1 5 83265.2 2220.1 4
11 -12 5 85160.3 1709.99 2
1 11 5 89390.4 2397.15 4
-12 1 5 87821.9 1663.11 3
-12 1 5 83567.5 2215.44 2
1 11 5 90114.6 2537.71 2
1 11 5 83610.8 1927.31 3
11 -12 5 85599.4 2298.16 1
-12 1 8 56512.4 2173.35 4
1 11 8 50097.4 2403.18 2
11 -12 8 57414.8 2326.55 1
11 -12 8 54181.3 1854 2
-12 1 8 49479.2 1022.41 3
1 11 8 51982.4 2176.43 4
-12 1 8 54565.9 2172.95 2
1 11 8 52896.3 1607.42 3
11 -12 11 60483.9 2314.59 3
-12 1 11 57891 2529.25 4
-12 1 11 58337.9 2654.93 2
1 11 11 62948 2811.47 4
11 -12 11 63503.2 2918.33 1
11 -12 11 58915.3 2378.81 2
1 11 11 59048.9 2993.91 2
11 -11 -5 386.621 262.57 3
0 11 -5 639.131 324.324 4
11 -11 -5 1262.6 836.431 1
11 -11 -5 469.703 198.761 3
0 11 -5 244.148 326.493 2
0 11 -2 7608.73 1074.97 3
11 -11 -2 8415.95 698.549 2
-11 0 -2 7666.36 701.976 3
11 -11 -2 8165.49 699.818 4
0 11 -2 7051.33 744.829 1
11 -11 -2 8653.33 951.07 1
0 11 -2 8410.72 433.737 2
0 11 -2 6773.77 544.166 4
0 11 1 1580.31 716.177 3
-11 0 1 1214.33 473.653 4
11 -11 1 663.314 545.684 1
-11 0 1 825.695 427.514 3
0 11 1 1042.49 477.881 1
-11 0 1 1458.01 517.714 2
11 -11 1 922.371 298.008 4
11 -11 1 1183.98 277.938 2
11 -11 4 52006.3 1661.26 1
0 11 4 54811.4 1862.59 2
-11 0 4 50222.1 1648.78 4
0 11 4 53019.7 1689.81 1
-11 0 4 52983.3 1336.05 3
-11 0 4 50845.5 1607.64 2
0 11 4 57211.4 1585.35 3
0 11 4 51396.8 1732.64 4
0 11 7 2061.66 540.269 3
-11 0 7 2716.03 399.537 3
11 -11 7 2033.94 594.699 2
0 11 7 3436.51 970.749 2
11 -11 7 2124.32 713.712 1
0 11 7 826.991 643.983 4
-11 0 7 2405.37 681.122 2
-11 0 7 2921.47 721.158 4
-11 0 10 7025.82 1033.16 4
11 -11 10 7691.01 969.614 3
0 11 10 7598.9 1339.12 2
11 -11 10 5548.43 921.026 2
-11 0 10 6812.63 1100.05 2
0 11 10 7591.8 1143.86 4
11 -11 10 7067.88 1189.3 1
-1 11 -6 877.57 355.577 4
-1 11 -6 847.27 427.947 2
-1 11 -3 54091.8 1841.63 3
-1 11 -3 51576.3 1763.39 1
11 -10 -3 52316.4 1856.43 1
-10 -1 -3 56221.5 1581.68 3
11 -10 -3 51639.4 1595.06 4
-1 11 -3 56271.3 1286.13 4
11 -10 -3 53252.9 1613.24 2
-1 11 -3 57218.7 1015.63 2
-1 11 0 19876.8 1208.73 3
-10 -1 0 20159.4 990.927 2
11 -10 0 20458.5 997.311 1
11 -10 0 17843.9 758.773 4
11 -10 0 20308.5 749.129 2
-1 11 0 19321.8 926.806 1
-10 -1 0 19547.4 921.174 4
-10 -1 0 20175.2 921.176 3
-1 11 3 133074 2590.74 1
11 -10 3 143696 1858.22 2
-10 -1 3 148823 2543.52 4
11 -10 3 138480 2397.53 1
-1 11 3 152640 2745.62 4
-10 -1 3 147289 2194.79 3
-1 11 3 147936 2689.76 2
-10 -1 3 142708 2444.86 2
-1 11 3 142775 2426.99 3
-1 11 6 5017.89 899.306 2
-10 -1 6 4744.27 694.816 2
-10 -1 6 5351.06 715.822 4
-1 11 6 4521.16 775.295 4
-10 -1 6 5849.13 528.952 3
11 -10 6 6220.6 798.268 1
11 -10 6 4930.91 651.413 2
-1 11 6 6056.87 639.454 3
-1 11 9 27973.7 1041.7 3
11 -10 9 26596.5 1539.35 2
11 -10 9 27455.9 1485.04 3
-1 11 9 21664.8 1742.74 2
11 -10 9 26026.5 1715.22 1
-10 -1 9 23005.3 1522.75 2
-10 -1 9 25407.5 1524.96 4
-1 11 9 21922.3 1577.46 4
11 -10 12 1823.11 914.22 2
-1 11 12 830.112 1245.86 2
-10 -1 12 1355.61 859.32 4
-1 11 12 2237.35 1007.4 4
-10 -1 12 602.591 883.208 2
11 -10 12 2535.73 1131.05 1
-2 11 -7 125363 2147.67 4
-2 11 -7 132083 2575.25 2
-2 11 -4 98464 1474.24 2
-2 11 -4 95562.6 1560.67 4
-9 -2 -4 98832.5 2059.9 3
11 -9 -4 95419 1289.61 3
11 -9 -4 96263.8 2696.17 1
11 -9 -1 298820 2988.52 2
-2 11 -1 296300 3496.31 1
11 -9 -1 295113 3112.2 4
-9 -2 -1 304505 3323.26 3
-2 11 -1 305395 1929.32 2
-2 11 2 96591.3 2037.31 3
-2 11 2 94236.8 1995.92 1
11 -9 2 92071.1 1134.77 4
-9 -2 2 97272 1903.56 2
-2 11 2 93425.1 1891.09 2
-2 11 2 94660 2030.89 4
-9 -2 2 97621.5 1964.84 4
-9 -2 2 96822.2 1800.04 3
11 -9 2 92994.8 1821.46 1
11 -9 2 91868.9 1456.32 2
-9 -2 5 151483 2186.28 3
-2 11 5 147872 3139.92 2
11 -9 5 152560 2787.68 1
-9 -2 5 151815 2803.55 4
-9 -2 5 147956 2732.35 2
-2 11 5 150309 3023.02 4
-2 11 5 152366 2353.52 3
-2 11 8 73426 2531.73 4
11 -9 8 75249.1 2221.63 3
11 -9 8 73099.5 2284.95 2
-9 -2 8 73394.2 1480.15 3
-9 -2 8 72294.5 2268.17 4
-9 -2 8 77659.1 2444.85 2
11 -9 8 66366.3 954.783 4
-2 11 8 73620.8 2768.2 2
11 -9 8 73328.2 2510.14 1
-2 11 8 72011.3 1541.08 3
-9 -2 11 28111.2 1867.43 2
-2 11 11 28275 1961.67 4
11 -9 11 29230.1 1574.38 3
11 -9 11 27639.8 1801.77 2
-2 11 11 29185.5 2228.9 2
11 -9 11 34471.1 2144.98 1
-9 -2 11 26064.5 1688.9 4
-3 11 -8 17169.7 865.898 4
-3 11 -5 69456.5 1281.11 4
-3 11 -5 70715 1427.53 2
11 -8 -5 66331.2 848.99 3
-8 -3 -5 64879.3 1699.83 3
-3 11 -2 222194 3221.19 1
-3 11 -2 205427 1159.37 2
11 -8 -2 217160 2892.73 4
11 -8 -2 214799 2798.05 2
11 -8 -2 210362 2341.83 3
-8 -3 -2 221112 2861.68 3
11 -8 -2 212350 3210.96 1
-3 11 1 29409.1 1248.91 3
11 -8 1 30500.9 1016.92 1
-3 11 1 28401.7 1083.42 4
-8 -3 1 32327.8 957.928 1
-8 -3 1 30790.4 1097.8 4
11 -8 1 28798.9 853.196 2
-3 11 1 27411.2 1094.86 1
-3 11 1 29769.8 918.159 2
11 -8 1 27450.6 773.867 4
-8 -3 1 29586.8 1064.26 3
-8 -3 1 30084.6 1070.02 2
-3 11 4 51221 1753.14 2
-8 -3 4 52057.2 1326.58 3
-3 11 4 48290.8 1688.37 1
11 -8 4 46446.6 580.66 4
-8 -3 4 52340.7 1552.22 4
-8 -3 4 49700.9 1467.5 2
11 -8 4 47545.3 619.726 4
11 -8 4 53134.7 1480.23 1
11 -8 4 52448.5 1630.68 3
-3 11 4 52787.8 1730.68 4
-3 11 4 46956.3 1384.8 3
-3 11 7 17945.7 1300.41 4
-3 11 7 19604.2 1489.71 2
-8 -3 7 18072.9 1139.39 4
11 -8 7 17712.5 548.262 4
-3 11 7 18852.6 845.818 3
11 -8 7 18209 1178.76 2
11 -8 7 19972.1 1154.08 3
11 -8 7 21410.6 1313.63 1
-8 -3 7 19599.5 1211.81 2
-8 -3 7 18415.5 820.552 3
11 -8 10 56559.7 2494.85 1
11 -8 10 55406.9 2381.17 2
-8 -3 10 57549.1 2369.99 2
-3 11 10 61678.2 2826.1 2
-3 11 10 54040.8 2430.8 4
11 -8 10 58106.6 2065.32 3
-8 -3 10 55572.6 2186.7 4
-7 -4 -6 10320.8 771.644 3
-4 11 -6 10506.2 538.206 4
11 -7 -3 51078.4 1579.99 4
11 -7 -3 50876.6 1530.67 2
-4 11 -3 53793.3 1001.2 4
11 -7 -3 54750.7 1080.58 3
-7 -4 -3 55480 1476.36 3
-4 11 -3 56081.1 1763.34 1
11 -7 -3 56530.5 1885.29 1
-4 11 -3 51033 688.874 2
-4 11 0 17006.1 1044.26 3
-7 -4 0 19771.9 602.395 1
11 -7 0 18017 716.762 4
11 -7 0 17683.4 833.275 3
-4 11 0 18941.2 573.925 2
11 -7 0 16581.4 709.708 2
-7 -4 0 17697.2 838.074 3
11 -7 0 16540.1 759.622 1
-4 11 0 21353 960.175 1
-4 11 3 50871.1 1611.05 4
-4 11 3 49729.6 1597.46 1
-4 11 3 50874.2 1529.61 2
-7 -4 3 54738.9 1487.99 4
11 -7 3 51765.3 831.598 4
-7 -4 3 51379 1362.63 2
11 -7 3 49014.1 1256.75 1
11 -7 3 51541.1 1524.63 3
-7 -4 3 52026.6 1355.28 3
-4 11 3 53425.6 1462.25 3
-4 11 6 4071.77 503.432 3
11 -7 6 4829.49 666.403 1
11 -7 6 4495.8 703.464 2
11 -7 6 4124.19 326.034 4
11 -7 6 3448.35 670.438 3
-7 -4 6 3530.06 599.534 4
-7 -4 6 4530.35 668.552 2
-4 11 6 3311.56 697.617 4
-7 -4 6 3352.82 476.656 3
-4 11 6 4227.77 837.114 2
-7 -4 9 76339.7 2491.1 2
11 -7 9 72306.5 2549.25 2
-7 -4 9 76306.5 2359.16 4
11 -7 9 77873.7 2682.78 1
11 -7 9 78518.1 2275.93 3
-4 11 9 82365.2 2821.78 4
11 -7 9 76973.3 1515.59 4
-4 11 9 75778.1 2921.59 2
-4 11 12 259.751 932.696 4
-4 11 12 -515.101 1020.02 2
11 -7 12 8.01725 933.982 2
11 -7 12 -261.149 937.468 1
-7 -4 12 867.902 790.518 4
-7 -4 12 -464.68 884.073 2
-5 11 -7 147468 1866.46 4
-6 -5 -7 136131 2481.76 3
-5 11 -4 126122 1333.21 4
-6 -5 -4 129098 2237.74 3
11 -6 -4 128828 1474.29 3
11 -6 -1 147944 2169.59 4
-6 -5 -1 143942 1552.65 1
-6 -5 -1 148436 2257.22 3
11 -6 -1 143636 1993.39 3
11 -6 -1 148233 2159.18 2
11 -6 -1 146244 2268.9 1
-5 11 2 180767 2546.04 3
-5 11 2 180780 2672.76 4
11 -6 2 173913 2305.7 2
-5 11 2 180279 2822.77 1
-5 11 2 177492 2419.55 2
-6 -5 2 180794 2500.21 4
11 -6 2 174458 2635.74 3
11 -6 2 182086 1807.08 4
-6 -5 2 184046 2524.83 3
11 -6 2 182223 2039.59 1
-6 -5 2 176573 2329.26 2
-6 -5 2 178842 2593.51 1
-5 11 5 110984 2647.86 2
-6 -5 5 112179 2215.83 2
-5 11 5 108878 1746.18 3
-5 11 5 117730 2656.65 4
-6 -5 5 109737 2226.87 4
-6 -5 5 108539 2013.87 3
11 -6 5 114246 2225.71 1
11 -6 5 115671 2382.15 3
11 -6 5 118015 1432.02 4
11 -6 5 110280 1456.6 4
-6 -5 8 142700 2384.25 3
11 -6 8 146166 2941.89 3
11 -6 8 151839 2148.65 4
-6 -5 8 153631 3070.59 4
-5 11 8 144363 3749.27 2
11 -6 8 149847 3376.83 1
-6 -5 8 147377 3178.65 2
-5 11 8 146080 3546.81 4
11 -6 11 50428.5 2481.77 2
-5 11 11 45703.6 2379.52 4
-6 -5 11 51581.9 2125.85 4
11 -6 11 51574.2 2486.15 1
-6 -5 11 50017.3 2296.78 2
11 -6 11 49334.5 1928.22 3
-5 11 11 50068.7 2710.91 2
-6 11 -8 84309.3 1456.07 4
-5 -6 -8 90515.1 2034.66 3
-6 11 -5 126321 1189.97 4
11 -5 -5 121391 1366.18 3
11 -5 -2 162942 2500.46 2
11 -5 -2 153839 1978.28 3
-5 -6 -2 159144 2370.72 3
-6 11 -2 164190 2692.21 1
-6 11 -2 162415 1600.82 4
-5 -6 -2 157330 1881.07 1
11 -5 -2 159986 2450.75 4
-5 -6 1 138748 2014.57 2
-6 11 1 138419 2371.9 1
11 -5 1 140113 1639.98 1
11 -5 1 141594 1817.19 4
-5 -6 1 141222 2239.62 3
-5 -6 1 134732 1950.92 1
11 -5 1 143953 2072.9 2
11 -5 1 142687 2216.54 3
-6 11 1 137605 1793.58 2
-6 11 1 138966 2141.71 4
11 -5 4 174964 2792.2 3
-6 11 4 177990 3035.42 2
-5 -6 4 176510 2476.46 2
11 -5 4 170344 2281.32 1
-5 -6 4 180046 3293.93 1
11 -5 4 170056 1819.79 4
-5 -6 4 172553 2597.3 4
-5 -6 4 178943 2615.51 3
-6 11 4 173640 3044.5 4
11 -5 7 82139.3 2133.74 3
11 -5 7 85894.8 2328.78 1
-6 11 7 87386.6 2747.93 2
-5 -6 7 85157.8 2205.67 2
11 -5 7 91057.9 2608.04 2
-5 -6 7 83497.9 2121.67 4
11 -5 7 88955.5 1680.64 4
-6 11 7 86463.4 2583.43 4
-5 -6 7 85883.8 1937.3 3
-5 -6 10 50784.7 1966.24 4
11 -5 10 53005.4 2464.92 2
-6 11 10 55332 2503.44 4
-5 -6 10 50041.9 2117.45 2
11 -5 10 48796.7 1510.14 4
11 -5 10 50662.3 1885.79 3
-6 11 10 51738.4 2559.55 2
11 -5 10 50510.6 2298.84 1
11 -4 -6 15197.8 518.553 3
-7 11 -6 13819.8 370.844 4
-4 -7 -6 14168.3 812.678 3
-4 -7 -3 38470.6 1212.12 3
-7 11 -3 33930.1 535.336 4
11 -4 -3 33524.3 1280.53 4
-7 11 -3 36675.8 1438.17 1
11 -4 -3 32843.6 1257 2
11 -4 -3 33983.9 934.517 3
-4 -7 -3 36055.5 1144.19 1
11 -4 0 18715.4 769.298 4
-7 11 0 20367.7 557.318 2
11 -4 0 19021 832.047 3
-4 -7 0 20461.9 776.842 1
11 -4 0 18484.5 690.57 1
11 -4 0 19510.7 820.185 2
-7 11 0 19011.2 755.27 4
-7 11 0 17059.2 877.831 1
-4 -7 3 75749 1767.42 3
-7 11 3 73931.9 1859.11 4
-7 11 3 77456.8 1837.75 2
-4 -7 3 75150.9 1625.43 4
11 -4 3 74017.7 1781.5 3
-7 11 3 71661.9 1977.4 1
-4 -7 3 79120.1 2006.95 1
11 -4 3 78338.1 1313.72 4
11 -4 3 75146.2 1250.32 1
-4 -7 3 78522.4 1506.86 2
11 -4 6 805.222 467.132 1
11 -4 6 564.535 445.23 3
-4 -7 6 486.002 714.471 1
-4 -7 6 627.873 463.837 3
-7 11 6 -157.824 622.824 2
-4 -7 6 1446.99 498.011 4
-4 -7 6 832.997 424.764 2
11 -4 6 708.434 356.824 4
-7 11 6 353.41 537.759 4
-4 -7 9 46817 1755.48 4
-4 -7 9 45811.1 2549.01 1
11 -4 9 50026.7 2312.36 2
11 -4 9 47282.1 2058.16 1
11 -4 9 46290.8 1495.13 4
-7 11 9 47805.4 2182.01 4
-7 11 9 47221.2 2322.68 2
11 -4 9 49550.9 1808.05 3
-4 -7 9 47516.5 1925.58 2
-7 11 12 1052.37 1105.37 2
-4 -7 12 2158.11 837.548 2
-4 -7 12 994.158 1280.72 1
11 -4 12 254.483 872.269 1
-7 11 12 310.503 904.816 4
11 -4 12 -262.178 1004.37 2
-4 -7 12 1295.94 766.42 4
-3 -8 -7 25292.5 1047.24 3
-3 -8 -4 24615.8 1149.55 1
-3 -8 -4 25842.4 1000.85 3
11 -3 -4 23235.8 769.447 3
-8 11 -4 23637.6 1261.38 1
-3 -8 -1 35178.5 1074.71 1
-8 11 -1 40173.9 874.946 4
11 -3 -1 40797.9 1214.64 4
-8 11 -1 38693.1 619.655 2
-8 11 -1 37280 1265.48 1
11 -3 -1 37725.5 1156.25 2
11 -3 -1 39918.4 1134.02 3
-3 -8 -1 40156.3 1259.01 3
11 -3 2 179677 2619.56 3
11 -3 2 173485 1420.4 1
11 -3 2 178151 2589.34 2
-8 11 2 175268 2633.57 4
-8 11 2 175727 2402.98 2
-3 -8 2 178801 2661.92 1
11 -3 2 184716 2180.07 4
-8 11 2 184974 2915.62 1
-3 -8 2 182483 2723.53 3
-3 -8 2 176457 2089.56 2
11 -3 5 20063.4 918.418 1
-8 11 5 17638.3 1161.68 4
-3 -8 5 17953.2 1248.59 1
-8 11 5 18032.5 1169.75 2
-3 -8 5 18747.9 917.601 4
11 -3 5 18434.4 991.136 3
-3 -8 5 19906.7 900.943 2
-3 -8 5 18155.5 1005.36 3
-3 -8 8 19585.2 1099.26 4
-3 -8 8 16308.8 1511.43 1
11 -3 8 20299.7 1292.99 1
11 -3 8 17391.5 964.193 4
-8 11 8 19023.4 1534.26 2
-8 11 8 19348.9 1424.1 4
-3 -8 8 16899.2 1095.65 2
11 -3 8 18110.2 1441.21 2
11 -3 8 17792.5 1103.3 3
11 -3 11 11525.2 1484.13 2
-3 -8 11 9505.16 1002.66 4
-3 -8 11 10322.4 1578.93 1
11 -3 11 8253.67 1165.71 1
-8 11 11 9051.02 1306.05 4
11 -3 11 11365 1019.68 3
-8 11 11 9273.58 1423.39 2
-3 -8 11 10027.8 1169.38 2
-2 -9 -8 12743.6 784.316 3
11 -2 -5 164696 2040.36 3
-2 -9 -5 161235 2404.57 3
-9 11 -2 109915 2182.31 1
-9 11 -2 108339 1128.02 4
11 -2 -2 105772 2078.99 4
11 -2 -2 111501 2099.26 2
-2 -9 -2 108180 1977.63 1
11 -2 -2 106726 1769.98 3
-2 -9 -2 112865 2052.01 3
-9 11 1 196534 2525.06 4
11 -2 1 194596 2633.32 2
11 -2 1 199631 2393.54 4
-2 -9 1 191140 2558.54 1
11 -2 1 202587 2725.8 3
-9 11 1 192784 2184.01 2
-9 11 1 192574 2857.44 1
-2 -9 1 197558 2840.25 3
11 -2 4 189413 2903.71 3
11 -2 4 191308 2115.35 1
-2 -9 4 190374 2564.41 4
-9 11 4 188828 3110.35 2
-2 -9 4 196001 3471.13 1
-9 11 4 194955 3221.9 4
-2 -9 4 189459 2284 2
-2 -9 4 182552 2949.53 3
11 -2 7 105900 2206.4 4
-9 11 7 105606 3001.53 2
11 -2 7 101484 2877.82 2
-9 11 7 105642 2911.01 4
-2 -9 7 104363 2210.21 4
-2 -9 7 103115 2280.58 2
11 -2 7 106083 2482.06 1
-2 -9 7 102428 3196.3 1
11 -2 7 102595 2382.59 3
11 -2 10 30383 1793.56 1
11 -2 10 31486.3 2055.37 2
11 -2 10 33231.1 1527.42 4
-9 11 10 33822.6 2114.49 2
11 -2 10 30194.6 1507.89 3
-2 -9 10 33897.6 1538.31 4
-2 -9 10 32821.4 1690.84 2
-9 11 10 30831.7 1914.75 4
-2 -9 10 29658.2 2202.67 1
-1 -10 -6 22963.9 941.652 3
11 -1 -6 25352.8 942.441 3
-1 -10 -3 58101.8 1470.77 3
-10 11 -3 51420.4 1640.13 1
11 -1 -3 54431.4 1607.94 4
11 -1 -3 53185.3 1595.6 2
-1 -10 -3 54968 1640.82 1
11 -1 -3 54289 1312.41 3
11 -1 0 37107.7 1200.96 3
-10 11 0 35724 1017.32 4
-1 -10 0 35777.7 1231.2 1
11 -1 0 38534.5 1168.71 4
-10 11 0 38336.9 887.687 2
11 -1 0 40530.2 1241.65 2
-1 -10 0 35836.2 1291.09 3
-10 11 0 37004.5 1303.75 1
11 -1 3 46968.9 716.129 1
-1 -10 3 50468.6 1062.21 2
-1 -10 3 46919.8 1616.94 1
-10 11 3 46034.3 1533.17 4
11 -1 3 49796 1293.1 4
-1 -10 3 48746.3 1588.96 3
-10 11 3 49263.3 1690.51 1
-10 11 3 49372.5 1489.66 2
11 -1 3 51401.4 1544.99 3
-10 11 6 6381.08 825.744 4
-1 -10 6 6905.33 634.196 2
11 -1 6 7112.97 664.988 1
-1 -10 6 5892.9 943.616 1
-1 -10 6 7130.28 625.289 4
11 -1 6 6699.31 750.88 3
-10 11 6 5876.71 889.659 2
11 -1 6 7730.87 691.055 4
11 -1 9 52929.2 1842.85 3
11 -1 9 53804.1 2136.1 1
11 -1 9 52142.9 1813.96 4
-10 11 9 53069.1 2316.86 4
-10 11 9 53264.7 2441.33 2
-1 -10 9 54102.6 2630.2 1
-1 -10 9 52527.6 1903.54 2
-1 -10 9 53635.4 1727.93 4
11 -1 9 53898.7 2481.53 2
-10 11 12 2078.66 1058.83 4
-1 -10 12 154.539 745.475 2
11 -1 12 -189.204 882.048 1
-1 -10 12 39.1801 1210.81 1
11 -1 12 2638.74 1257.95 2
-10 11 12 2668.96 1226.23 2
11 0 -7 1949.23 506.909 3
0 -11 -7 778.016 379.968 3
11 0 -4 48423.8 1282.27 3
-11 11 -4 50146 1693.66 1
0 -11 -4 49165.8 1372.07 3
0 -11 -1 1663.56 584.052 1
11 0 -1 937.576 381.552 4
-11 11 -1 835.553 273.196 4
-11 11 -1 1551.44 311.248 2
11 0 -1 457.395 407.651 3
11 0 -1 1056.45 432.898 2
-11 11 -1 1149.34 496.109 1
0 -11 -1 852.059 505.162 3
11 0 2 6588.58 693.492 2
-11 11 2 5032.23 634.957 4
0 -11 2 6779.21 793.88 3
11 0 2 6404.36 585.263 4
-11 11 2 6606.1 624.255 2
11 0 2 6390.24 706.816 3
0 -11 2 6237.51 783.271 1
-11 11 2 5731.73 723.944 1
0 -11 5 747.345 363.735 4
-11 11 5 10.2408 545.577 4
11 0 5 737.762 471.255 3
-11 11 5 309.453 509.93 2
0 -11 5 417.962 276.881 2
11 0 5 200.873 340.904 1
0 -11 5 584.796 646.205 1
11 0 8 4977.13 732.244 4
0 -11 8 6758.27 1190.08 1
11 0 8 6198.9 766.004 3
0 -11 8 8792.33 750.675 4
-11 11 8 7007.52 1073.98 2
-11 11 8 6333.53 997.603 4
0 -11 8 6643.2 729.267 2
11 0 8 6554.23 1123.61 2
0 -11 11 1828.45 712.173 2
11 0 11 2022.01 1135.59 2
11 0 11 1052.73 763.111 4
0 -11 11 1181.97 1148.26 1
-11 11 11 3331.48 1069.22 4
11 0 11 1766.91 671.748 3
11 0 11 1150.12 839.231 1
-11 11 11 1122.43 933.372 2
1 -12 -8 17596.9 832.616 3
1 -12 -5 111072 2046.73 3
1 -12 -5 114825 2867.11 1
11 1 -5 113297 2064.29 3
-12 11 -2 149534 1456.46 4
11 1 -2 144083 2528.14 4
-12 11 -2 151189 2516.16 1
11 1 -2 140872 2441.06 2
1 -12 -2 140612 2624.9 1
11 1 -2 148111 2330.84 3
1 -12 -2 145184 2463.22 3
-12 11 1 432019 4400.9 1
11 1 1 446543 4034.93 4
-12 11 1 434451 3917.75 4
1 -12 1 448240 4420.73 1
-12 11 1 441835 3626.56 2
1 -12 1 434689 4639.7 3
11 1 1 424949 4228.53 2
-12 11 4 168948 3092.44 4
11 1 4 159465 1752.04 1
1 -12 4 167099 3249.27 1
-12 11 4 161829 2933.37 2
11 1 4 161490 2804.2 3
11 1 4 158481 1735.64 1
1 -12 4 166098 1845.38 2
-12 11 7 76674.5 2554.18 2
-12 11 7 83955.4 2659.65 4
11 1 7 78273.7 2701.71 2
11 1 7 75880.4 2185.92 1
1 -12 7 81105.8 1790.55 4
1 -12 7 82165 2872.27 1
1 -12 7 79353.4 1843.75 2
11 1 7 79653.7 2134.51 3
11 1 7 81666.9 2150.76 4
11 1 10 83672.8 2403.96 3
11 1 10 80492.4 3208.3 2
11 1 10 91229.8 2706.69 4
-12 11 10 91065.8 3267.48 2
1 -12 10 84945.3 2158.15 4
1 -12 10 88687.2 2511.39 2
1 -12 10 90038.3 3566.99 1
-12 11 10 88028.5 3140.54 4
2 -13 -6 32130.7 1780.09 1
2 -13 -6 32812.3 1108.88 3
2 -13 -3 7502.67 672.713 3
-13 11 -3 7148.27 699.348 1
11 2 -3 6540.17 636.991 3
2 -13 -3 6616.04 850.233 1
2 -13 0 5811.48 773.542 1
-13 11 0 4946.81 499.511 4
11 2 0 5182.94 603.944 4
2 -13 0 5608.47 777.606 3
11 2 0 5322.05 679.778 3
-13 11 0 4591.31 497.06 2
11 2 0 4896.77 650.167 2
-13 11 0 3623.14 612.837 1
-13 11 3 33981 1318.47 2
2 -13 3 33008.6 711.867 2
11 2 3 32081.7 1209.51 4
-13 11 3 32623.5 1344.74 4
11 2 3 34531.6 1345.09 3
2 -13 3 34930.7 1523.6 1
2 -13 6 69352.9 2480.06 1
11 2 6 63311.3 1922.06 3
11 2 6 65444.1 1705.51 1
-13 11 6 64053.2 2202.53 2
2 -13 6 64052.6 1427.99 2
-13 11 6 68195.2 2271.12 4
2 -13 9 54889.1 1598.54 4
11 2 9 51142 2524.15 2
2 -13 9 52837.5 2601.15 1
-13 11 9 49801.7 2345.52 2
11 2 9 52284.7 2067.37 4
11 2 9 52682.7 1912.97 3
-13 11 9 56552.9 2473.54 4
2 -13 9 51887.3 1765.93 2
11 2 12 372.579 914.117 1
-13 11 12 545.123 964.738 4
11 2 12 -598.402 1136.43 2
-13 11 12 -597.199 1125.55 2
2 -13 12 1045.21 1242.45 1
11 3 -7 20741.5 1152.03 3
3 -14 -7 20877.4 895.726 3
3 -14 -4 12057.2 1076.54 1
11 3 -4 11462.6 813.308 3
-14 11 -4 11062.5 857.457 1
3 -14 -4 11971 772.436 3
-14 11 -1 27144.7 965.808 2
3 -14 -1 26966.2 1352.57 1
11 3 -1 25336.1 1147.46 3
-14 11 -1 27146.5 861.514 4
-14 11 -1 27241.7 1111.03 1
11 3 -1 23613.2 1072.53 2
3 -14 -1 26807.8 1257.25 3
11 3 2 60500.5 1753.03 3
11 3 2 56594.4 1609.27 4
3 -14 2 60154.8 1861.94 1
-14 11 2 57313.8 1559.36 2
-14 11 2 61507.2 1718.19 4
-14 11 2 56559.8 1778.2 1
-14 11 5 37357 1668.43 4
3 -14 5 38762.6 1815.62 1
11 3 5 33537 1418.27 3
-14 11 5 40603.3 1720.53 2
3 -14 5 34449.5 861.19 2
11 3 5 35933 1031.15 1
11 3 8 10305.4 1043.1 4
-14 11 8 13161 1333.1 2
-14 11 8 11768.8 1232.84 4
3 -14 8 12016.6 1324.14 1
3 -14 8 10423.2 790.43 2
11 3 8 12450.5 1420.19 2
11 3 8 10731.4 978.221 3
11 3 11 8311.66 1139.51 4
11 3 11 9482.87 1574.54 2
-14 11 11 8694.84 1378.42 4
-14 11 11 8055.35 1364.73 2
3 -14 11 6769.15 892.564 2
11 3 11 8309.04 994.9 3
3 -14 11 9052.64 1535.57 1
4 -15 -5 230381 4392.7 1
4 -15 -5 218373 3075.99 3
4 -15 -2 62097 1795.06 3
-15 11 -2 66101.7 1198.01 4
-15 11 -2 61451.7 1646.02 1
4 -15 -2 60946.3 2008.46 1
11 4 -2 59232.1 1666.09 3
-15 11 1 203903 2809.07 2
-15 11 1 201657 2868.13 4
4 -15 1 201191 3336.04 1
-15 11 1 192027 3051.67 1
11 4 1 202644 3191.45 3
-15 11 4 195202 3467.53 4
4 -15 4 186487 1426.95 2
11 4 4 188678 1790.98 1
-15 11 4 194358 3339.38 2
4 -15 4 182720 3554.67 1
11 4 4 197366 3260.4 3
-15 11 7 85525.7 2752.53 4
11 4 7 78665.9 2095.09 1
4 -15 7 83889.2 2917.66 1
-15 11 7 79777.5 2666.36 2
4 -15 7 83229.3 1660.82 2
11 4 7 79597.9 2383.14 4
11 4 7 80806.8 2278.25 3
11 4 10 45460.8 1886.57 3
11 4 10 41525 2519.24 2
4 -15 10 44168.8 1699.04 2
4 -15 10 43684.9 2560.05 1
-15 11 10 46843.5 2473.69 2
11 4 10 36415.3 1916.72 4
-15 11 10 44141.4 2392.15 4
11 5 -6 8294.32 939.869 3
5 -16 -6 6330.89 1096.73 1
5 -16 -6 6697.44 631.397 3
-16 11 -3 20765.9 663.742 4
5 -16 -3 20192.2 1070.84 3
11 5 -3 21718.7 1157.61 3
5 -16 -3 20916.4 1358.02 1
-16 11 -3 18653.6 970.182 1
5 -16 0 94736.9 2457.54 1
-16 11 0 90667.1 2026.98 1
-16 11 0 93407.8 1839.14 4
-16 11 0 92365.9 1968.05 2
11 5 0 96855.6 2244.02 3
-16 11 3 3045.42 598.047 4
-16 11 3 4014.05 622.252 2
5 -16 3 3408.06 729.995 1
11 5 3 3008.01 222.397 1
5 -16 6 62882 1149.79 2
-16 11 6 60535.7 2253.95 4
5 -16 6 64458.2 2477.02 1
11 5 6 63861.4 2009.38 3
-16 11 6 66651.2 2321.86 2
11 5 6 59839.8 1545.59 1
11 5 9 12334.3 1260.61 4
-16 11 9 10909.8 1296.02 4
5 -16 9 11255.7 1407.78 1
5 -16 9 12334 855.532 2
11 5 9 13453.2 1557.42 2
-16 11 9 11373.2 1386.89 2
11 5 9 11415.7 1053.98 3
11 6 -7 27911.4 1535.77 3
6 -17 -7 24517.7 1022.16 3
6 -17 -7 23917.1 1939.47 1
-17 11 -4 20987.7 1072.56 1
6 -17 -4 19908.8 1457.69 1
6 -17 -4 21208.4 1117.57 3
11 6 -4 21946 1220.63 3
-17 11 -1 145811 2547.85 2
-17 11 -1 144055 2160.68 4
11 6 -1 147460 2843.1 3
-17 11 -1 142347 2427.83 1
6 -17 2 2365.03 717.85 1
-17 11 2 2286.87 542.603 4
11 6 2 3002.28 256.122 1
11 6 2 3319.43 706.884 3
-17 11 2 2142.68 527.914 2
11 6 5 30891.5 1458.91 3
-17 11 5 29816.3 1602.04 4
6 -17 5 32247.7 1733.98 1
-17 11 5 34715 1637.8 2
11 6 5 32636.9 1002.43 1
11 6 8 3909.36 1116.58 2
11 6 8 6432.27 897.988 3
-17 11 8 5250.86 1019.32 2
6 -17 8 5204.35 1118.57 1
11 6 8 6433.23 940.573 4
6 -17 8 6328.43 575.66 2
-17 11 8 5397.47 1020.7 4
11 6 11 8320.12 1476.99 2
11 6 11 8197.44 1250.9 4
6 -17 11 9658.54 1522.65 1
-17 11 11 7218.48 1279.27 2
-17 11 11 9567.09 1399.78 4
11 7 -8 9832.52 1099.8 3
7 -18 -5 122723 3530.87 1
11 7 -5 123711 2902.48 3
7 -18 -2 57851.9 2159.65 1
-18 11 -2 58951.7 1595.77 1
-18 11 1 97420.7 2248.26 1
-18 11 1 103289 2216.29 4
11 7 1 112994 2598.72 3
-18 11 1 104389 2272.89 2
7 -18 1 112331 2783 1
-18 11 4 103255 2668.24 4
7 -18 4 104093 2870.94 1
-18 11 4 98153.5 2541.67 2
11 7 4 100103 1501.95 1
11 7 4 102567 2564.93 3
7 -18 7 10576.4 521.52 2
11 7 7 11633.2 1066.87 3
-18 11 7 9265.03 1176.9 4
7 -18 7 12950 1462.95 1
-18 11 7 11893.4 1235.13 2
11 7 7 10902.5 1160.32 4
11 7 10 21491.6 2056.15 2
-18 11 10 23768.1 1885.68 4
-18 11 10 24542 1878.4 2
11 7 10 23933.3 1741.03 4
7 -18 10 23517.8 2084.99 1
11 7 10 21228.2 1454.08 3
11 8 -6 34037.9 1771.78 3
8 -19 -6 28726.5 1267.95 3
8 -19 -6 32945.1 2136.65 1
11 8 -3 35172.3 1592.25 3
-19 11 -3 31617.5 1224.5 1
8 -19 -3 36353.3 1910.61 1
-19 11 0 33646.9 1323.18 1
8 -19 0 36884 1731.69 1
11 8 0 35681.6 1575.54 3
-19 11 0 35548.2 1428.27 2
-19 11 0 35338.3 1282.35 4
11 8 3 30005.7 1451.84 3
-19 11 3 29447.7 1419.4 4
11 8 3 29830.2 833.407 1
-19 11 3 26906.3 1356.89 2
8 -19 3 30274 1626.81 1
11 8 6 4498.7 589.113 1
-19 11 6 5046.97 927.735 4
8 -19 6 5705.18 1032.09 1
-19 11 6 4469.14 921.723 2
11 8 6 6821.34 917.436 3
-19 11 9 28473.8 1944.3 4
11 8 9 22917.4 1926.26 2
-19 11 9 27069.1 1913.43 2
8 -19 9 24116.7 1985.52 1
11 8 9 26382.7 1567.63 3
11 8 9 29440.8 1849.11 4
9 -20 -7 12064.9 1613.45 1
11 9 -7 9782.28 1288.01 3
-20 11 -4 14933.2 932.638 1
9 -20 -4 15008.7 1437.92 1
11 9 -4 16721.1 1264.29 3
-20 11 -1 99452.5 2428.34 2
-20 11 -1 94146.8 2037.1 1
-20 11 -1 99842.7 2072.69 4
9 -20 -1 100175 2902.03 1
11 9 -1 101991 2642.74 3
11 9 2 17286.9 750.763 1
-20 11 2 21145.5 1203.88 4
-20 11 2 19128.2 1159.37 2
11 9 2 21845 1322.81 3
9 -20 2 20692.1 1440.44 1
-20 11 5 67102.7 2379.17 4
9 -20 5 67727.9 2524.94 1
11 9 5 67504.9 2261.54 3
11 9 5 62077 1466.24 1
-20 11 5 64124.3 2266.3 2
11 9 8 5726.53 1278.87 2
-20 11 8 6126.2 1101.95 4
-20 11 8 8964.53 1248.9 2
11 9 8 7149.34 1080.45 4
11 9 8 8053.74 1060.69 3
9 -20 8 8990.38 1395.54 1
11 9 11 15167.4 1682.9 4
-20 11 11 15562.1 1766.97 4
9 -20 11 14945.9 1920.73 1
11 9 11 14700.2 1932.46 2
-20 11 11 16436 1784.05 2
11 10 -8 28562.2 1864.9 3
11 10 -5 18161.9 1493.86 3
10 -21 -5 16645.5 1632.25 1
11 10 -2 23758.5 1436.73 3
-21 11 -2 24793 1052.92 4
-21 11 -2 22943 1025.49 1
10 -21 -2 23618.8 1669.6 1
10 -21 1 16244.5 1318.81 1
-21 11 1 19674.7 1201.56 2
-21 11 1 16136.8 1058.36 1
11 10 1 18384 1297.44 3
-21 11 1 18866.7 1112.47 4
10 -21 4 19471.4 1458.15 1
-21 11 4 20682 1391.25 4
11 10 4 23034.3 902.652 1
-21 11 4 24618.5 1432.77 2
11 10 4 21642.3 1394.97 3
11 10 7 9243.87 1354.23 2
-21 11 7 11634.3 1240.22 4
10 -21 7 10290.8 1360.18 1
-21 11 7 12510.7 1333.9 2
11 10 7 9081.94 1156.35 4
11 10 7 8615.73 1058.54 3
11 10 10 5393.06 1483.72 2
-21 11 10 7834.66 1379.62 2
11 10 10 6715.64 1218.68 4
-21 11 10 8409.16 1367.3 4
10 -21 10 7464.76 1377.14 1
11 10 10 7018.08 1091.94 3
11 11 -6 7991.04 1223.99 3
11 -22 -6 6193.85 1381.46 1
-22 11 -3 56691.4 1557.55 1
11 11 -3 62295.4 2332.79 3
11 -22 -3 58395.6 2551.03 1
-22 11 0 862.216 470.69 4
11 11 0 -109.853 721.642 3
11 -22 0 482.642 791.995 1
-22 11 0 295.473 600.525 2
-22 11 0 310.932 521.277 1
11 11 3 51855.7 1354.56 1
11 -22 3 54864.3 2288.97 1
-22 11 3 56979.1 2075.57 2
11 11 3 57342.7 2186.7 3
-22 11 3 57342.8 2067.05 4
11 -22 6 12767.4 1440.88 1
-22 11 6 15573 1407.24 4
-22 11 6 13966.5 1283.26 2
11 11 6 12660.1 1243.57 3
-22 11 9 34153.1 2199.3 4
11 11 9 31088.2 2297.61 2
-22 11 9 34327.9 2168.89 2
11 11 9 35419.8 1969.46 3
11 11 9 35985.1 2162.21 4
11 -22 9 34993.7 2350.5 1
11 12 -7 30001.6 1978.12 3
12 -23 -7 24953.9 2192.23 1
12 -23 -4 12478.8 1496.85 1
11 12 -4 11902.7 1322.94 3
-23 11 -1 42646.6 1843.79 2
12 -23 -1 41370 2152.28 1
-23 11 -1 43966.8 1539.92 4
-23 11 -1 41233.4 1403.94 1
11 12 -1 44609.2 2011.11 3
11 12 2 37639 1320.95 1
12 -23 2 38682.3 2019.89 1
-23 11 2 44266.6 1800.2 4
-23 11 2 41731.4 1839.2 2
11 12 2 38631 1912.33 3
-23 11 5 29640.9 1730.26 4
-23 11 5 25534.8 1619.93 2
12 -23 5 29860.4 1878.26 1
11 12 5 29219.7 1727.54 3
-23 11 8 8510.83 1286.59 4
11 12 8 6120.26 1128.58 4
-23 11 8 9691.12 1348.96 2
11 12 8 6067.18 1367.65 2
12 -23 8 6308.35 1263.62 1
11 12 8 5727.32 1060.61 3
10 12 -8 6098.9 1225.93 3
10 12 -5 11873.1 1379.98 3
12 -22 -5 8119.36 1385.61 1
-22 10 -2 31243.6 1239.76 4
-22 10 -2 26730.2 996.048 1
12 -22 -2 27631.5 1806.24 1
10 12 -2 30865.5 1727.45 3
12 -22 1 22341.7 1595.54 1
-22 10 1 25740.3 1328.48 4
-22 10 1 24955.1 1389.92 2
10 12 1 25501 1552.67 3
-22 10 1 23872.6 1225.25 1
10 12 1 23266.6 1121.32 1
12 -22 4 23079.7 1604.73 1
-22 10 4 24344.5 1500.88 4
10 12 4 20396.7 1013.95 1
10 12 4 22795.6 1509.92 3
-22 10 4 21748.7 1423.85 2
-22 10 7 2606.93 931.92 4
10 12 7 2005.55 891.519 4
12 -22 7 2916.39 1043.8 1
-22 10 7 139.654 783.144 2
10 12 7 2101.01 982.643 2
10 12 7 1560.42 837.776 3
12 -22 10 1343.34 1035.25 1
10 12 10 186.853 1254.3 2
-22 10 10 1260.74 956.827 4
10 12 10 2115.08 930.473 3
-22 10 10 1711.27 977.511 2
10 12 10 2462.16 1044.12 4
9 12 -6 23932.7 1726.8 3
12 -21 -6 23503.5 1967.81 1
12 -21 -3 30351.5 1935.57 1
-21 9 -3 29598.1 996.209 1
9 12 -3 33569.2 1794.9 3
-21 9 0 18817.5 1213.4 2
-21 9 0 19078.8 966.51 1
12 -21 0 20649.7 1505.66 1
9 12 0 19002.7 1082.82 1
9 12 0 18965.5 1343.8 3
-21 9 3 40176.1 1752.1 4
9 12 3 37049.2 1304.33 1
12 -21 3 38873.4 1937.12 1
-21 9 3 35370.1 1650.2 2
9 12 3 40241 1846.22 3
-21 9 6 3261.16 849.617 4
-21 9 6 3870.99 925.721 2
12 -21 6 4764.28 984.98 1
9 12 6 3384.37 838.622 3
-21 9 9 30079.7 2041.53 4
9 12 9 34571.6 1869.07 3
12 -21 9 30498.1 2189.31 1
9 12 9 29254.6 2237.19 2
-21 9 9 33472.5 2134.42 2
9 12 9 29190.8 1929.74 4
8 12 -7 79050.3 2772.03 3
12 -20 -7 77734.6 3377 1
8 12 -4 29316.7 1736.52 3
12 -20 -4 26276 1828.56 1
8 12 -1 145620 3218.22 3
-20 8 -1 136722 2986.58 2
12 -20 -1 139146 2324.33 2
12 -20 -1 138262 3441.6 1
-20 8 -1 142079 2555.21 4
-20 8 -1 134504 2057.78 1
12 -20 2 26224.1 1529.52 1
8 12 2 27350.2 1137.16 1
-20 8 2 26457.6 1401.71 2
-20 8 2 22125.7 1171.28 1
8 12 2 25027.7 1473.74 3
-20 8 2 25689.4 1304.8 4
8 12 5 55350.5 1719.34 1
-20 8 5 60914.4 2279.85 4
12 -20 5 62212.8 2437.87 1
-20 8 5 61843.3 2254.72 2
8 12 5 64152 2234.31 3
8 12 8 2721.39 839.712 3
-20 8 8 3519.04 968.602 4
12 -20 8 5510.95 1185.15 1
8 12 8 3293.15 1074.74 2
-20 8 8 4634.96 996.267 2
8 12 8 4100.43 1027.82 4
8 12 11 16628.7 2069.19 2
8 12 11 14954.4 1659.15 4
12 -20 11 20290 2086.85 1
-20 8 11 17276.4 1772.74 4
-20 8 11 20156.2 1867.07 2
7 12 -5 10826.4 1300.07 3
12 -19 -5 13754.5 1474.01 1
12 -19 -5 11485.8 877.826 3
12 -19 -2 51613 2187.78 1
-19 7 -2 52874.2 1526.61 4
-19 7 -2 49746.2 1066.31 1
7 12 -2 52908.4 2021.4 3
12 -19 -2 53879.3 1653.34 2
-19 7 1 22406.9 1251.16 2
-19 7 1 23356.8 1045.3 1
7 12 1 22282.7 1051.41 1
7 12 1 21471.7 1300.41 3
-19 7 1 22981.9 1162.08 4
12 -19 1 20934.6 1429.48 1
-19 7 4 8057.1 942.615 4
-19 7 4 8134.42 925.428 2
12 -19 4 8111.05 1042.17 1
7 12 4 6292.38 675.579 1
7 12 4 8579.15 966.599 3
7 12 7 13817.5 1173.47 3
-19 7 7 12963.5 1291.54 2
7 12 7 11099.9 1217.94 4
-19 7 7 11197.4 1228.29 4
7 12 7 11439.2 1375.96 2
12 -19 7 11659.1 1365.53 1
12 -19 7 11057.8 487.257 2
12 -19 10 8830.33 1474.87 1
7 12 10 10945.4 1641.43 2
-19 7 10 10707.4 1409.36 2
-19 7 10 10321.6 1386.56 4
7 12 10 8838.02 1328.95 4
7 12 10 12359.7 1215.51 3
6 12 -6 6137.69 1095.38 3
12 -18 -6 5314.84 1243.94 1
12 -18 -6 6240.57 619.199 3
6 12 -3 61602.1 2212.29 3
12 -18 -3 59690.8 2323.2 1
6 12 -3 56138.8 1613.38 2
6 12 0 1549.17 443.842 2
-18 6 0 1590.91 567.456 2
12 -18 0 2245.54 375.833 2
12 -18 0 2278.34 812.416 1
-18 6 0 1792 385.982 1
-18 6 0 1994.38 520.043 4
6 12 0 2552.54 568.46 1
6 12 0 3242.74 755.61 3
-18 6 3 70092.1 2105.82 4
6 12 3 60864.9 1668.06 1
-18 6 3 62745.6 2013.55 2
12 -18 3 60928.5 2100.8 1
6 12 3 67407.3 2098.3 3
12 -18 6 51.9081 158.601 2
12 -18 6 582.587 690.254 1
-18 6 6 -180.445 642.406 2
6 12 6 -199.394 598.358 3
6 12 6 -185.968 833.382 2
6 12 6 -12.3364 690.9 4
12 -18 6 -54.9145 162.631 2
-18 6 6 159.312 676.864 4
-18 6 9 7616.64 1195.2 4
12 -18 9 7110.4 1300.38 1
-18 6 9 8647.01 1176.58 2
6 12 9 8771.13 1252.92 4
6 12 9 8806 1407.64 2
6 12 9 8175.68 1003.83 3
12 -17 -7 45236.6 1032.96 3
12 -17 -4 53623.8 1682.83 3
5 12 -4 58293 1680.21 2
12 -17 -4 58502 2416.85 1
12 -17 -1 110701 2845.5 1
12 -17 -1 115161 2070.3 2
12 -17 -1 111093 2320.66 4
-17 5 -1 113501 2190.39 4
5 12 -1 113514 2506.5 1
5 12 -1 114219 2153.84 2
-17 5 -1 116172 1479.35 1
5 12 -1 118504 2819.65 3
5 12 2 36406.5 1553.92 3
-17 5 2 33144.2 1307.01 1
-17 5 2 34073.8 1453.19 2
-17 5 2 33978.5 1420.97 4
5 12 2 34991 1237.2 1
12 -17 2 37436.7 1640.41 1
5 12 5 172389 3770.28 2
12 -17 5 163737 1464.34 2
-17 5 5 164900 2608.18 3
12 -17 5 177024 3688.43 1
-17 5 5 176492 3523.82 2
5 12 5 170095 3531.8 4
-17 5 5 180293 3611.08 4
5 12 5 161278 2961.48 1
12 -17 5 163551 1411.33 2
5 12 5 167906 3225.01 3
12 -17 8 22310.7 1720.75 1
-17 5 8 23919.6 1623.12 4
12 -17 8 22742.8 1059.76 2
5 12 8 22025.5 1828.12 2
-17 5 8 23776.1 1642.18 2
5 12 8 22261 1644.09 4
5 12 8 25367.3 1418.48 3
12 -17 11 33656.5 1950.49 3
5 12 11 33684.1 2541.21 2
12 -17 11 30347.2 2261.49 1
-17 5 11 33419.7 2214.81 4
-17 5 11 31710.5 2176.82 2
5 12 11 32128.1 2165.15 4
4 12 -5 8854.36 1143.84 3
4 12 -5 8954.79 756.052 2
12 -16 -5 9067.09 1169.46 1
12 -16 -5 8054.43 660.692 3
12 -16 -2 21332.5 1199.09 3
-16 4 -2 18711.2 447.305 1
12 -16 -2 23219.3 1092.13 2
4 12 -2 23021.1 1402.19 3
4 12 -2 22630.5 936.566 2
12 -16 -2 23498.7 1433.58 1
4 12 1 10571.3 770.406 1
12 -16 1 10337.6 981.844 1
-16 4 1 8699.33 775.543 4
12 -16 1 10588.4 479.747 2
-16 4 1 6843.57 744.365 2
4 12 1 12049.2 1029.92 3
-16 4 1 8944.86 644.426 1
4 12 4 10147.8 840.088 1
12 -16 4 10600.7 1021.87 1
-16 4 4 9601.51 722.284 3
-16 4 4 10144.4 925.963 4
-16 4 4 10128.4 919.032 2
12 -16 4 8627.35 373.231 2
12 -16 4 9156.31 327.494 2
4 12 4 10239.8 937.848 3
-16 4 7 42302.1 1947.77 4
4 12 7 40432.9 1928.87 4
4 12 7 40417.7 2151.29 2
-16 4 7 37440.8 1102.04 3
12 -16 7 40899.4 1282.62 2
-16 4 7 39960.9 1902.46 2
4 12 7 42222.9 1660.28 3
12 -16 7 40726.9 2018.79 1
12 -16 10 10792.8 1444.26 1
-16 4 10 9413.52 1251.85 2
4 12 10 11250 1358.5 4
-16 4 10 11436.1 1327.82 4
12 -16 10 7778.52 1109.24 3
12 -16 10 9862.68 937.693 2
4 12 10 9077.64 1555.35 2
12 -15 -6 9632.43 565.087 3
3 12 -6 8741.55 811.97 2
12 -15 -6 10898.2 1410.3 1
3 12 -3 25843.8 1510.65 3
12 -15 -3 23508.9 1158.19 3
12 -15 -3 21531.5 1177.67 2
12 -15 -3 23268.1 1499.84 1
3 12 -3 23535.4 1092.02 4
3 12 -3 23745.4 917.295 2
-15 3 0 9234.46 820.766 2
3 12 0 11255.1 1058.83 3
12 -15 0 10007.8 679.892 4
12 -15 0 9841.38 581.738 2
12 -15 0 7717.34 869.999 1
-15 3 0 10385.2 524.449 1
-15 3 0 9678.64 756.615 4
3 12 0 10128.5 691.885 2
3 12 0 9851.05 774.547 1
12 -15 3 16854.7 468.204 2
-15 3 3 17526.2 1073.83 2
-15 3 3 18997.4 1129.76 1
-15 3 3 18143.9 1080.18 4
3 12 3 17976.4 983.325 1
-15 3 3 17975.7 922.571 3
12 -15 3 16145.3 1073.67 1
3 12 3 16110.7 1009.78 3
-15 3 6 51360.4 2000.78 4
12 -15 6 47116.1 1288.32 2
3 12 6 51737.6 2214.56 2
12 -15 6 49042.2 2034.36 1
3 12 6 48032.8 1980.44 4
-15 3 6 49208.8 1303.22 3
-15 3 6 50299.7 1959.68 2
3 12 6 50499.1 1704.66 3
-15 3 9 3791.76 928.759 4
3 12 9 2545.82 1056.32 2
3 12 9 2714.71 895.089 4
-15 3 9 3569.23 913.218 2
3 12 9 4298.34 776.907 3
12 -15 9 4547.4 1030.31 1
12 -15 9 4283.6 692.59 2
2 12 -4 66776.3 2243.16 3
2 12 -4 59690.9 1445.27 2
12 -14 -4 59163.9 1565.52 3
2 12 -4 63282.3 1666.15 4
12 -14 -4 65269.5 2405.89 1
2 12 -1 146463 3030.13 3
-14 2 -1 151161 2459.25 4
12 -14 -1 147881 2257.05 2
12 -14 -1 146127 2479.32 4
2 12 -1 140669 2449.58 4
2 12 -1 141055 2685.5 1
12 -14 -1 139566 2900.54 1
2 12 -1 148357 2093.72 2
12 -14 2 100643 1240.22 2
2 12 2 106482 2400.47 3
-14 2 2 103896 2233.48 4
-14 2 2 97749.8 2121.2 1
-14 2 2 97114.9 2039.51 3
2 12 2 102687 2072.76 1
-14 2 2 102885 2278.15 2
12 -14 2 102994 2354.27 1
12 -14 5 188525 3497.98 1
2 12 5 192723 3591.46 4
-14 2 5 188407 3453.13 4
-14 2 5 179182 2548.06 3
-14 2 5 194032 3444.66 2
12 -14 5 182087 2310.51 2
2 12 5 179075 3018.43 3
2 12 5 176733 3643.07 2
2 12 8 38188.5 1546.97 3
2 12 8 40515.3 2197.84 2
12 -14 8 39731.3 1562.47 2
-14 2 8 37771.7 1875.56 4
-14 2 8 39158.1 1919.37 2
2 12 8 36796.2 1921.89 4
12 -14 8 39243.4 2028.87 1
2 12 11 57810.7 2757.48 4
-14 2 11 59774.1 2759.19 2
2 12 11 58217.5 3032.12 2
12 -14 11 59542.6 2295.47 2
12 -14 11 58564.8 2863.72 1
-14 2 11 58595.8 2647.06 4
12 -14 11 62211.2 2461.39 3
12 -13 -5 2291 433.455 3
1 12 -5 2296.17 459.032 2
12 -13 -5 1993.86 739.426 1
1 12 -5 1832.44 409.282 4
1 12 -2 2695.59 871.694 3
1 12 -2 4176.48 648.58 1
12 -13 -2 2965.31 549.945 4
12 -13 -2 3778.1 553.835 2
1 12 -2 3759.35 508.618 4
1 12 -2 4269.14 381.689 2
12 -13 -2 3104.03 733.485 1
12 -13 1 31747.4 1357.76 1
-13 1 1 30370.8 1035.57 1
-13 1 1 32865.1 1251.82 4
12 -13 1 30310.9 819.512 2
-13 1 1 30054.2 1172.07 3
12 -13 1 31210.7 919.101 4
-13 1 1 32159.5 1310.1 2
1 12 1 28439.3 1376.66 3
1 12 1 29412.8 1171.25 1
12 -13 4 14578.2 613.263 2
1 12 4 13587.9 938.54 1
1 12 4 14000.6 1052.55 4
-13 1 4 15196.4 793.798 3
-13 1 4 16397 1046.01 4
12 -13 4 13194.6 959.243 1
1 12 4 14531.7 1103.35 2
-13 1 4 14250 943.612 2
1 12 4 15728.7 979.713 3
1 12 7 13145.7 1327.26 2
-13 1 7 13316 1146.39 4
12 -13 7 13944.4 1221.4 1
12 -13 7 14446.9 937.746 2
-13 1 7 14525.5 721.162 3
1 12 7 13639.8 1210.24 4
-13 1 7 15177.2 1216.45 2
1 12 7 12804.4 956.112 3
12 -13 10 5766.4 1126.05 1
12 -13 10 5753.66 916.922 2
12 -13 10 5948.38 944.679 3
1 12 10 6516.52 1152.17 4
1 12 10 7303.59 1396.26 2
-13 1 10 4727.96 984.609 2
-13 1 10 5850.02 1035.87 4
0 12 -6 42594.3 1358.98 4
12 -12 -6 37907 624.576 3
0 12 -6 44925.2 1433.04 2
12 -12 -6 39195.5 698.581 3
0 12 -3 11975.3 1143.49 3
12 -12 -3 14242.1 969.984 2
0 12 -3 14755.6 765.089 4
0 12 -3 14408.4 587.706 2
12 -12 -3 14093.9 1110.13 1
0 12 0 33770.8 1564.77 3
12 -12 0 33492.8 973.792 2
-12 0 0 34074.1 1360.54 2
12 -12 0 35053.3 1086.01 4
12 -12 0 35093.1 1375.71 1
0 12 0 34882.6 1276.16 1
-12 0 0 34800 1244.71 4
-12 0 0 33749.9 781.38 1
-12 0 0 37328 1306.74 3
0 12 3 5897.08 684.651 1
-12 0 3 4780.13 651.982 4
0 12 3 4517.94 695.968 2
-12 0 3 6365 590.638 3
12 -12 3 4193.16 621.42 1
0 12 3 6159.46 749.039 4
-12 0 3 5596.86 657.175 2
12 -12 3 5287.03 395.771 2
0 12 3 6216.06 770.396 3
-12 0 6 63093.1 1476.46 3
0 12 6 63537 1753.82 3
12 -12 6 64996.8 1721.58 2
-12 0 6 65508.7 2089.12 4
12 -12 6 65222.1 2150.28 1
0 12 6 64834.3 2351.81 2
-12 0 6 63849.4 2082.21 2
0 12 6 64519 2228.16 4
-12 0 9 1204.96 791.082 2
0 12 9 1651.3 1071.67 2
12 -12 9 1703.43 890.636 1
12 -12 9 2223.35 765.562 3
-12 0 9 2345.89 799.818 4
12 -12 9 769.064 635.231 2
0 12 9 1991.44 620.794 3
0 12 9 484.08 785.325 4
0 12 12 4610.02 1161.94 4
0 12 12 2686.46 1314.33 2
-12 0 12 5827.59 1104.25 4
12 -12 12 3834.13 1159.81 1
-12 0 12 3847.36 1008.96 2
12 -12 12 3839.65 959.83 2
-1 12 -7 67211.7 1688.05 4
-1 12 -7 68074.7 1898.49 2
-1 12 -4 149819 1880.62 2
12 -11 -4 149176 1825.72 3
-1 12 -1 427194 4439.41 1
-11 -1 -1 439861 4253.92 3
12 -11 -1 441542 4600.45 1
12 -11 -1 447352 3787.27 2
12 -11 -1 438025 4015.61 4
-1 12 -1 431835 2815.06 2
12 -11 2 141787 1501.89 4
-11 -1 2 145608 2557.01 4
-11 -1 2 130066 2218.56 3
-1 12 2 140395 2404.95 2
12 -11 2 148285 1801.2 2
12 -11 2 149902 2504.92 1
-11 -1 2 136999 2431.56 2
-1 12 2 143344 2511.49 1
-1 12 2 143987 2645.75 3
12 -11 5 115648 2159.67 2
-1 12 5 111032 2819.47 2
-11 -1 5 114991 2001.45 3
-11 -1 5 112524 2509.91 2
-11 -1 5 113016 2546.96 4
12 -11 5 117724 2562.14 1
-1 12 5 114934 2709.24 4
-1 12 5 114137 2227.21 3
-1 12 8 24534.9 1760.91 2
12 -11 8 25631.3 1390.98 2
-1 12 8 23632.1 1553.4 4
12 -11 8 24432.5 1556.89 1
-11 -1 8 25032.9 1524 2
-11 -1 8 24517.1 1461.37 4
-1 12 8 22959.3 1079.77 3
12 -11 8 22449.3 1347.09 3
-11 -1 8 23331.6 865.141 3
-1 12 11 98577 3488.3 4
12 -11 11 99016.5 3161.11 2
-1 12 11 104853 3875.23 2
12 -11 11 98302.9 3468.76 1
12 -11 11 97948.3 2899.64 3
-11 -1 11 99378 3180.98 4
-11 -1 11 99019.9 3332.79 2
-2 12 -8 3196.79 537.586 4
12 -10 -5 40038.4 946.824 3
-2 12 -5 43347.9 1160.54 2
-2 12 -5 42576.1 1155.04 4
12 -10 -5 41130.4 805.008 3
12 -10 -2 33078.8 1235.29 2
-2 12 -2 37844 1642.93 3
12 -10 -2 34240.1 1271.86 4
-2 12 -2 33988.3 1382.96 1
-2 12 -2 36545.4 668.055 2
12 -10 -2 34680.8 1476.77 1
-10 -2 -2 34857.3 1247.86 3
-2 12 -2 34172.8 1010.36 4
-2 12 1 8554.3 959.441 3
12 -10 1 10825.8 557.542 4
-10 -2 1 10150.7 767.116 4
-10 -2 1 9476.17 705.498 3
-2 12 1 9652.53 657.191 2
12 -10 1 9396.54 533.013 2
12 -10 1 10720.6 802.942 1
-2 12 1 10134.8 796.707 1
-10 -2 1 10445.8 802.578 2
-2 12 4 17696.9 976.773 3
-2 12 4 15190 1044.79 1
-10 -2 4 16262 985.087 4
-10 -2 4 15221.3 817.589 3
-2 12 4 17275.7 1088.92 4
-2 12 4 17214.8 1109.06 2
12 -10 4 16375.9 955.879 1
-10 -2 4 14980.8 930.935 2
12 -10 7 25909.7 1443.75 1
-10 -2 7 27859.4 1461.75 2
-2 12 7 31551.4 1685.23 4
-2 12 7 33074.1 1875.3 2
-10 -2 7 30984.5 1514.4 4
12 -10 7 29967.6 1462.36 3
-10 -2 7 29906.9 1038.68 3
-2 12 7 28778.4 1137.22 3
12 -10 7 25947.2 1355.2 2
12 -10 10 2079.94 701.631 3
-2 12 10 1531.81 870.801 4
12 -10 10 2044.94 799.725 2
-2 12 10 2386.56 1089.38 2
12 -10 10 3174.13 949.293 1
-10 -2 10 2585.78 810.12 4
-10 -2 10 2542.73 878.498 2
-3 12 -6 68817.6 1631.34 2
-3 12 -6 67483.4 1399.47 4
12 -9 -3 21742.6 1085.37 2
-3 12 -3 20249.8 516.108 2
-3 12 -3 20818.3 742.664 4
12 -9 -3 22284.6 781.685 3
-9 -3 -3 20253.4 994.673 3
12 -9 -3 18246.1 1033.82 4
12 -9 -3 21198.6 1289.04 1
-3 12 0 34193.3 1272.37 1
-3 12 0 34161.9 852.337 2
12 -9 0 34517.7 1185.32 1
-3 12 0 33902.1 1553.8 3
12 -9 0 35159.2 1032.63 4
12 -9 0 33783.5 1003.91 2
-9 -3 0 32949.4 1164.86 3
-9 -3 0 34564.9 746.823 1
12 -9 3 12904 696.065 2
-9 -3 3 13000.6 767.257 3
-9 -3 3 14171.9 907.656 4
-3 12 3 14158.2 997.03 4
-3 12 3 15001.8 970.648 2
12 -9 3 12021.1 394.671 4
-3 12 3 14205.7 967.764 3
-9 -3 3 12897.1 806.765 2
12 -9 3 14193.7 825.493 1
-3 12 3 12935.8 938.941 1
-3 12 6 33188.7 1180.48 3
-3 12 6 34845.2 1726.6 2
-3 12 6 33956.2 1654.72 4
12 -9 6 33909.7 1489.19 1
12 -9 6 33767.1 1457.09 3
-9 -3 6 34348.4 1465.21 4
-9 -3 6 35060.4 1467.64 2
12 -9 6 34399.1 1424.31 2
-9 -3 6 28260.8 1074.19 3
-9 -3 9 5408.03 878.769 4
12 -9 9 3186.86 849.303 2
-3 12 9 6366.2 1044.08 4
12 -9 9 5300.83 832.461 3
-9 -3 9 5468.02 942.957 2
12 -9 9 4906.65 932.429 1
-3 12 9 4921.55 1138.79 2
12 -9 12 10686.4 1461.63 1
-3 12 12 13090.4 1598.82 4
-9 -3 12 9851.84 1322.11 2
12 -9 12 10170.1 1384.84 2
-3 12 12 11845.5 1730.85 2
-9 -3 12 8165.61 1166.9 4
-4 12 -7 75403.1 1468.89 4
-8 -4 -4 109504 2156.3 3
-4 12 -4 111610 1366.63 2
12 -8 -4 109769 1471.03 3
-4 12 -4 114880 1510.57 4
-4 12 -1 370948 4065 1
-4 12 -1 354940 1802.58 2
-8 -4 -1 374429 2173.06 1
-8 -4 -1 391820 3857.49 3
12 -8 -1 371213 3618.1 4
12 -8 -1 366757 3803.71 1
12 -8 -1 371581 3429.78 3
12 -8 -1 381800 3517.65 2
-4 12 2 32048.9 1335.82 3
-8 -4 2 34098.4 1151.26 2
-4 12 2 35024.2 1308.12 4
-4 12 2 31519.7 1143.37 2
-8 -4 2 31765.2 1187.62 4
12 -8 2 32889.2 786.657 4
-8 -4 2 30546.3 1133.22 3
12 -8 2 31908.3 1254.83 3
-8 -4 2 29204.3 1173.02 1
-4 12 2 32429.6 1292.91 1
12 -8 2 29750.6 970.711 2
12 -8 2 33256.4 1062.95 1
-4 12 5 273414 3108.54 3
12 -8 5 262678 1723.8 4
-8 -4 5 274296 3163.11 3
12 -8 5 272162 3511.83 1
12 -8 5 260511 1638.9 4
12 -8 5 262775 3745.78 3
-8 -4 5 264703 3647 4
-4 12 5 278869 4162.96 4
-8 -4 5 268837 3560.67 2
-4 12 5 269579 4145.74 2
-8 -4 8 2509.2 510.106 3
-8 -4 8 1074.44 586.973 4
12 -8 8 1586.09 272.998 4
12 -8 8 1244.26 593.081 3
12 -8 8 922.547 683.332 1
-4 12 8 790.128 740.864 4
-4 12 8 1909.38 894.291 2
-8 -4 8 1784.7 660.742 2
12 -8 8 510.306 716.432 2
-4 12 11 69794.2 2944 4
12 -8 11 57599.8 2620.23 1
12 -8 11 64585.3 2760.74 2
-8 -4 11 69028.6 2703.03 2
-8 -4 11 65882.9 2481.89 4
12 -8 11 65358.7 2304.02 3
-4 12 11 67205.2 3094.22 2
-5 12 -8 2185.62 381.781 4
-5 12 -5 240574 2053.14 4
-7 -5 -5 236071 3173.21 3
12 -7 -5 235085 1842.49 3
12 -7 -2 20814.7 989.71 2
-7 -5 -2 20371.6 628.612 1
12 -7 -2 22283.2 1039.9 4
12 -7 -2 21680.2 830.601 3
-7 -5 -2 21486.6 988.182 3
12 -7 -2 23933.8 1187.32 1
-5 12 -2 21001.6 1132.69 1
-7 -5 1 122237 2073.63 2
-7 -5 1 122056 1844.19 1
-5 12 1 115414 1724.31 2
-5 12 1 125054 2114.77 4
12 -7 1 126221 1841.58 1
-7 -5 1 124942 2153.64 4
12 -7 1 120219 2182.69 3
12 -7 1 120334 1715.69 4
-7 -5 1 124136 2150.3 3
12 -7 1 121743 1893.57 2
-5 12 1 125061 2323.64 1
-5 12 4 39003.2 1510.43 2
-5 12 4 39847.7 1283.38 3
-7 -5 4 37093.1 1247.63 2
12 -7 4 45080 1529.04 3
12 -7 4 44654.5 1292.7 1
12 -7 4 46296.1 833.304 4
-5 12 4 41071.4 1590.63 4
-7 -5 4 41559 1410.64 4
-7 -5 4 41365.5 1293.72 3
12 -7 7 99101.2 2533.99 1
-5 12 7 102311 2852.58 4
12 -7 7 99429.7 2431.96 3
-7 -5 7 100683 2444.53 4
-7 -5 7 99109.3 2466.84 2
-5 12 7 106892 3066.63 2
12 -7 7 102719 2694.55 2
-7 -5 7 100322 2055.83 3
12 -7 7 99116.9 1503.53 4
-5 12 10 5578.83 1115.1 4
-5 12 10 3431 1093.25 2
-7 -5 10 4091.27 807.185 4
12 -7 10 5552.38 1024.71 1
12 -7 10 5436.18 864.316 3
-7 -5 10 4947.02 918.258 2
12 -7 10 4645.7 995.972 2
-6 -6 -6 68455.1 1769.89 3
12 -6 -6 68097.2 867.456 3
-6 12 -3 34879.5 1476.49 1
12 -6 -3 32107.8 1318.89 4
-6 -6 -3 36533.2 1049.6 1
-6 -6 -3 34106 1198.77 3
12 -6 -3 33548.1 952.479 3
-6 12 -3 33890.6 707.788 4
12 -6 -3 36295.7 1340.28 2
12 -6 0 278204 2950.32 2
-6 12 0 272177 2806.84 4
12 -6 0 278019 2764.61 1
12 -6 0 285008 2893.33 4
-6 12 0 287303 2052.08 2
-6 -6 0 277994 2471.76 1
-6 12 0 280416 3424.68 1
12 -6 0 278776 3093 3
-6 -6 0 274321 3208.17 3
12 -6 3 -52.4445 408.39 2
-6 12 3 750.666 552.052 4
-6 -6 3 395.453 538.135 1
-6 12 3 756.693 502.959 2
12 -6 3 361.589 231.935 4
-6 -6 3 915.123 434.723 4
-6 12 3 60.0351 582.833 1
12 -6 3 914.993 525.304 3
-6 -6 3 299.155 428.302 3
-6 -6 3 542.208 379.842 2
12 -6 3 669.35 343.462 1
-6 -6 6 77557.3 1997.49 4
12 -6 6 77662.5 2018.92 1
12 -6 6 79785.7 1402.79 4
-6 12 6 79094 2396.99 4
12 -6 6 75391.2 2066.6 3
-6 12 6 75634.3 2424.67 2
-6 -6 6 79164.6 2007.1 2
-6 -6 6 72327 1796.66 3
12 -6 9 12417.4 1054.05 3
12 -6 9 12907.8 1233.97 1
12 -6 9 11811.3 733.565 4
-6 12 9 10797.2 1284.49 2
-6 -6 9 13870.7 1084.59 4
-6 -6 9 11428.7 1104.62 2
-6 12 9 13623.8 1328.76 4
12 -6 9 13802.1 1376.98 2
12 -6 12 10734.7 1402.76 1
12 -6 12 10777.3 1522.7 2
-6 12 12 10317.1 1564.19 2
-6 12 12 12555.5 1571.65 4
-6 -6 12 11076.5 1157.56 4
-6 -6 12 9454.64 1790.02 1
-6 -6 12 12448.9 1402.06 2
-7 12 -7 83496.5 1063.46 4
-5 -7 -7 82139.4 1960.03 3
12 -5 -4 37122.8 929.539 3
-5 -7 -4 37034.7 1241.87 3
12 -5 -1 108752 1985.37 2
12 -5 -1 106166 1976.08 1
-5 -7 -1 105473 1651.5 1
12 -5 -1 111229 1993.92 4
-7 12 -1 107958 2200.27 1
12 -5 -1 102974 1816.43 3
-5 -7 -1 113020 2073.22 3
-7 12 -1 106837 1552.37 4
12 -5 2 27820.5 772.292 1
-5 -7 2 28572.9 1101.39 4
-5 -7 2 29568 1160.29 1
-7 12 2 29446.4 1167.75 4
-7 12 2 27444.1 1037.74 2
12 -5 2 28447.4 859.5 4
12 -5 2 25749.3 1124.71 3
-5 -7 2 29429.7 1133.76 3
-7 12 2 26669 1267.48 1
12 -5 2 27907.1 1068.53 2
-5 -7 2 26425.9 955.911 2
-5 -7 5 250860 4298.26 1
-7 12 5 240966 3848.32 2
-5 -7 5 240148 3265.66 4
-7 12 5 239990 3904.75 4
12 -5 5 241313 2425.52 4
12 -5 5 238141 3471.74 3
-5 -7 5 237936 3100.83 2
12 -5 5 241013 2994.67 1
-5 -7 5 241574 3270.74 3
12 -5 8 4575.73 719.772 3
12 -5 8 4561.56 535.331 4
12 -5 8 4667.15 970.964 2
12 -5 8 3282.36 750.554 1
-7 12 8 4812.64 1032.14 2
-5 -7 8 5123.29 708.536 4
-5 -7 8 4917.62 732.715 2
-7 12 8 6084.59 983.909 4
-5 -7 8 5090.31 698.612 3
-5 -7 8 5416.58 1193.63 1
-5 -7 11 56943.1 3108.2 1
12 -5 11 56820.4 2553.63 1
-7 12 11 57240 2710.94 4
12 -5 11 57663.5 2126.99 3
-7 12 11 59782.9 2908.21 2
-5 -7 11 55377.4 2147.25 4
-5 -7 11 55674.1 2363.38 2
12 -5 11 54564.7 2668.01 2
-4 -8 -8 10133.2 799.095 3
-4 -8 -5 208777 2879.83 3
12 -4 -5 200499 2108 3
-8 12 -2 59473.1 965.455 4
-4 -8 -2 63676.2 1601.69 3
12 -4 -2 60680.2 1630.16 4
12 -4 -2 61432 1391.01 3
12 -4 -2 60103.4 1602.1 2
-4 -8 -2 59899.4 1419.4 1
-8 12 -2 58586 1702.34 1
-8 12 1 364086 4078.36 1
-4 -8 1 362917 3467.68 1
-8 12 1 360692 3519.82 4
12 -4 1 365050 2408.42 1
-8 12 1 365844 2962.63 2
12 -4 1 372748 3212.81 4
12 -4 1 362199 3719.04 3
-4 -8 1 366147 3822.01 3
12 -4 1 369434 3606.06 2
12 -4 4 104635 1647.28 4
-8 12 4 99558.5 2387.15 4
-8 12 4 98693.8 2306.88 2
12 -4 4 102911 1644.41 1
-4 -8 4 97845.5 1977.91 4
12 -4 4 105167 2256.32 3
-4 -8 4 101552 1821.17 2
-4 -8 4 96766.6 2449.19 1
-4 -8 4 98665.4 2132.19 3
-4 -8 7 113526 3382.17 1
12 -4 7 109766 2081.46 4
12 -4 7 113507 2570.47 1
-8 12 7 115366 3101.81 2
-4 -8 7 107966 2422.71 2
12 -4 7 108091 2499.93 3
12 -4 7 109394 2956.79 2
-8 12 7 110777 2998.95 4
-4 -8 7 103689 2360.59 3
12 -4 10 4945.59 1143.41 2
-4 -8 10 3202.92 690.755 4
-4 -8 10 4740.84 1236.21 1
12 -4 10 3858.38 643.715 4
-8 12 10 3645.47 998.327 4
12 -4 10 3811.77 914.526 1
-8 12 10 3891.15 1079.09 2
-4 -8 10 4537.63 846.617 2
12 -4 10 3846.5 767.496 3
-3 -9 -6 40321.4 1312.43 3
12 -3 -6 46549.1 1074.73 3
12 -3 -3 1792.27 388.302 3
-3 -9 -3 772.544 403.187 3
-3 -9 -3 2182.57 520.265 1
-9 12 -3 1378.99 501.227 1
12 -3 0 42985.1 1238.09 4
-9 12 0 44633 886.873 2
-9 12 0 41694.8 1110.99 4
12 -3 0 44820.1 1325.31 3
-9 12 0 42427.3 1391.3 1
-3 -9 0 40213.1 1196.39 1
12 -3 0 45475.6 1339.74 2
-3 -9 0 43027.5 1367.38 3
12 -3 3 49946.7 1214.75 4
-9 12 3 47410.9 1465.74 2
-3 -9 3 46851.5 1632.54 1
-3 -9 3 49197.7 1379.85 4
12 -3 3 49458.2 878.279 1
-9 12 3 50354 1631.58 4
12 -3 3 49282 1534.45 3
-3 -9 3 51076.2 1216.17 2
-3 -9 3 47128.3 1557.89 3
12 -3 6 40465.9 1390.23 1
-9 12 6 37355.8 1698.07 4
-9 12 6 38001.4 1739.42 2
12 -3 6 41703.5 1322.66 4
-3 -9 6 44177.3 2017.65 1
-3 -9 6 39912.6 1382.71 4
12 -3 6 39916.9 1527.76 3
-3 -9 6 38713.5 1320.27 2
-3 -9 9 10263 915.088 4
-9 12 9 12346.9 1329.47 4
12 -3 9 10762 882.958 4
12 -3 9 10532.2 1101.32 1
-9 12 9 11585.6 1364.83 2
-3 -9 9 9437.25 1404.93 1
-3 -9 9 12362.4 1046.63 2
12 -3 9 9863.07 970.839 3
12 -3 9 10256.1 1294.75 2
12 -3 12 9789.35 1364.74 1
-9 12 12 9854.76 1592.9 2
-9 12 12 8636.55 1357.81 4
-3 -9 12 8619.22 1725.27 1
-3 -9 12 7175.69 1103.63 2
12 -3 12 8520.99 1442.04 2
12 -2 -7 17382.7 737.708 3
-2 -10 -7 14120.7 843.265 3
-2 -10 -4 10822.2 873.246 1
-2 -10 -4 11115.5 733.666 3
12 -2 -4 10691.8 634.804 3
12 -2 -1 16419.1 867.291 4
-2 -10 -1 16710.3 919.24 1
-10 12 -1 17596 656.206 4
-10 12 -1 16971 959.921 1
12 -2 -1 17885.6 889.076 3
12 -2 -1 15628.6 856.237 2
-2 -10 -1 16724.6 907.979 3
-10 12 -1 16817.3 540.741 2
12 -2 2 19436 1002.12 2
-10 12 2 21288.1 921.732 2
12 -2 2 21710.9 1058.28 3
-10 12 2 20792.8 1035.34 4
-2 -10 2 19873.8 1033.24 1
12 -2 2 21450.7 861.699 4
-2 -10 2 20959.6 778.261 2
-10 12 2 19373.7 1091.93 1
-2 -10 2 20838.2 1101.58 3
12 -2 5 44022.5 1200.53 1
-10 12 5 41908.9 1702.84 4
-10 12 5 40926.9 1642.36 2
12 -2 5 42220.7 1518.87 3
-2 -10 5 42049 1834.34 1
-2 -10 5 43836.9 1236.1 2
-2 -10 5 42157.8 1318.65 4
-10 12 8 6835.29 1080.87 2
12 -2 8 8946.39 931.951 1
12 -2 8 7928.11 797.939 4
-10 12 8 8208.3 1085.75 4
-2 -10 8 5726.39 1146.3 1
-2 -10 8 8663.81 803.161 4
-2 -10 8 6875.88 795.189 2
12 -2 8 5400.14 755.403 3
12 -2 8 7402.78 1122.68 2
-2 -10 11 19466 2014.76 1
12 -2 11 21605.8 1956.52 2
12 -2 11 21784.7 1655.93 1
-10 12 11 19990.3 1750.56 4
-10 12 11 23225.6 1909.13 2
-2 -10 11 22185.6 1348.31 4
-2 -10 11 20112.9 1456.02 2
12 -2 11 21654.4 1360.47 3
-1 -11 -8 38253.6 1255.96 3
12 -1 -5 81566.4 1657.11 3
-1 -11 -5 85295.5 2360.82 1
-1 -11 -5 87419.2 1869.27 3
-11 12 -2 173407 2837.74 1
-11 12 -2 174211 1539.39 4
12 -1 -2 172857 2786.27 2
-1 -11 -2 173832 2768.4 1
12 -1 -2 171799 2478.53 3
12 -1 -2 177967 2805.58 4
-1 -11 -2 170905 2656.73 3
12 -1 1 464838 4073.45 4
-11 12 1 470097 4684.35 1
-11 12 1 479004 4116.17 4
-11 12 1 482940 3626.94 2
-1 -11 1 485451 4434.45 1
-1 -11 1 476018 4745.15 3
12 -1 1 471741 4438.44 2
-11 12 4 91216.6 2295 4
-1 -11 4 90047.6 1536.61 2
-1 -11 4 88353.6 2398.3 1
12 -1 4 95800.8 2203.71 3
12 -1 4 97115.9 1320.82 1
-11 12 4 93758.5 2263.89 2
12 -1 4 88471.6 1435.52 1
12 -1 4 95911.8 1915.63 4
12 -1 7 137771 3478.56 2
12 -1 7 125870 2875.4 1
-1 -11 7 144316 3769.01 1
12 -1 7 140334 2719.17 4
-1 -11 7 142233 2538.66 4
-11 12 7 137610 3375.88 4
-1 -11 7 148717 2598.31 2
12 -1 7 141065 2877.64 3
12 -1 7 123695 2560.14 1
-11 12 7 151814 3552.11 2
12 -1 10 22503 1343.17 3
12 -1 10 25523.2 1620.43 1
12 -1 10 25885.4 1969.59 2
-1 -11 10 22988.2 1254.41 4
-11 12 10 22345.9 1727.25 4
12 -1 10 26103.9 1453.21 4
-1 -11 10 24038.6 1433.68 2
-11 12 10 20270.5 1730.24 2
-1 -11 10 22183.1 1959.88 1
0 -12 -6 67469.1 1654.04 3
12 0 -6 71742.5 1676.04 3
0 -12 -3 5050.5 715.46 1
-12 12 -3 4329.3 619.887 1
12 0 -3 4387.83 532.748 3
0 -12 -3 5443.25 622.567 3
-12 12 0 25398.8 919.282 4
12 0 0 26736.1 1090.19 4
12 0 0 25671.4 1090.73 2
12 0 0 24388.8 1095.71 3
-12 12 0 27415.3 850.709 2
0 -12 0 24855.3 1189.48 3
-12 12 0 26773.4 1169.89 1
0 -12 0 28055.1 1228.15 1
-12 12 3 14441.2 896.518 2
-12 12 3 14050.6 988.169 4
0 -12 3 14248 599.716 2
12 0 3 12981.5 919.752 3
12 0 3 14549 800.7 4
0 -12 3 15310 1040.02 1
12 0 6 43575.5 1348.64 1
-12 12 6 40691.3 1798.04 2
0 -12 6 40776.4 2026.73 1
12 0 6 44724.1 1481.22 1
-12 12 6 42156.5 1860.16 4
0 -12 6 40934.2 1222.78 2
12 0 6 42933.1 1599.61 3
0 -12 6 41858.3 1336.23 4
12 0 9 4190.32 788.889 4
12 0 9 3715.42 1154.73 2
-12 12 9 6021.56 1110.28 2
0 -12 9 5581.59 1238.49 1
0 -12 9 4279 634.599 4
12 0 9 4790.43 787.441 3
-12 12 9 5670.18 1067.56 4
0 -12 9 4814.39 725.668 2
12 0 9 3864.17 819.008 1
12 0 12 2791.2 990.568 1
12 0 12 3665.74 1261.62 2
0 -12 12 3793.86 1269.55 1
0 -12 12 4455.72 918.746 2
-12 12 12 1396.13 954.26 4
-12 12 12 3684.46 1275.72 2
12 1 -7 9065.09 841.944 3
1 -13 -7 7359.86 638.49 3
1 -13 -4 468.371 444.589 3
-13 12 -4 712.581 483.498 1
1 -13 -4 -609.077 601.913 1
12 1 -4 235.303 408.556 3
-13 12 -1 32452.6 917.642 4
1 -13 -1 34130.1 1367.27 1
1 -13 -1 32729.6 1346.77 3
12 1 -1 32966 1256.38 4
12 1 -1 30963 1204.48 2
-13 12 -1 33402.6 1264.98 1
-13 12 -1 32170.3 951.934 2
-13 12 2 4155.12 579.954 4
12 1 2 5788.34 615.387 4
-13 12 2 5582.53 600.04 2
1 -13 2 5260.85 751.279 1
12 1 2 7039.22 755.517 3
-13 12 2 5507.63 695.136 1
12 1 5 5099.25 468.396 1
1 -13 5 5072.78 891.481 1
-13 12 5 4836.88 779.047 4
-13 12 5 4883.19 768.448 2
1 -13 5 6005.28 456.611 2
12 1 5 5991.57 746.903 3
12 1 5 5655.17 495.112 1
1 -13 8 7075.23 684.763 4
12 1 8 7550.5 907.66 4
-13 12 8 7568.97 1041.69 4
-13 12 8 5958.62 1010.8 2
12 1 8 7411.85 1198.37 2
1 -13 8 6118.55 693.871 2
12 1 8 7604.45 880.732 3
1 -13 8 7355.72 1133.78 1
12 1 11 747.687 1032.46 2
-13 12 11 1366.14 930.09 4
1 -13 11 4132.28 1416.77 1
12 1 11 1091.83 765.136 4
-13 12 11 2463.33 1141.43 2
1 -13 11 2047.02 714.266 2
12 1 11 2080.78 708.933 3
12 1 11 2646.11 864.87 1
2 -14 -5 107065 2974.59 1
2 -14 -5 109279 2144.61 3
12 2 -5 109853 2219.55 3
-14 12 -2 124339 1513.22 4
12 2 -2 126806 2391.46 3
-14 12 -2 120119 2372.74 1
2 -14 -2 122329 2689.1 1
2 -14 -2 126093 2477.05 3
2 -14 1 147076 2783.44 1
-14 12 1 149850 2728.39 1
-14 12 1 148838 2432.39 4
12 2 1 139213 2488.98 4
-14 12 1 148287 2274.72 2
12 2 1 141113 2613.55 3
12 2 4 17034.3 492.537 1
-14 12 4 18109.1 1146.36 4
2 -14 4 16951.1 1233.16 1
-14 12 4 19749.5 1146.53 2
12 2 4 15701.5 1020.43 3
12 2 4 15113.1 484.429 1
2 -14 4 17171 575.352 2
12 2 7 101338 2367.67 1
2 -14 7 109471 3321.55 1
-14 12 7 102875 2981.41 2
-14 12 7 105539 3038.86 4
2 -14 7 106072 2001.13 2
12 2 7 100494 2535.94 4
12 2 7 106014 2602.22 3
2 -14 10 8540.89 1488.93 1
12 2 10 8380.25 1058.07 4
12 2 10 6122.34 1339.04 2
-14 12 10 7226.45 1209.84 2
2 -14 10 6388.81 838.196 2
12 2 10 8316.9 992.842 3
-14 12 10 8075.36 1290.47 4
3 -15 -6 29907.3 1173.39 3
3 -15 -6 32875.8 1890.65 1
12 3 -6 34906.1 1481.98 3
3 -15 -3 25356.3 1415.01 1
-15 12 -3 23867.1 594.613 4
-15 12 -3 24498.3 1148.15 1
12 3 -3 22731.5 1067.79 3
3 -15 -3 23446.8 1121.38 3
3 -15 0 7636.03 879.431 1
-15 12 0 6439.59 562.526 4
12 3 0 7045.84 751.792 3
-15 12 0 7617.96 622.3 2
-15 12 0 6322.67 678.927 1
-15 12 3 31706.2 1365.31 4
-15 12 3 32580.9 1341.11 2
3 -15 3 32191.3 1507.44 1
12 3 3 30755 1344.6 3
12 3 6 16627.5 1131.47 3
-15 12 6 14423.7 1239.6 4
3 -15 6 19600.4 1467.21 1
-15 12 6 15535.1 1232.98 2
3 -15 6 18014 728.591 2
12 3 6 17625.7 877.875 1
-15 12 9 6411.37 1099.75 4
12 3 9 5765.43 826.382 3
12 3 9 7101.71 985.575 4
3 -15 9 5809.67 1180.74 1
12 3 9 8207.58 1278.91 2
3 -15 9 7435.36 750.798 2
-15 12 9 6498.71 1117.08 2
12 4 -7 34209.7 1578.5 3
4 -16 -7 34403 1236.86 3
4 -16 -4 32084.4 1709.23 1
-16 12 -4 28063.4 1312.38 1
4 -16 -4 30598 1276 3
12 4 -4 32494.4 1354.43 3
-16 12 -1 23737.7 1016.31 2
-16 12 -1 23139 870.996 4
4 -16 -1 25064.6 1360.96 1
-16 12 -1 22054.4 1068.56 1
12 4 -1 23832.5 1192.72 3
-16 12 2 25871.6 1230.44 4
-16 12 2 25869.1 1133.07 2
4 -16 2 25660.5 1363.15 1
12 4 2 25559.6 1262.3 3
4 -16 5 10672.1 1153.3 1
12 4 5 11034 579.088 1
-16 12 5 12481.9 1058.41 2
12 4 5 12902.1 993.41 3
4 -16 5 11452.9 460.693 2
12 4 8 15196.2 1233.62 4
12 4 8 16786.3 1601.13 2
-16 12 8 14033.9 1337.91 4
4 -16 8 14788.3 1530.41 1
-16 12 8 13610.3 1367.97 2
4 -16 8 14468.2 836.921 2
12 4 8 13544.1 1100.53 3
12 4 11 3465.24 893.984 3
12 4 11 2526.4 1312.29 2
12 4 11 1289.77 827.119 4
-16 12 11 1739.2 1063.45 4
-16 12 11 1536.22 1006.26 2
4 -16 11 1329.44 1196.47 1
12 5 -8 48681.3 1899.31 3
12 5 -5 142269 2890.05 3
5 -17 -5 136131 2602.61 3
5 -17 -5 142457 3632.45 1
-17 12 -2 31553.9 933.366 4
5 -17 -2 31350.6 1595.79 1
-17 12 -2 31620.2 1246.92 1
12 5 -2 32118.9 1377.12 3
12 5 1 111355 2529.78 3
-17 12 1 105470 2355.57 1
-17 12 1 109892 2233.98 4
-17 12 1 111609 2241.48 2
5 -17 1 106091 2633.33 1
12 5 4 31273.8 681.242 1
-17 12 4 30460.5 1508.8 4
5 -17 4 33244.3 1669.39 1
-17 12 4 29020.6 1424.06 2
12 5 4 30638.3 1441.52 3
5 -17 7 58172.6 2563.73 1
12 5 7 56174.4 2002.02 3
5 -17 7 51767.1 1206.8 2
-17 12 7 56705.9 2366.43 4
-17 12 7 53313.5 2243.1 2
12 5 10 2410.67 1198.8 2
5 -17 10 3554.93 1278.95 1
12 5 10 3040.16 909.304 4
-17 12 10 3221 1061.7 4
-17 12 10 2992.08 1062.13 2
12 5 10 2656.23 841.37 3
12 6 -6 2029.32 805.683 3
6 -18 -6 1043.39 869.548 1
6 -18 -6 1444.19 522.208 3
-18 12 -3 53553.2 1616.67 1
12 6 -3 55293.3 1886.82 3
-18 12 -3 54986 1178.33 4
12 6 0 3715.57 735.501 3
-18 12 0 3037.4 497.316 4
6 -18 0 3228.33 762.117 1
-18 12 0 3379.28 568.412 2
-18 12 0 3772.53 586.469 1
12 6 3 87052.4 2337.24 3
-18 12 3 87214.5 2341.03 4
-18 12 3 83352.3 2200.67 2
6 -18 3 85962 2526.42 1
-18 12 6 794.375 734.976 4
12 6 6 1019.49 422.601 1
-18 12 6 1019.87 743.119 2
6 -18 6 687.681 849.003 1
12 6 6 1652.17 662.497 3
6 -18 6 1258.68 196.673 2
-18 12 9 32529.4 2013.31 2
12 6 9 28726.8 2098.13 2
-18 12 9 35267.1 2137.26 4
6 -18 9 29592.1 2106.31 1
12 6 9 25242.5 1671.32 4
12 6 9 30833.9 1681.24 3
12 7 -7 22977.1 1537.82 3
7 -19 -7 24182.9 1971.56 1
12 7 -4 32024.1 1541.5 3
7 -19 -4 35162.6 1957.08 1
-19 12 -1 17826.2 1043.33 2
-19 12 -1 15718.7 942.305 1
-19 12 -1 16089.7 842.355 4
12 7 -1 17050.9 1146.67 3
-19 12 2 67578.2 1975.52 4
-19 12 2 67212.4 1960.04 2
12 7 2 67772.9 2153.55 3
7 -19 2 72135.5 2359.43 1
-19 12 5 20684 1417.49 4
-19 12 5 17184.3 1242.8 2
7 -19 5 21670 1572.19 1
12 7 5 21321 1328.79 3
12 7 5 17701 735.62 1
12 7 8 20084.8 1393.36 3
-19 12 8 17742.3 1555.29 4
7 -19 8 21379.1 1812.21 1
12 7 8 17634.4 1739.8 2
-19 12 8 16228.6 1433.82 2
12 7 8 18925 1455.11 4
-19 12 11 3828.49 1106.67 2
12 7 11 3197.34 1069.64 4
7 -19 11 3272.23 1381.79 1
-19 12 11 4635.45 1199.85 4
12 7 11 3921.23 1422.72 2
12 8 -8 2440.06 905.009 3
12 8 -5 37170.1 1765.66 3
8 -20 -5 34209.6 2126.14 1
-20 12 -2 42096.3 1236.65 4
-20 12 -2 33782.4 1308.7 1
8 -20 -2 38962.7 1935.1 1
12 8 -2 47442.9 1841.81 3
8 -20 1 82616.2 2599.31 1
-20 12 1 84484.3 2115.62 4
12 8 1 85199.3 2420.35 3
-20 12 1 84110.4 2212.07 2
-20 12 4 9225.31 983.969 4
12 8 4 8096.48 973.219 3
8 -20 4 8386.8 1068.6 1
-20 12 4 7809.62 910.166 2
12 8 4 9068.59 500.655 1
8 -20 7 57305.8 2639.44 1
-20 12 7 54533.2 2357.71 2
-20 12 7 52954.4 2386.89 4
12 8 7 53399.4 2115.85 3
12 8 7 48595.2 2149.2 4
12 8 10 3880.53 1314.94 2
-20 12 10 2942.78 1107.89 2
12 8 10 3400.82 1016.92 4
-20 12 10 3166.72 1114.82 4
8 -20 10 4533.03 1336.19 1
12 8 10 4526.56 960.791 3
12 9 -6 8822.71 1213.71 3
9 -21 -6 8689.41 1395.9 1
-21 12 -3 49332.9 1549.11 1
12 9 -3 51708 2009.97 3
-21 12 0 3130.52 677.584 2
9 -21 0 2221.19 822.88 1
-21 12 0 1481.51 531.523 1
-21 12 0 1445.28 496.712 4
12 9 0 1820.85 750.357 3
-21 12 3 32386.8 1578.05 4
-21 12 3 30816.1 1526.58 2
12 9 3 32329.7 1625.92 3
9 -21 3 30582.4 1710.97 1
12 9 3 32022.4 898.517 1
-21 12 6 13051 1283.49 4
9 -21 6 13925.7 1443.4 1
-21 12 6 14770.6 1296.68 2
12 9 6 11269.3 1124.04 3
-21 12 9 22753.7 1853.43 4
12 9 9 21327 1708.28 4
9 -21 9 22186.4 1978.25 1
-21 12 9 22523.5 1792.17 2
12 9 9 22922.8 1570.48 3
12 9 9 23157.2 2002.29 2
12 10 -7 1288.7 938.004 3
10 -22 -7 958.706 1080.38 1
12 10 -4 16491.5 1332.49 3
10 -22 -4 14983.1 1554.88 1
-22 12 -4 11507.1 881.661 1
-22 12 -1 19849.5 1243.62 2
-22 12 -1 21125.9 1070.56 4
10 -22 -1 21847 1576.61 1
-22 12 -1 17923.3 1019.54 1
12 10 -1 22082.5 1460.02 3
-22 12 2 32592.3 1546.6 4
12 10 2 30823 1022.25 1
-22 12 2 31429.6 1563.47 2
12 10 2 34935.4 1757.52 3
10 -22 2 31337 1806.4 1
-22 12 5 28416.2 1674.9 4
10 -22 5 24225.7 1710.1 1
-22 12 5 25057.3 1578.41 2
12 10 5 28266.6 1647.45 3
-22 12 8 2456.03 922.778 4
10 -22 8 1215.6 931.787 1
12 10 8 1791.23 883.018 4
-22 12 8 2885.56 970.128 2
12 10 8 3553.29 906.667 3
12 10 8 1415.89 1159.81 2
12 11 -8 1074.98 981.255 3
11 -23 -8 705.652 1081.93 1
12 11 -5 22562.3 1638.06 3
11 -23 -5 25015.3 2061.1 1
-23 12 -2 26807.9 1150.03 1
-23 12 -2 26031.8 1149.64 4
11 -23 -2 25602.5 1788.83 1
-23 12 1 27617.6 1372.52 4
12 11 1 25767.1 1585.08 3
-23 12 1 28366.7 1493.88 2
12 11 4 8800.14 628.851 1
-23 12 4 8548.6 1005.82 4
-23 12 4 7825.34 1033.65 2
11 -23 4 7983.24 1187.02 1
12 11 4 9192 1143.72 3
-23 12 7 24376.5 1700.71 2
12 11 7 22327.7 1662.73 4
11 -23 7 24757.1 1846.19 1
12 11 7 24636.2 1629.4 3
-23 12 7 26333.3 1834.88 4
12 11 10 1225.56 906.461 3
12 11 10 1343.77 1004.58 4
-23 12 10 -1618.78 1180.08 4
-23 12 10 43.0035 1050.04 2
11 -23 10 1288.51 1202.78 1
12 11 10 744.166 1166.43 2
12 12 -6 17262.5 1710.18 3
12 -24 -6 15986.1 1867.26 1
-24 12 -3 16402.5 938.197 1
12 12 -3 17840.6 1487.83 3
12 -24 -3 18246.6 1717.96 1
-24 12 0 4944.38 845.764 2
-24 12 0 5775.03 754.727 4
12 -24 0 6593.41 1209.75 1
-24 12 0 4585.41 689.399 1
12 12 0 4824.7 968.932 3
12 12 3 24135.5 1027.89 1
-24 12 3 30289.2 1609.78 4
-24 12 3 27870.8 1573.33 2
12 12 3 26895.8 1664.69 3
12 -24 3 24122.2 1706.02 1
-24 12 6 2581.68 890.252 4
-24 12 6 1748.57 853.126 2
12 -24 6 3196.85 1069.36 1
12 12 6 2432.99 888.481 3
-24 12 9 23624.2 1963.73 4
12 12 9 18125.6 1774.73 4
12 -24 9 20883.8 1998.66 1
12 12 9 19349.8 2016.96 2
-24 12 9 20735.7 1836.51 2
12 12 9 21286.4 1775.22 3
12 13 -7 1469.1 1156.93 3
13 -25 -7 2874.26 1371.08 1
12 13 -4 3696.06 1088.57 3
13 -25 -4 5624.36 1398.53 1
-25 12 -1 2419.67 597.891 4
-25 12 -1 1904.59 554.977 1
13 -25 -1 2020.8 1059.54 1
12 13 -1 3805 1031.95 3
-25 12 2 7299.97 910.015 4
-25 12 2 7834.16 1026.03 2
13 -25 2 6596.71 1153.62 1
12 13 2 6195.45 688.696 1
12 13 2 7157.57 1117.67 3
-25 12 5 3187.42 881.847 4
12 13 5 2035.89 902.89 3
13 -25 5 2726.31 1055.78 1
-25 12 5 3303.32 956.029 2
12 13 8 3279.92 1293.75 2
-25 12 8 3283.8 1065.75 4
-25 12 8 1707.81 988.392 2
12 13 8 2801.44 1045 4
13 -25 8 2822.82 1156.92 1
12 13 8 3394.45 1003.12 3
11 13 -8 4265.12 1207.4 3
13 -24 -8 3249.41 1367.53 1
11 13 -5 3166.1 1141.67 3
13 -24 -5 5009.4 1295.54 1
-24 11 -2 17648.9 901.688 1
13 -24 -2 20012.1 1701.16 1
-24 11 -2 19142.8 1086.63 4
-24 11 1 7329.45 858.356 4
13 -24 1 5995.3 1168.05 1
11 13 1 5122.4 715.565 1
11 13 1 5058.57 999.892 3
-24 11 1 5590.95 906.118 2
-24 11 4 9463.17 1084.85 4
-24 11 4 7559.15 1012.6 2
11 13 4 8814.14 1161.44 3
13 -24 4 11136.5 1307.9 1
11 13 7 2861.29 1163 2
-24 11 7 4809.86 1090.98 4
11 13 7 2849.5 991.558 4
-24 11 7 3889.75 1016.27 2
13 -24 7 3717.98 1103.83 1
11 13 7 4804.03 1067.58 3
-24 11 10 3454.87 1202.46 2
11 13 10 6587.08 1597.66 2
10 13 -6 38437.7 2171.28 3
13 -23 -6 33309.4 2382.28 1
13 -23 -3 20419.3 1728.06 1
-23 10 -3 18322.5 840.213 1
10 13 -3 22931 1623.09 3
-23 10 0 34767.4 1471.66 4
-23 10 0 37006.5 1710.61 2
10 13 0 36941.1 1869.33 3
13 -23 0 35970.7 1995.91 1
-23 10 0 32944.3 1302.46 1
10 13 3 1500.06 510.45 1
13 -23 3 1402.43 881.731 1
-23 10 3 2736.33 755.12 4
-23 10 3 3472.01 824.8 2
10 13 3 2791.37 885.041 3
-23 10 6 28249.3 1810.95 4
13 -23 6 28489.2 1916.63 1
-23 10 6 28797.8 1765.91 2
10 13 6 26635.4 1731 3
10 13 9 4866.26 1376.1 2
10 13 9 2789.96 1055.43 4
13 -23 9 4117.14 1216.29 1
-23 10 9 5048.45 1206.86 4
-23 10 9 3858.4 1151.93 2
10 13 9 3711.09 968.688 3
9 13 -7 7520.36 1291.5 3
13 -22 -7 5578.93 1366.94 1
9 13 -4 38612.2 2017.02 3
13 -22 -4 38350.6 2197.91 1
-22 9 -1 21174.9 1117.47 4
13 -22 -1 18115.5 1517.69 1
-22 9 -1 17943.8 878.558 1
9 13 -1 17385.9 1408.87 3
13 -22 2 84225.3 2763.98 1
9 13 2 83361.2 1987.52 1
-22 9 2 86394.2 2514.21 2
-22 9 2 82970.7 2374.92 4
9 13 2 89846.5 2704.1 3
-22 9 5 500.917 688.537 4
-22 9 5 -699.371 651.548 2
9 13 5 -301.84 740.814 3
13 -22 5 -452.222 790.467 1
9 13 8 29097.2 2115.18 2
13 -22 8 34002.6 2229.58 1
-22 9 8 29442.8 1910.71 2
9 13 8 25245.9 1825.44 4
-22 9 8 29305.5 1960.39 4
9 13 8 29911.4 1814.63 3
8 13 -5 16411 1497.63 3
13 -21 -5 20595.7 1831.58 1
13 -21 -2 87749.8 2172.88 2
-21 8 -2 86634.5 1497.96 1
13 -21 -2 86390.5 2938.34 1
-21 8 -2 92780.8 2097.72 4
8 13 -2 90742.9 2719.78 3
13 -21 1 12784.2 1262.11 1
8 13 1 11883.2 895.445 1
-21 8 1 13823 997.726 4
-21 8 1 12347.6 869.53 1
8 13 1 13604.1 1184.33 3
-21 8 1 11444.4 1031.3 2
-21 8 4 25326.8 1495.33 4
8 13 4 23183 1167.51 1
-21 8 4 24550.1 1468.99 2
13 -21 4 24146.9 1613.92 1
8 13 4 27304.3 1570.64 3
8 13 7 9074.91 1202.37 4
-21 8 7 8425.73 1130.03 4
13 -21 7 8926.85 1250.07 1
-21 8 7 9920.68 1209.83 2
8 13 7 9511.93 1300.62 2
8 13 7 7822.96 1064.38 3
-21 8 10 7716.35 1298.44 4
13 -21 10 11352.7 1639.33 1
8 13 10 8736.77 1523.57 2
-21 8 10 9317.66 1403.52 2
8 13 10 12650.7 1546.84 4
8 13 10 11643.6 1267.63 3
7 13 -6 9513.62 1284.56 3
13 -20 -6 9851.09 1564.71 1
7 13 -3 22361.8 1515.22 3
13 -20 -3 14644.1 1394.24 1
-20 7 0 81255.3 2333.31 2
-20 7 0 81654.6 1720.87 1
-20 7 0 84999.2 2119.43 4
13 -20 0 85312.3 2672.19 1
7 13 0 84412.4 2533.62 3
13 -20 0 85398.6 1579.48 2
7 13 0 77559.2 2123.13 1
-20 7 3 9401.28 966.143 4
7 13 3 9454.97 1021.14 3
7 13 3 9757.51 801.929 1
-20 7 3 10461 998.629 2
13 -20 3 11364 1180.83 1
7 13 6 13430.3 1370.49 2
-20 7 6 15465.6 1324.47 4
13 -20 6 13680.9 1367.14 1
-20 7 6 15963.2 1331.61 2
7 13 6 15260.6 1335.67 4
7 13 6 14941.5 1232.61 3
7 13 9 1632.81 1162.44 2
-20 7 9 2647.57 998.097 4
7 13 9 4660.01 1126.49 4
13 -20 9 2053.81 1022.69 1
-20 7 9 3395.26 998.235 2
7 13 9 3164.62 868.517 3
13 -19 -7 6935.56 1484.62 1
6 13 -4 168247 3782.28 3
13 -19 -4 165764 4070.31 1
13 -19 -1 16015.1 883.922 2
-19 6 -1 15631 647.99 1
-19 6 -1 17019 948.728 4
13 -19 -1 16194.9 1296.75 1
6 13 -1 15017.2 920.265 2
6 13 -1 16101.5 1263.06 3
6 13 2 201627 3058.59 1
-19 6 2 193609 3487.99 2
-19 6 2 189465 3342.18 4
6 13 2 201090 3657.52 3
13 -19 2 197638 3817.73 1
-19 6 2 186597 3088.13 1
13 -19 5 7465.94 1072.45 1
-19 6 5 6315.92 914.874 4
6 13 5 8427.46 1009.44 3
-19 6 5 8100.11 796.448 3
-19 6 5 9696.68 1025.63 2
6 13 8 36984.7 2037.17 4
6 13 8 35647.4 2186.06 2
-19 6 8 36925.5 2047.34 4
6 13 8 35799.6 1745.06 3
13 -19 8 35824 2124.19 1
-19 6 8 33882.2 1983.95 2
-19 6 11 1719.86 1073.78 2
6 13 11 3491.26 1297.26 2
13 -19 11 3893.21 1074.98 3
-19 6 11 2472.48 1058.45 4
13 -19 11 2446.68 1178.39 1
6 13 11 766.125 1010.07 4
13 -18 -5 1780.25 551.06 3
5 13 -5 271.372 942.53 3
13 -18 -5 1005.52 889.358 1
-18 5 -2 13293.7 435.293 1
13 -18 -2 13586.8 911.736 2
5 13 -2 14739.9 839.125 2
13 -18 -2 15822.2 1290.33 1
5 13 -2 14927.7 1232.06 3
13 -18 1 78626.3 1246.11 2
13 -18 1 82892.5 2471.4 1
5 13 1 85720.4 2049.34 1
5 13 1 81785 2337.38 3
-18 5 1 86268.2 1794.78 1
-18 5 1 83137.9 2231.25 2
-18 5 4 37116.2 1685.35 4
-18 5 4 34681.3 1600.4 2
-18 5 4 32332 1328.38 3
5 13 4 34578.4 1394.68 1
13 -18 4 37507.9 1747.44 1
5 13 4 36588.7 1596.7 3
-18 5 7 32841.6 1817.38 2
13 -18 7 33401 1013.89 2
13 -18 7 36488.5 1971.37 1
5 13 7 32224.3 1807.1 4
-18 5 7 35302.2 1873.84 4
5 13 7 36565.6 1703.96 3
5 13 10 3860.5 1076.02 4
-18 5 10 3710.18 1012.97 2
5 13 10 3845.63 1151.05 2
13 -18 10 5040.48 1179.96 1
-18 5 10 3301 1032.75 4
4 13 -6 29644.7 1766.02 3
13 -17 -6 32093 2166.65 1
13 -17 -6 29380 1041.97 3
4 13 -3 16642.1 1340.66 3
13 -17 -3 16277.9 1102.1 3
13 -17 -3 15786.7 1364.69 1
4 13 -3 15740.6 826.59 2
4 13 0 19918.2 1002.26 2
-17 4 0 19146.5 1139.66 2
13 -17 0 22929.7 848.036 2
4 13 0 20008.6 1078.83 1
-17 4 0 22628.9 790.617 1
13 -17 0 22772 1379.61 1
-17 4 0 22465.8 1094.83 4
4 13 0 22000 1341.21 3
13 -17 0 21517.3 1007.28 4
-17 4 3 36084.8 1522.43 2
13 -17 3 34433.1 1564.18 1
4 13 3 34034.6 1340.06 1
-17 4 3 39111.9 1560.06 4
4 13 3 36639.6 1567.24 3
-17 4 3 33487.7 1514.28 1
13 -17 6 12485 613.227 2
13 -17 6 12715.7 635.901 2
4 13 6 10779.9 1225.94 2
4 13 6 12649.6 1200.96 4
-17 4 6 13558.2 1192.31 4
-17 4 6 12542.1 810.85 3
13 -17 6 14010.3 1248.55 1
-17 4 6 15078.7 1203.9 2
4 13 6 12366.1 1058.67 3
13 -17 9 5538.73 1149.55 1
-17 4 9 3390.51 937.269 4
-17 4 9 2710.39 899.371 2
13 -17 9 2631.43 599.331 2
4 13 9 4822.95 1189.93 2
4 13 9 3977.08 1045.91 4
4 13 9 4264.88 842.073 3
13 -16 -7 5957.12 323.404 3
13 -16 -7 6078.75 351.326 3
13 -16 -4 283368 3617.46 3
3 13 -4 288612 3316.72 2
3 13 -4 293482 4711.59 3
13 -16 -1 5614.41 836.31 1
3 13 -1 5216.17 702.39 1
13 -16 -1 5691.81 578.682 2
-16 3 -1 4576.68 569.219 4
-16 3 -1 5116.24 266.807 1
13 -16 -1 6626.33 686.855 4
3 13 -1 4827.06 510.422 2
3 13 -1 5382.01 947.504 3
13 -16 2 147314 1499.18 2
-16 3 2 146367 2625.91 1
3 13 2 145733 2580.3 1
13 -16 2 154529 3096.04 1
3 13 2 147879 2971.71 3
-16 3 5 3314.5 757.948 4
3 13 5 4192.98 732.612 3
-16 3 5 4126.61 580.574 3
13 -16 5 5949.53 909.604 1
13 -16 5 5331.77 453.316 2
3 13 5 2364.91 768.409 4
3 13 5 5642.53 982.524 2
-16 3 5 3747.7 752.028 2
13 -16 5 3855.38 374.281 2
3 13 8 173990 4395.62 2
13 -16 8 180983 2934.74 2
13 -16 8 169725 4134.24 1
-16 3 8 179387 4046.17 2
3 13 8 177320 4144 4
-16 3 8 177243 4037.12 4
3 13 8 177252 3340.62 3
-16 3 11 2082.46 1060.3 2
3 13 11 1204.45 997.54 4
3 13 11 2502.75 1267.64 2
-16 3 11 1393.5 930.788 4
13 -16 11 2432.15 1103.32 1
13 -16 11 3510.01 1011.41 3
13 -15 -5 14425.2 809.61 3
2 13 -5 16056 1311.3 3
2 13 -5 15135.2 862.153 2
13 -15 -5 13710.6 1371.49 1
2 13 -2 33633.4 1657.33 3
13 -15 -2 33318.5 1604.62 1
2 13 -2 33457 1250.69 4
13 -15 -2 30732.7 1242.4 2
2 13 -2 33779.6 1001.34 2
13 -15 1 49928.4 1785.17 1
13 -15 1 52480 1082.29 2
13 -15 1 50461.3 1251.46 4
-15 2 1 51290.4 1311.96 1
2 13 1 53054.9 1574.44 1
-15 2 1 54621.3 1643.57 4
-15 2 1 56309.5 1759.44 2
2 13 1 53892.8 1902.08 3
2 13 4 6553.18 762.228 1
2 13 4 9519.19 872.995 3
2 13 4 7340.78 886.795 2
-15 2 4 6908.01 808.396 4
-15 2 4 7793.6 680.473 3
13 -15 4 7484.47 834.933 1
2 13 4 6957.14 844.27 4
-15 2 4 8201.94 806.545 2
13 -15 4 8158.19 440.873 2
2 13 7 41391.7 2147.12 2
2 13 7 43029.4 2009.38 4
13 -15 7 42060.3 1976.17 1
-15 2 7 42147.6 1909.5 4
-15 2 7 41400.2 1207.62 3
-15 2 7 42604.9 1904.91 2
13 -15 7 41948 1425.64 2
2 13 7 40654.3 1623.11 3
13 -15 10 2687.18 725.465 2
2 13 10 2361.02 1229.23 2
13 -15 10 3372 873.338 3
-15 2 10 2539.39 914.325 4
13 -15 10 4558.92 1164.11 1
-15 2 10 1807.99 854.025 2
2 13 10 3910.5 1077.27 4
1 13 -6 2449.02 521.786 2
13 -14 -6 2125.38 275.003 3
13 -14 -6 2650.52 343.003 3
1 13 -3 38854 1769.5 3
1 13 -3 37009 1262.9 4
1 13 -3 39034.9 1043.37 2
13 -14 -3 38785.6 1759.63 1
1 13 0 18549 1286.76 3
-14 1 0 18007.3 611.996 1
-14 1 0 17919.7 1097.69 2
1 13 0 18227.7 827.526 2
13 -14 0 17449 757.227 2
-14 1 0 17886.5 970.711 4
1 13 0 19065.8 1039.94 1
13 -14 0 17087.6 1128.98 1
13 -14 0 17297.9 846.859 4
1 13 3 14614.2 958.362 1
1 13 3 15272.3 1074.67 2
13 -14 3 13546.1 540.754 2
13 -14 3 13012.5 953.745 1
-14 1 3 14237.2 1002.87 4
-14 1 3 13458.6 839.786 3
-14 1 3 15213.9 1050.41 1
-14 1 3 15177 991.921 2
1 13 3 15562.6 1072.78 3
1 13 6 1169.86 602.446 3
-14 1 6 908.529 607.691 4
13 -14 6 1266.78 478.858 2
1 13 6 1319.87 854.44 2
1 13 6 303.229 675.134 4
-14 1 6 1164.08 417.238 3
13 -14 6 472.593 645.475 1
-14 1 6 1694.45 665.964 2
-14 1 9 9566.16 1171.9 2
13 -14 9 8955.58 1204.69 1
13 -14 9 8818.82 976.271 2
1 13 9 10381.1 1469.63 2
13 -14 9 10065.5 1089.29 3
1 13 9 8606.29 1177.8 4
-14 1 9 9871.5 1173.72 4
1 13 9 9004.09 920.563 3
0 13 -7 5555.08 713.9 2
0 13 -4 241810 4056.75 3
0 13 -4 241240 2556.21 2
0 13 -4 237206 3000.17 4
13 -13 -4 242878 4502.06 1
0 13 -1 3520.68 943.307 3
13 -13 -1 4678.19 600.393 4
0 13 -1 4060.58 657.375 1
13 -13 -1 4097.86 510.415 2
13 -13 -1 4577.74 785.632 1
0 13 -1 4990.33 412.203 2
-13 0 2 482745 4820.06 4
13 -13 2 467912 2954.78 4
-13 0 2 473793 4436.6 3
13 -13 2 469177 3133.3 2
-13 0 2 484576 4861.83 2
0 13 2 440856 4515.27 1
0 13 2 481142 5038.48 3
13 -13 2 439309 4648.34 1
0 13 5 2323 609.484 3
0 13 5 2033.6 706.524 4
-13 0 5 3543.98 678.517 2
0 13 5 3023.8 814.12 2
-13 0 5 2361.46 599.161 4
-13 0 5 2941.37 491.1 3
13 -13 5 2053.76 640.867 1
13 -13 5 1907.49 475.547 2
-13 0 8 156821 3619.31 2
13 -13 8 159192 3758.48 1
0 13 8 153473 4034.46 2
13 -13 8 157214 3147.51 2
-13 0 8 157380 3594.14 4
13 -13 8 161649 3494.94 3
0 13 8 156451 3829.59 4
0 13 8 149518 2758.94 3
13 -13 11 5127.04 1016.69 2
-13 0 11 7565.28 1184.35 4
0 13 11 6593.97 1251.04 4
0 13 11 5616.39 1339.56 2
13 -13 11 6467.02 1053.21 3
-13 0 11 5062.96 1106.9 2
13 -13 11 5194.89 1233.85 1
13 -12 -5 3116.67 463.365 3
13 -12 -5 3342.89 908.698 1
-1 13 -5 2983.22 415.82 2
-1 13 -5 3732.55 465.593 4
13 -12 -5 3008.88 332.653 3
-1 13 -2 4267.44 955.674 3
13 -12 -2 3538.58 579.886 4
13 -12 -2 4075.38 792.031 1
-1 13 -2 3532.55 694.294 1
-1 13 -2 2989.98 460.037 4
-1 13 -2 3875.13 326.047 2
13 -12 -2 3928.47 580.642 2
-1 13 1 33764.9 1533.33 3
13 -12 1 34340.7 1353.13 1
-12 -1 1 33591 1285.7 4
13 -12 1 33479 948.061 2
-12 -1 1 34222.1 1240.37 3
-1 13 1 33203.2 1301.91 1
13 -12 1 34519.7 975.762 4
-12 -1 1 35884.5 1336.71 2
-1 13 4 441.156 568.166 3
13 -12 4 11.3937 269.491 2
-1 13 4 -16.2786 555.674 2
-1 13 4 550.912 531.893 4
-12 -1 4 349.246 359.737 3
13 -12 4 206.531 505.242 1
-12 -1 4 38.4477 473.498 4
-12 -1 4 -91.1615 465.867 2
13 -12 7 13860.3 1167.6 1
13 -12 7 12720.4 986.293 2
-1 13 7 12228.3 1213.77 4
-1 13 7 11996.7 1238.62 2
13 -12 7 14332.1 1125.85 3
-12 -1 7 14651 1168.38 4
-12 -1 7 11882.2 1093.18 2
-12 -1 7 12179.9 782.292 3
-1 13 7 12167.9 967.863 3
13 -12 10 6496.58 1118.78 1
13 -12 10 8493.4 1077.29 2
-1 13 10 7760.97 1313.28 2
-12 -1 10 8902.76 1146.53 4
-1 13 10 8368.3 1288.95 4
13 -12 10 6851.72 990.741 3
-12 -1 10 8506.63 1164.21 2
-2 13 -6 61659.1 1472.62 4
-2 13 -6 62343.7 1553.88 2
13 -11 -6 58275.1 753.779 3
-2 13 -3 32834.2 1030.19 4
-2 13 -3 33812.6 722.075 2
13 -11 -3 31434.5 1006.51 3
13 -11 -3 35386.5 1627.12 1
-11 -2 0 4115.17 664.477 2
-2 13 0 3678.4 934.585 3
-11 -2 0 3447.14 313.697 1
-11 -2 0 2850.16 574.854 4
13 -11 0 3106.63 429.929 2
13 -11 0 3104.79 679.659 1
-2 13 0 3575.46 599.758 1
13 -11 0 2704.77 434.15 4
-11 -2 0 3563.56 590.675 3
-2 13 3 6622.77 818.197 3
13 -11 3 5379.41 471.284 2
-2 13 3 5682.05 728.442 1
-11 -2 3 3677.71 614.004 4
-11 -2 3 5049.63 560.366 3
13 -11 3 4686.57 258.407 4
-2 13 3 5577.12 728.522 2
13 -11 3 5037.03 613.738 1
-11 -2 3 5383.93 633.027 2
-2 13 3 5201.85 742.645 4
-2 13 6 25808.7 1175.01 3
-2 13 6 26321 1593.7 2
-11 -2 6 27833.5 1403.72 4
-2 13 6 29673.8 1587.36 4
13 -11 6 26306 1357.34 3
-11 -2 6 28388.5 1388.67 2
-11 -2 6 27913 1085.94 3
13 -11 6 26306.9 1242.18 2
13 -11 6 29047.2 1421.13 1
-2 13 9 11383.1 771.061 3
-2 13 9 11178.4 1266.61 4
13 -11 9 11790.6 1123.12 2
13 -11 9 13033 1286.28 1
-11 -2 9 12626.6 1183.84 4
-2 13 9 11988 1433.02 2
13 -11 9 10366 1047.93 3
-11 -2 9 9541.68 1091.37 2
-2 13 12 5254.14 1224.22 4
13 -11 12 3730.28 1078.72 2
-11 -2 12 4280.78 1053.94 4
-11 -2 12 1969.93 1027.12 2
-2 13 12 2316.53 1108.92 2
13 -11 12 3184.21 1109.97 1
-3 13 -7 4772.97 645.296 2
-3 13 -7 3079.67 451.4 4
-3 13 -4 318264 2883.31 4
13 -10 -4 319959 2684.87 3
13 -10 -4 313576 4934.57 1
-3 13 -4 320765 2372.61 2
-3 13 -1 26742.1 1493.26 3
-3 13 -1 26061.3 1250.47 1
13 -10 -1 28584.7 1236.69 1
13 -10 -1 28965.4 1087.77 4
13 -10 -1 25025.5 1059.94 3
-10 -3 -1 29692.4 1179.01 3
13 -10 -1 29635.7 1075.41 2
-10 -3 -1 28470.7 503.997 1
-3 13 -1 28895.2 632.547 2
13 -10 2 340125 3610.74 1
-3 13 2 332447 3982.37 1
-3 13 2 335973 4103.35 3
-3 13 2 332039 3959.23 4
-10 -3 2 346663 3827.04 2
13 -10 2 333671 2490.7 4
-3 13 2 335851 3603.39 2
-10 -3 2 329645 3642.84 3
13 -10 2 338155 3037.08 2
-10 -3 2 337616 3820.6 4
-3 13 5 44730.9 1480.24 3
-10 -3 5 45773.1 1627.62 4
-3 13 5 43804.2 1771.87 4
13 -10 5 46138.5 1672.57 3
-10 -3 5 47218.7 1603.46 2
-10 -3 5 42701.9 1340.16 3
-3 13 5 43888.1 1827.9 2
13 -10 5 46283.5 1580.41 1
-3 13 8 65311.4 1570.77 3
-10 -3 8 69378.9 1640.05 3
13 -10 8 64910.5 2242.74 2
-3 13 8 67658.3 2544.47 4
-3 13 8 66533.6 2662.55 2
13 -10 8 68512.3 2371.83 1
-10 -3 8 67141.9 2255.43 4
13 -10 8 66699.6 2212.74 3
-10 -3 8 69282.4 2306.44 2
13 -10 11 9699.92 1351.05 1
-3 13 11 11476.8 1466.51 4
-3 13 11 8120.11 1473.47 2
13 -10 11 9787.81 1276.81 2
-10 -3 11 9817.58 1191.33 4
13 -10 11 8104.43 1061.98 3
-10 -3 11 9944.91 1277.42 2
-4 13 -8 17225 820.596 4
-4 13 -5 2842.96 369.258 2
-4 13 -5 3190.23 359.645 4
13 -9 -5 3256.28 306.427 3
13 -9 -2 143975 2783.71 1
13 -9 -2 140314 2425.69 2
-4 13 -2 138661 2726.94 1
-9 -4 -2 132138 1215.53 1
13 -9 -2 139379 2099.23 3
-9 -4 -2 141065 2526.39 3
13 -9 -2 139204 2490.43 4
-9 -4 1 64250.8 1654.28 2
-4 13 1 64777.9 1946.01 3
-4 13 1 66548.9 1695.59 4
-4 13 1 63810.7 1383.99 2
13 -9 1 66360.2 1315.4 4
13 -9 1 64585.5 1389.04 2
-9 -4 1 63943.9 1646.55 3
13 -9 1 65977.6 1704.46 3
-9 -4 1 64602.5 1372.97 1
13 -9 1 68195.3 1590.95 1
-4 13 1 66131.7 1778.63 1
-4 13 4 100211 2130.57 3
-4 13 4 111409 2608.61 4
-4 13 4 103906 2448.64 2
13 -9 4 100440 1035.65 4
13 -9 4 99542.5 2315.32 3
13 -9 4 104616 2052.17 1
-9 -4 4 104722 2070.52 3
-9 -4 4 112307 2247.02 2
-4 13 7 8257.42 714.611 3
-9 -4 7 8478.64 871.209 4
-4 13 7 7554.4 1094.29 2
13 -9 7 6071.19 261.145 4
13 -9 7 8704.04 942.597 1
13 -9 7 5129.25 247.35 4
13 -9 7 9199.35 905.359 3
-9 -4 7 7631.73 873.777 2
13 -9 7 7660.65 943.934 2
-9 -4 7 7846.48 700.665 3
-4 13 7 9505.94 1074.68 4
-4 13 10 34361.8 2058.33 4
13 -9 10 33657.3 1947.33 2
-9 -4 10 30954.7 1697.91 4
-9 -4 10 32689.3 1826.21 2
13 -9 10 30580.3 1623.26 3
-4 13 10 34293.3 2212.18 2
13 -9 10 32288.3 1895.01 1
-5 13 -6 35599 895.874 4
13 -8 -6 32120.6 592.635 3
-5 13 -3 126902 1612.43 4
13 -8 -3 119938 1815.44 3
-8 -5 -3 119179 2282.55 3
13 -8 -3 126713 2884.56 1
-5 13 0 183765 1782.83 2
-5 13 0 187605 2517.45 4
13 -8 0 180681 2369.07 4
-8 -5 0 180599 2732.48 3
13 -8 0 182683 2633.08 3
-8 -5 0 186540 1945.57 1
13 -8 0 177086 2377.53 2
-5 13 0 179811 2889.71 1
13 -8 0 178531 2480.5 1
13 -8 3 30448 1089.39 2
-8 -5 3 31391.7 1218.86 4
-5 13 3 31901.8 1283.92 3
-5 13 3 31077.2 1368.02 4
-8 -5 3 29422.6 1141.57 3
-5 13 3 30871 1264.92 2
13 -8 3 31230 748.948 4
-5 13 3 29400.9 1383.64 1
13 -8 3 34043.5 1387.34 3
-8 -5 3 31984.4 1364.55 1
13 -8 3 31098.4 1065.68 1
-8 -5 3 30501.5 1146.15 2
-5 13 6 44299.8 1301.76 3
13 -8 6 46257.5 862.118 4
-5 13 6 46665.1 1906.72 4
-5 13 6 48546.4 1992.88 2
13 -8 6 44973 1604.31 1
-8 -5 6 48049.4 1667.19 4
13 -8 6 43630.1 814.044 4
13 -8 6 45083.4 1667.32 3
-8 -5 6 47905.4 1646.7 2
-8 -5 6 46237.5 1438.61 3
-5 13 9 39318.3 2100.21 4
13 -8 9 43000.8 2014.37 1
13 -8 9 36283.4 946.95 4
-5 13 9 38689 2182.58 2
-8 -5 9 41105.4 1811.51 4
13 -8 9 42614.1 2039.48 2
13 -8 9 40298.6 1774.33 3
-8 -5 9 38185.7 1841.6 2
-8 -5 12 9872.95 1673.03 1
-5 13 12 12564.8 1578.33 4
13 -8 12 12057.7 1550.32 2
-5 13 12 12340.2 1783.21 2
13 -8 12 10779.2 1456.78 1
-8 -5 12 10476 1218.2 4
-8 -5 12 10965.5 1384.71 2
-6 13 -7 3379.66 329.469 4
-6 13 -4 234751 1891.04 4
13 -7 -4 239750 2342.33 3
-6 13 -1 41888 1102.76 4
-7 -6 -1 42703.6 968.672 1
13 -7 -1 41769.7 1290.62 4
13 -7 -1 44380 1273.87 3
13 -7 -1 42539.9 1282.54 2
-7 -6 -1 43737.3 1406.24 3
13 -7 -1 42854.6 1358.78 1
13 -7 2 177115 2203.68 1
-6 13 2 167804 2938.92 1
-6 13 2 173719 2791.28 4
-7 -6 2 175918 2633.88 1
-6 13 2 180248 2530.77 2
13 -7 2 174326 2030.29 4
13 -7 2 175462 2444.37 2
-7 -6 2 156157 2541.94 4
13 -7 2 184920 2869.93 3
-7 -6 2 177311 2693.67 3
-7 -6 2 187156 2569.16 2
-6 13 5 102216 2609.8 2
13 -7 5 97475.3 2046.63 1
13 -7 5 104577 1375.28 4
-7 -6 5 106155 2313.56 4
13 -7 5 103850 2415.31 3
-7 -6 5 105091 2207.62 2
13 -7 5 103887 1469 4
-7 -6 5 106556 2172.71 3
-6 13 5 109637 2679.93 4
-7 -6 8 63146.3 2110.06 2
13 -7 8 62126.8 2188.09 1
-7 -6 8 64073.1 2073.1 4
13 -7 8 64070.3 1342.09 4
-6 13 8 69325.4 2549.92 4
-6 13 8 66368.7 2617.68 2
13 -7 8 63337.7 2080.26 3
-7 -6 8 56951.2 1671.49 3
13 -7 8 65839.1 2409.51 2
13 -7 11 3207.4 964.004 1
-6 13 11 5018.96 1155.26 4
13 -7 11 3372.39 1042.85 2
-7 -6 11 5613.2 954.945 4
-7 -6 11 2544.27 1172.43 1
13 -7 11 4741.73 864.703 3
-7 -6 11 4054.66 945.878 2
-6 13 11 4399.69 1189.9 2
-7 13 -8 104902 1291.58 4
-6 -7 -5 50319.8 1515.42 3
13 -6 -5 49540.6 994.58 3
13 -6 -2 175657 2746.75 2
-6 -7 -2 186138 2121.7 1
13 -6 -2 175602 2781.6 4
-7 13 -2 176146 3007.78 1
-7 13 -2 180537 1885.33 4
13 -6 -2 180299 2354.8 3
-6 -7 -2 176023 2725.19 3
-7 13 1 35094.1 1199.32 4
-6 -7 1 37286.6 1209.16 2
-7 13 1 37163.2 1427.75 1
13 -6 1 35994 1053.21 4
-7 13 1 35810.8 1000.61 2
13 -6 1 36183.9 1303.55 3
13 -6 1 38127 1190 2
13 -6 1 37878.8 988.205 1
-6 -7 1 36912.7 1304.88 3
-6 -7 1 35785.9 1115.87 1
-7 13 4 261197 3722.67 2
-7 13 4 259380 3878.56 4
-6 -7 4 263795 3407.77 4
13 -6 4 257256 2784.65 1
-6 -7 4 262146 4024.71 1
13 -6 4 253619 3572.55 3
-6 -7 4 257933 3120.78 2
-6 -7 4 259995 3389.18 3
-6 -7 7 8674.98 1196.7 1
13 -6 7 9723 1051.84 2
-6 -7 7 9833.66 880.818 2
-6 -7 7 10563.8 902.517 4
-7 13 7 9807.58 1167.1 2
13 -6 7 9111.09 908.304 3
13 -6 7 9996.47 615.297 4
-6 -7 7 9164.99 805.53 3
13 -6 7 10854.2 928.177 1
-7 13 7 10455.4 1128.43 4
-7 13 10 33092.4 2148.32 2
13 -6 10 32308.3 1846.28 1
-6 -7 10 29613.4 2265.32 1
-7 13 10 33183.6 2033.21 4
13 -6 10 29450.5 1939.19 2
-6 -7 10 30002.7 1587.83 4
-6 -7 10 31214.6 1711.4 2
13 -6 10 34737.7 1685.64 3
13 -5 -6 27083.6 771.174 3
-5 -8 -3 61490.4 1638.5 3
-8 13 -3 60103.3 869.01 4
-8 13 -3 62861.2 862.385 4
-5 -8 -3 60212.9 1484.61 1
13 -5 -3 64543.1 1377.79 3
13 -5 0 227781 2911.18 3
13 -5 0 225902 2461.46 1
13 -5 0 222127 2764.51 4
-8 13 0 220947 2604.61 4
-5 -8 0 227552 2549.81 1
13 -5 0 229750 2878.22 2
-5 -8 0 222015 3062.47 3
-8 13 0 225032 3192.76 1
13 -5 3 92296.5 1565.97 4
13 -5 3 90122.7 2006.26 2
-8 13 3 88434.1 1991.14 2
-5 -8 3 81434.3 1835.84 4
13 -5 3 92040.6 2123.51 3
13 -5 3 91373.2 1395.99 1
-5 -8 3 86610.4 2015.48 3
-5 -8 3 90745.8 1768.43 2
-5 -8 3 102457 2344.69 1
-8 13 3 92849 2191.65 4
-5 -8 6 42292.6 1981.1 1
13 -5 6 45752.4 1499.44 1
-8 13 6 44048.3 1856.95 4
-8 13 6 46501.4 1934.26 2
13 -5 6 46046.1 1191.18 4
-5 -8 6 45637.4 1555.02 4
13 -5 6 44322.2 1639.71 3
-5 -8 6 44850.1 1489.06 2
13 -5 6 47271.5 1243.1 4
-5 -8 6 40007.3 1508.34 3
13 -5 9 5410.36 615.372 4
-5 -8 9 4909.67 1218.65 1
13 -5 9 5133.25 922.55 1
-8 13 9 4500.02 1022.74 4
-8 13 9 4197.66 1055.65 2
13 -5 9 6028.56 1087.16 2
-5 -8 9 3617.6 725.052 4
13 -5 9 3965.28 751.668 3
-5 -8 9 3398.88 724.103 2
13 -5 12 14797.5 1541.75 1
-8 13 12 11245.8 1538.58 4
-5 -8 12 16832.5 2074.8 1
-5 -8 12 15463.5 1329.69 4
-8 13 12 12192.1 1663.14 2
13 -5 12 11035.5 1588.25 2
-5 -8 12 14025.2 1424.05 2
13 -4 -7 2751.1 342.153 3
-4 -9 -4 56536.5 1667.46 1
-4 -9 -4 58773.2 1611.81 3
13 -4 -4 57992.2 1288.44 3
-4 -9 -1 59012.5 1490.78 1
13 -4 -1 62892.1 1604.61 4
-9 13 -1 62514.2 1223.53 4
-9 13 -1 62759.7 1775.81 1
13 -4 -1 63421.9 1522.57 3
13 -4 -1 65626.3 1654.83 2
-4 -9 -1 64488.7 1695.6 3
-9 13 -1 66293.4 838.232 2
-4 -9 2 75678.1 1533.38 2
-9 13 2 72351 2007.17 1
-4 -9 2 71849.2 1800.36 1
13 -4 2 74375.3 1499.19 4
13 -4 2 72618.5 1015.61 1
13 -4 2 77434.2 1897.65 3
-9 13 2 69763.5 1622.65 2
-9 13 2 73651.6 1832.67 4
-4 -9 2 70689.5 1876.4 3
13 -4 2 74058 1773.57 2
-4 -9 5 4682.2 805.146 1
-4 -9 5 5076.66 599.432 4
13 -4 5 6400.31 520.891 4
-9 13 5 5264.02 768.588 4
13 -4 5 6845 561.899 1
-9 13 5 6557.27 855.7 2
13 -4 5 5841.35 691.842 3
-4 -9 5 5880.82 573.938 2
-4 -9 5 5423.43 707.278 3
13 -4 8 16869.2 943.345 4
-4 -9 8 17897.6 1655.21 1
13 -4 8 16531.7 1172.37 1
-9 13 8 16448.8 1370.38 4
-9 13 8 14410.8 1373.12 2
13 -4 8 17216.7 1440.53 2
-4 -9 8 16269.1 1093.38 2
13 -4 8 14506.2 1089.23 3
-4 -9 8 16321.7 1078.78 4
13 -4 11 4329.93 863.335 3
13 -4 11 5493.39 1278.72 2
-9 13 11 3952.24 1082.88 4
-9 13 11 4513.27 1225.84 2
-4 -9 11 4076.27 1418.7 1
13 -4 11 2958.59 916.347 1
-4 -9 11 4668.47 894.554 2
-4 -9 11 3595.53 804.937 4
-3 -10 -5 33187.4 1241.44 3
-3 -10 -5 32007.6 1456.36 1
13 -3 -5 28664.4 959.114 3
-10 13 -2 461492 2706.89 4
13 -3 -2 446575 4501.27 4
-10 13 -2 454127 4816.04 1
-3 -10 -2 452216 4114.24 1
13 -3 -2 459564 3954.54 3
-3 -10 -2 449053 4419.71 3
-10 13 1 61255.1 1799.66 1
-10 13 1 64011.3 1578.43 4
13 -3 1 66288 1515.99 4
-10 13 1 62248.1 1319.05 2
-3 -10 1 61496.7 1571.75 1
13 -3 1 64244.3 1701.72 3
-3 -10 1 64364.1 1824.86 3
13 -3 1 66662.1 1710.36 2
-3 -10 4 387919 3481.06 2
-10 13 4 388134 4732.67 4
-10 13 4 387251 4531.76 2
13 -3 4 390547 2852.74 1
13 -3 4 376679 3476.18 4
-3 -10 4 381800 4883.16 1
13 -3 4 388867 4442.98 3
-10 13 7 4178.16 865.151 4
13 -3 7 3872.21 713.338 3
13 -3 7 4229.41 683.773 1
-3 -10 7 4212.42 1052.36 1
-3 -10 7 3909.05 610.244 4
-3 -10 7 5565.77 665.021 2
13 -3 7 4321.94 638.844 4
-10 13 7 3254.88 777.4 2
13 -3 10 95854.2 3421.36 2
-10 13 10 94657 3318.76 4
-10 13 10 92592.5 3375.53 2
-3 -10 10 93997.2 3646.4 1
13 -3 10 90315.3 2305.96 4
13 -3 10 94661.1 2656.3 3
-3 -10 10 94653.3 2560.53 4
-3 -10 10 92190.9 2714.35 2
13 -3 10 89961.3 2863.8 1
-2 -11 -6 29027.5 1172.98 3
13 -2 -6 31203.2 1076.81 3
-2 -11 -3 8455.27 765.158 1
-11 13 -3 7897.98 807.743 1
13 -2 -3 7080.74 594.115 3
-2 -11 -3 9234.95 752.934 3
13 -2 0 10904.5 737.043 4
-11 13 0 10678.1 664.276 4
13 -2 0 10729.2 745.91 2
13 -2 0 11438.5 819.134 3
-11 13 0 11848.8 546.608 2
-2 -11 0 11616.4 872.941 3
-11 13 0 11753.5 870.491 1
-2 -11 0 10088 781.623 1
13 -2 3 15294.7 382.462 1
-11 13 3 17081.3 1006.82 4
-2 -11 3 14215.6 1006.24 1
13 -2 3 16490.9 823.266 4
-11 13 3 15842.8 921.38 2
13 -2 3 17619.2 1039.82 3
-2 -11 3 16378.5 706.652 2
-11 13 6 40719.7 1831.7 4
13 -2 6 40060.9 1321.38 1
-2 -11 6 41249.6 2030 1
-11 13 6 42475.7 1822.99 2
-2 -11 6 41833.9 1422.99 4
13 -2 6 42617.5 1634.16 3
-2 -11 6 39412.9 1282.61 2
13 -2 9 23363.4 1421.12 1
-2 -11 9 25876.4 1998.65 1
-11 13 9 29152 1940.81 2
-2 -11 9 28864.8 1361.94 4
-2 -11 9 27330 1419.68 2
13 -2 9 27207.8 1478.4 3
-11 13 9 24639.7 1737.14 4
13 -2 9 27763.4 1884.36 2
13 -2 9 24605 1293.59 4
13 -2 12 2186.11 1225.44 2
13 -2 12 2056.21 978.536 1
-2 -11 12 3847.43 1310.65 1
-11 13 12 2640.58 1132.86 4
-11 13 12 1441.6 1097.88 2
-2 -11 12 4319.4 934.542 2
13 -1 -7 11119.3 785.079 3
-1 -12 -7 10604.8 777.309 3
-1 -12 -4 13597.6 1011.24 1
-1 -12 -4 11995.6 802.321 3
13 -1 -4 12920.5 751.5 3
-12 13 -1 28985.6 856.029 4
13 -1 -1 28011.5 1173.65 4
-12 13 -1 31010.1 1283.08 1
-1 -12 -1 28149.4 1227.06 1
13 -1 -1 27839 1157.47 2
-1 -12 -1 28018.7 1232.04 3
-12 13 -1 27206.1 789.683 2
13 -1 -1 29222.5 1152.66 3
-12 13 2 3806.72 614.622 4
13 -1 2 4125.99 515.488 4
-12 13 2 3466.76 517.261 2
-1 -12 2 4672.89 678.731 1
13 -1 2 3539.02 655.838 3
-12 13 5 3238.92 736.402 4
-1 -12 5 3872.24 822.831 1
-12 13 5 3888.67 716.742 2
13 -1 5 4304.2 697.92 3
-1 -12 5 4830.78 466.712 2
13 -1 5 4816.5 437.651 1
13 -1 5 4185.59 495.636 1
13 -1 8 2806.9 958.408 2
-1 -12 8 913.073 893.638 1
13 -1 8 1335.11 559.986 4
-1 -12 8 1012.59 503.49 4
-1 -12 8 1876.67 562.292 2
-12 13 8 78.9188 852.461 2
-12 13 8 1238.15 767.365 4
13 -1 8 711.678 577.695 3
13 -1 8 770.454 557.507 1
-1 -12 11 6039.06 934.806 2
13 -1 11 4628.67 1225.88 2
13 -1 11 4718.85 992.897 1
-12 13 11 6391.61 1222.64 4
-1 -12 11 6749.48 1462.25 1
13 -1 11 6558.89 921.272 3
-12 13 11 5155.37 1269.79 2
0 -13 -5 1270.21 681.036 1
0 -13 -5 2047.58 493.48 3
13 0 -5 3334.56 530.708 3
-13 13 -2 488065 2862.79 4
-13 13 -2 480427 4856.11 1
0 -13 -2 489877 4961.39 1
0 -13 -2 495247 4802.91 3
-13 13 1 4273.68 693.006 1
0 -13 1 4105.89 663.985 1
13 0 1 2932 561.261 4
-13 13 1 3435.02 464.224 2
-13 13 1 5263.04 593.371 4
13 0 1 2713.56 585.42 3
13 0 4 222829 1678.26 1
13 0 4 228440 1643.42 1
13 0 4 230186 3220.7 4
-13 13 4 249776 3908.36 4
0 -13 4 241833 3995.6 1
-13 13 4 245796 3695.79 2
0 -13 4 247714 2428.92 2
13 0 4 242747 3640.32 3
13 0 7 4792.91 710.244 1
0 -13 7 4882.41 1009.18 1
-13 13 7 5085.35 906.757 2
-13 13 7 6063.8 929.796 4
0 -13 7 5804.58 639.398 2
13 0 7 5607.22 764.319 3
13 0 7 4940.41 740.893 4
0 -13 7 6827.29 682.244 4
-13 13 10 170264 4519.95 2
13 0 10 176078 3873.61 1
0 -13 10 175702 4977.33 1
-13 13 10 172696 4438.83 4
0 -13 10 171191 3113.5 4
0 -13 10 176857 3494.24 2
13 0 10 179906 3673.93 3
13 0 10 173320 3623.06 4
13 0 10 171254 4661.7 2
1 -14 -6 10804.8 784.952 3
1 -14 -6 10821 1221.97 1
13 1 -6 10448.6 822.346 3
-14 13 -3 12770.1 924.638 1
-14 13 -3 13283.3 379.957 4
13 1 -3 15751.6 907.414 3
1 -14 -3 12228 862.833 3
1 -14 -3 14970.7 1092.58 1
-14 13 0 4782.02 512.759 4
13 1 0 4196.05 614.039 3
-14 13 0 4706.47 480.281 2
-14 13 0 4748.97 686.253 1
1 -14 0 4810.17 749.435 1
-14 13 3 39405.5 1519.13 4
13 1 3 37271.9 1345.71 4
1 -14 3 42597.2 1667.23 1
-14 13 3 42066.7 1464.08 2
13 1 3 40133.7 1517.44 3
-14 13 6 13732.8 1222.78 4
1 -14 6 13161 1282.61 1
13 1 6 13395.7 769.249 1
-14 13 6 14119.7 1218.09 2
13 1 6 13531.2 1031.15 3
1 -14 6 14440.4 726.205 2
13 1 6 12983.2 793.329 1
13 1 9 23634 1853.8 2
13 1 9 22105.4 1375.87 1
-14 13 9 20166.7 1649.03 4
1 -14 9 21764.2 1109.22 4
-14 13 9 18575.1 1646.43 2
1 -14 9 20711.9 1155.35 2
13 1 9 20525.8 1333.52 3
1 -14 9 19296.3 1807.55 1
13 1 9 20636.4 1345.97 4
13 2 -7 30000.7 1384.41 3
2 -15 -7 30909.4 1222.72 3
13 2 -4 2963.59 573.247 3
2 -15 -4 2940.11 756.406 1
2 -15 -4 2515.17 541.802 3
2 -15 -1 25432.4 1298.3 1
-15 13 -1 27146.6 892.188 4
-15 13 -1 24440.2 1149.99 1
13 2 -1 25757.1 1185.37 3
-15 13 -1 24819 960.566 2
-15 13 2 74851.8 1943.2 4
-15 13 2 69995.1 1750.3 2
2 -15 2 68747 2046.47 1
13 2 2 69398.8 1984.56 3
2 -15 5 7287.84 1004.8 1
13 2 5 5782.24 762.853 3
13 2 5 5737.84 413.385 1
13 2 5 6830.78 431.363 1
2 -15 5 6427.26 460.09 2
-15 13 5 6775.27 897.275 4
-15 13 5 7377.24 884.563 2
-15 13 8 6069.1 1062.6 2
13 2 8 7052.94 1192.46 2
-15 13 8 8298.36 1149.47 4
13 2 8 7499.61 942.254 4
2 -15 8 9722.73 1362.24 1
2 -15 8 7554.34 691.381 2
13 2 8 5721.79 841.638 3
13 2 11 7919.52 1080.73 4
13 2 11 7793.84 1435.88 2
-15 13 11 7055.49 1310.12 4
-15 13 11 7147.11 1350.16 2
13 2 11 9185.69 1077.24 3
2 -15 11 10284.5 1603.27 1
13 3 -8 179841 3176.48 3
3 -16 -5 8742.52 1127.59 1
13 3 -5 7483.74 770.067 3
-16 13 -2 187983 2060.31 4
3 -16 -2 182816 3464.21 1
13 3 -2 191898 3079.02 3
-16 13 1 6336.39 718.581 1
-16 13 1 7331.41 676.777 4
-16 13 1 6557.06 619.305 2
13 3 1 7323.81 801.651 3
3 -16 1 6431.15 812.086 1
-16 13 4 304007 4460.58 4
3 -16 4 310129 4782.32 1
-16 13 4 307167 4274.82 2
13 3 4 310095 4290.52 3
-16 13 7 946.192 749.389 4
13 3 7 1042.72 694.613 4
3 -16 7 1443.88 936.979 1
13 3 7 1321.16 543.715 1
-16 13 7 2444.64 855.29 2
13 3 7 998.834 619.183 3
3 -16 7 1019.06 379.453 2
13 3 10 62450.3 3048.14 2
3 -16 10 69970.2 3232.41 1
-16 13 10 71496.9 3075.61 2
13 3 10 69404.3 2556.58 4
-16 13 10 68306 2960.72 4
3 -16 10 67732.7 2034.84 2
13 3 10 66560.8 2355.02 3
4 -17 -6 11294.6 1338.46 1
13 4 -6 13551.1 1076.53 3
-17 13 -3 21582.4 1157.41 1
-17 13 -3 23103.2 687.012 4
13 4 -3 24690.6 1244.86 3
4 -17 -3 21620.4 1404.4 1
4 -17 0 21570.3 1329.25 1
-17 13 0 21965.7 965.456 4
13 4 0 21419.4 1191.65 3
-17 13 0 20989.1 1001.39 2
-17 13 0 21812.1 1131.59 1
-17 13 3 14018.3 1015.01 4
4 -17 3 13036.3 1096.76 1
-17 13 3 14057.3 956.902 2
13 4 3 12531.2 990.863 3
-17 13 6 32508.8 1745.8 4
-17 13 6 33255.5 1728.77 2
4 -17 6 34122.2 1941.66 1
13 4 6 31334.5 1026.79 1
13 4 6 35632.1 1630.12 3
4 -17 6 33971.1 872.492 2
13 4 9 5376.02 946.099 4
-17 13 9 5250.03 1087.65 4
4 -17 9 6381.18 1319.3 1
4 -17 9 5838.28 669.137 2
13 4 9 4848.81 1196.54 2
-17 13 9 6349.51 1191.77 2
13 4 9 5392.55 877.96 3
13 5 -7 34321 1724.41 3
5 -18 -7 33665.6 2193.01 1
5 -18 -4 55218.8 2293.94 1
13 5 -4 50620.1 1787.12 3
-18 13 -1 96007.8 2094.02 2
-18 13 -1 90481.9 2140.24 1
5 -18 -1 98469.4 2690.07 1
-18 13 -1 95213.1 1822.77 4
13 5 -1 95761.5 2365.81 3
-18 13 2 27751.3 1298.51 4
-18 13 2 28735.7 1281.95 2
13 5 2 26065.8 1345.05 3
5 -18 2 28099.7 1457.12 1
5 -18 5 5488.56 967.107 1
13 5 5 5638.8 852.931 3
13 5 5 3846.91 361.489 1
-18 13 5 4616.99 816.176 2
-18 13 5 5438.83 888.054 4
5 -18 8 70163.6 1508.63 2
13 5 8 65505 2857.02 2
-18 13 8 73084.1 2825.99 4
-18 13 8 71853.6 2746.35 2
13 5 8 63195.5 2370.91 4
13 5 8 70783.3 2369.17 3
5 -18 8 71153.5 2962.2 1
13 5 11 1285.46 887.904 4
13 5 11 1303.77 1254.47 2
-18 13 11 1549.99 967.007 2
5 -18 11 2907.23 1360.24 1
-18 13 11 2738.16 1095.56 4
13 6 -8 49792.8 2126.47 3
13 6 -5 1335.29 705.03 3
6 -19 -5 295.531 882.242 1
-19 13 -2 177800 3019.15 1
-19 13 -2 196963 2464.8 4
6 -19 -2 182033 3803.52 1
13 6 -2 191405 3435.99 3
-19 13 1 16299.3 996.939 4
13 6 1 17390.9 1209.5 3
-19 13 1 16645.1 1011.52 2
6 -19 1 17064.4 1266.58 1
-19 13 4 160514 3445.3 4
6 -19 4 165690 3709.53 1
-19 13 4 154614 3225.78 2
13 6 4 158195 3280.49 3
13 6 7 36162.2 1772.05 3
-19 13 7 34262.8 1935.14 4
-19 13 7 37027.6 1946.93 2
13 6 7 33876.3 1767.13 4
6 -19 7 33669.7 812.037 2
6 -19 7 35395.1 2100.34 1
13 6 10 25832.6 1792.58 4
-19 13 10 22704 1927.59 4
6 -19 10 25597.4 2205.76 1
13 6 10 22892.9 2089.2 2
13 6 10 24746.9 1647.2 3
-19 13 10 26398.7 1979.65 2
13 7 -6 19243.8 1395.66 3
7 -20 -6 18360.4 1679.44 1
-20 13 -3 3426.29 609.251 1
7 -20 -3 3926.28 1022.29 1
-20 13 -3 5844.77 480.826 4
13 7 -3 4974.23 862.223 3
-20 13 0 77257.4 1881.69 4
7 -20 0 78622.9 2520.5 1
13 7 0 75380.7 2292.76 3
-20 13 0 76098.4 2022.98 2
13 7 3 4494.71 807.983 3
-20 13 3 6524.79 817.489 4
-20 13 3 6916.43 819.458 2
7 -20 3 4509.5 904.495 1
-20 13 6 13959.3 1329.3 4
7 -20 6 15235.5 1434.95 1
-20 13 6 13790.3 1274.87 2
13 7 6 15068.7 1239.59 3
-20 13 9 1792.66 1029.42 2
-20 13 9 752.958 864.326 4
13 7 9 -326.618 862.632 4
13 7 9 711.266 1044.01 2
7 -20 9 469.148 1056.9 1
13 7 9 -532.716 762.057 3
13 8 -7 10285.2 1277.7 3
8 -21 -7 9717.94 1593.68 1
8 -21 -4 25783.4 1838.54 1
-21 13 -4 23122.1 1234.11 1
13 8 -4 27987 1538.76 3
-21 13 -1 19503.1 1155.34 2
8 -21 -1 17687.4 1456.84 1
-21 13 -1 23322.1 1031.85 4
-21 13 -1 19042.4 1093.68 1
13 8 -1 20297.7 1338.75 3
-21 13 2 118313 2713.11 4
-21 13 2 114499 2678.33 2
8 -21 2 118516 3163.79 1
13 8 2 117684 2893.44 3
8 -21 5 9792.71 1232.83 1
-21 13 5 10276.6 1132.72 4
13 8 5 8817.93 514.545 1
-21 13 5 8285.91 1005.97 2
13 8 5 10541.2 1100.13 3
13 8 8 17961.7 1739.29 2
13 8 8 13626.7 1341.59 4
-21 13 8 13992.3 1455.54 4
8 -21 8 17187.8 1752.13 1
-21 13 8 16535.2 1539.57 2
13 8 8 19147.5 1460.53 3
13 9 -8 24689.2 1768.48 3
9 -22 -8 22748.1 2233.3 1
13 9 -5 2103.03 889.643 3
9 -22 -5 3427.27 1162.59 1
-22 13 -2 83533.3 1834.86 4
-22 13 -2 74880 1945.32 1
9 -22 -2 80519.8 2854.21 1
13 9 -2 83112.4 2537.92 3
9 -22 1 11927.4 1259.11 1
13 9 1 13421.5 1155.57 3
-22 13 1 15661.9 1041.29 4
-22 13 1 13720.9 1072.62 2
13 9 4 34110.4 862.873 1
-22 13 4 39499.4 1860.96 4
-22 13 4 36273.1 1744.3 2
9 -22 4 43010.8 2100.46 1
13 9 4 40438.7 1870.36 3
-22 13 7 12209.5 1381.35 2
13 9 7 10263.6 1141.02 3
13 9 7 10428.9 1186.64 4
9 -22 7 12313.5 1510.13 1
-22 13 7 10959.2 1307.16 4
13 9 10 15820.5 1891.91 2
13 9 10 13259.2 1518.78 4
-22 13 10 16015.5 1743.43 2
-22 13 10 14126.2 1666.34 4
9 -22 10 17144.4 1951.83 1
13 9 10 16495 1478.26 3
13 10 -6 24749.3 1753.31 3
10 -23 -6 27518.5 2208.9 1
-23 13 -3 9457.56 817.861 1
10 -23 -3 11174.4 1376.55 1
13 10 -3 13339.9 1253.38 3
-23 13 0 44245.2 1789.47 2
10 -23 0 44401.5 2205.09 1
-23 13 0 44437.4 1603.56 4
13 10 0 45197.4 2028.86 3
-23 13 3 14421.1 1166 4
13 10 3 11362.3 605.932 1
-23 13 3 10260 1039.31 2
13 10 3 15011.6 1305.94 3
10 -23 3 10890.1 1244.96 1
-23 13 6 46081.4 2249.33 4
10 -23 6 49317.5 2419.52 1
-23 13 6 45265.3 2140.06 2
13 10 6 48499.2 2170.49 3
13 10 9 337.651 1064.52 2
-23 13 9 573.649 871.355 2
-23 13 9 2396.67 1012.25 4
13 10 9 181.383 845.255 4
10 -23 9 600.878 985.575 1
13 10 9 1034.72 820.722 3
13 11 -7 5413.23 1234.17 3
11 -24 -7 4636.27 1351.95 1
13 11 -4 4747.78 1024.51 3
11 -24 -4 5867.24 1239.22 1
-24 13 -1 4334.47 812.034 2
11 -24 -1 5153.79 1120.72 1
13 11 -1 6616.12 1049.75 3
-24 13 -1 5364.64 675.789 4
-24 13 -1 3205.01 625.913 1
11 -24 2 37382.7 2076.96 1
-24 13 2 40321.6 1759.56 4
-24 13 2 37240.8 1740.69 2
13 11 2 42322.3 1992.3 3
-24 13 5 1343.86 794.978 4
-24 13 5 1016.99 757.025 2
13 11 5 1957.64 862.825 3
11 -24 5 1956.9 947.22 1
13 11 8 7281.49 1412.5 2
-24 13 8 7116.38 1307.17 4
-24 13 8 6851.9 1203.68 2
13 11 8 6726.03 1195.12 4
13 11 8 8180.06 1184.94 3
11 -24 8 6932.87 1425.54 1
13 12 -8 5616.73 1243.55 3
12 -25 -8 6477.7 1572.73 1
13 12 -5 1377.02 980.982 3
12 -25 -5 239.564 1019.97 1
12 -25 -2 7276.12 1261.97 1
-25 13 -2 6909.9 736.01 1
-25 13 -2 6675.92 726.52 4
13 12 -2 5774.48 1074.23 3
-25 13 1 5735.6 829.526 4
12 -25 1 3343.06 1025.49 1
13 12 1 3696.56 908.093 3
-25 13 1 5687.12 894.337 2
12 -25 4 3100.47 1063.08 1
-25 13 4 3182.48 851.109 4
-25 13 4 3644.44 880.033 2
13 12 4 3209.96 936.608 3
13 12 7 12074.6 1376.64 4
-25 13 7 15874 1598.65 4
12 -25 7 14284.5 1599.67 1
13 12 7 13522.8 1375.23 3
-25 13 7 14176.5 1447.89 2
13 -26 -6 23516.4 2294.11 1
13 13 -6 34712.7 2221.78 3
13 -26 -3 8649.5 1408.84 1
13 13 -3 10178.4 1325.19 3
-26 13 0 43697 1981.28 2
13 -26 0 42493.3 2327.25 1
-26 13 0 44750.7 1761.85 4
13 13 0 48028.2 2214.62 3
-26 13 3 3802.18 872.383 4
13 -26 3 2148.6 1016.43 1
13 13 3 4586.89 1042.98 3
-26 13 3 3440.64 830.502 2
-26 13 6 40164.9 2185.61 4
-26 13 6 38005.5 2128.88 2
13 -26 6 39087.4 2349.87 1
13 13 6 41076 2205.89 3
13 13 9 -1284.35 1083.31 4
-26 13 9 1216.1 1081.34 2
-26 13 9 -526.29 1079.75 4
13 13 9 -1274.9 1305.86 2
13 -26 9 1301.98 1222.11 1
13 13 9 1925.04 1002.82 3
13 14 -7 1520.59 1239.11 3
14 -27 -7 -356.126 1336.54 1
14 -27 -4 8758.93 1541.86 1
13 14 -4 10172.4 1442.19 3
-27 13 -1 701.642 553.05 4
14 -27 -1 383.919 965.667 1
13 14 -1 718.352 880.749 3
-27 13 2 2104.22 796.527 2
14 -27 2 2123.61 1018.19 1
-27 13 2 1461.71 725.313 4
13 14 2 1725.96 922.794 3
14 -27 5 1841.61 1115.28 1
-27 13 5 3934.79 1012.66 4
-27 13 5 3901.56 1038.81 2
13 14 5 2847.64 1053.51 3
13 14 8 1364.71 1031.15 4
-27 13 8 5114.37 1250.12 4
13 14 8 1333.46 1102.28 2
-27 13 8 1861.11 1057.87 2
14 -27 8 3069.16 1241.13 1
13 14 8 1827.12 998.357 3
12 14 -8 1263.93 1167.04 3
14 -26 -8 1312.4 1465.02 1
12 14 -5 13378.2 1602.72 3
14 -26 -5 14187.6 1847.32 1
14 -26 -2 930.74 1019.98 1
-26 12 -2 944.88 550.225 4
12 14 -2 1383.94 940.562 3
-26 12 1 10886.9 1043.27 4
14 -26 1 7274.14 1300.77 1
12 14 1 11000.8 1317.79 3
-26 12 1 7642.8 1032.65 2
-26 12 4 4007.05 888.536 4
14 -26 4 2255.53 963.14 1
-26 12 4 2094.1 795.221 2
12 14 4 3049.11 968.125 3
12 14 7 4560.26 1161.16 4
-26 12 7 6632.54 1198.66 4
12 14 7 5020.55 1237.37 2
-26 12 7 4344.38 1118.08 2
14 -26 7 4745.32 1216.44 1
12 14 7 3871.12 1086.94 3
11 14 -6 5027.77 1254.72 3
14 -25 -6 4730.67 1461.09 1
14 -25 -3 40128.9 2407.56 1
11 14 -3 47559.6 2289.7 3
-25 11 0 9776.66 1112.26 2
-25 11 0 10061.9 960.453 4
14 -25 0 10844.1 1348.2 1
-25 11 0 7899.48 821.949 1
11 14 0 8243.78 1175.42 3
14 -25 3 25191.1 1852.34 1
-25 11 3 29788.4 1653.8 4
-25 11 3 28525.8 1708.01 2
11 14 3 27282 1747.03 3
-25 11 6 17235.2 1511.07 4
-25 11 6 17484.1 1503.72 2
11 14 6 17823.9 1529.08 3
11 14 9 12902.1 1572 4
-25 11 9 19164.3 1817.18 4
14 -25 9 11221.2 1707.3 1
-25 11 9 15243.1 1695.62 2
11 14 9 16498.6 1878.78 2
11 14 9 14398.7 1485.18 3
10 14 -7 13608.3 1591.66 3
14 -24 -7 13650.5 1777.11 1
10 14 -4 6393.54 1171.78 3
14 -24 -4 8860.83 1401.61 1
-24 10 -1 31249.1 1389.48 4
14 -24 -1 28570.3 1878.84 1
-24 10 -1 25189.4 1066.16 1
10 14 -1 31504.1 1858.14 3
14 -24 2 14442.5 1410.33 1
10 14 2 15312.9 1033 1
-24 10 2 19000.2 1281.5 4
10 14 2 17472.5 1389.78 3
-24 10 2 15800.1 1254.65 2
-24 10 5 40056.6 2043.85 4
-24 10 5 32661.8 1859.83 2
14 -24 5 36616.3 2117.59 1
10 14 5 36010.2 1972.96 3
10 14 8 13404.6 1485.65 4
-24 10 8 14644.9 1583.05 4
10 14 8 13555.4 1662.02 2
14 -24 8 14539.2 1647.89 1
-24 10 8 12954.6 1402.91 2
10 14 8 14341.9 1399.59 3
9 14 -5 8078.07 1349.93 3
14 -23 -5 3583.76 1216.68 1
-23 9 -2 9724.45 604.582 1
14 -23 -2 8557.16 1270.07 1
-23 9 -2 8884.86 805.074 4
9 14 -2 9171.45 1163.28 3
-23 9 1 13155.4 1080.54 4
14 -23 1 15073.1 1385.33 1
9 14 1 14595.4 1040.43 1
-23 9 1 13742.6 977.109 1
-23 9 1 12339 1141 2
14 -23 4 8453.02 1238.26 1
-23 9 4 8126.12 1037 4
9 14 4 6433.16 756.514 1
-23 9 4 7303.23 989.343 2
9 14 4 8636.04 1142.68 3
9 14 7 9746.39 1368.94 2
-23 9 7 10513.5 1291.79 4
14 -23 7 11261.9 1385.9 1
9 14 7 11484.2 1336.08 4
-23 9 7 8056.72 1133.89 2
9 14 7 11215.6 1273.26 3
9 14 10 2647.08 1127.26 4
9 14 10 2865.56 1309.01 2
-23 9 10 2489.06 1136.17 4
14 -23 10 4015.5 1214.08 1
-23 9 10 2446.26 1009.46 2
8 14 -6 17199.3 1629.89 3
14 -22 -6 15110.6 1696.41 1
14 -22 -3 29099.2 1945.35 1
8 14 -3 41573.3 2064.23 3
-22 8 0 22835 1031.5 1
-22 8 0 24668.2 1441.8 2
14 -22 0 24741.7 923.424 2
14 -22 0 25043.2 1701.1 1
-22 8 0 28946.2 1351.63 4
8 14 0 23422.6 1538.03 3
8 14 3 65002.9 1893.63 1
-22 8 3 68590.2 2274.13 4
8 14 3 76458.7 2503.72 3
-22 8 3 76220.3 2439.26 2
14 -22 3 73825.6 2606.87 1
8 14 6 6706.46 1092.27 4
-22 8 6 6270.71 1025.32 4
8 14 6 5891.07 1129.94 2
14 -22 6 9966.46 1296.78 1
-22 8 6 7118.13 1081.86 2
8 14 6 7649.97 1073.96 3
-22 8 9 12106.4 1474.22 4
14 -22 9 12459.9 1563.98 1
8 14 9 13873.8 1651.7 2
-22 8 9 12645.2 1422.11 2
8 14 9 12335.2 1505.54 4
8 14 9 14071.4 1395.18 3
7 14 -7 18410.8 1641.21 3
14 -21 -7 18403.1 1967.53 1
7 14 -4 11511 1363.02 3
14 -21 -4 9713.2 1350.08 1
-21 7 -1 63477.7 1833.83 4
14 -21 -1 62457.2 2474.36 1
-21 7 -1 59128.9 1274.33 1
14 -21 -1 62572.9 1652.38 2
14 -21 2 45270.2 2054.62 1
7 14 2 42419.8 1562.22 1
7 14 2 45460.9 1929.64 3
-21 7 2 49864.5 1840.26 4
-21 7 2 41612.8 1572.96 1
-21 7 2 46421.5 1872.17 2
-21 7 5 47040.1 2088.37 4
-21 7 5 50403.9 2091.18 2
14 -21 5 48926.9 2195.42 1
7 14 5 51711.4 2094.41 3
7 14 8 30653.3 1947.99 4
7 14 8 36093.5 2317.78 2
-21 7 8 36200.1 2091.38 4
14 -21 8 37667.2 2282.16 1
-21 7 8 32840.5 1993.87 2
7 14 8 36275.5 1902.38 3
6 14 -5 10126.5 1259.73 3
14 -20 -5 7877.32 843.029 3
14 -20 -5 8563.19 1363.47 1
14 -20 -2 18864.8 1106.01 2
-20 6 -2 18370.6 562.455 1
14 -20 -2 21399.5 1541.53 1
6 14 -2 19265 1472.06 3
-20 6 1 18093.4 1112.21 4
14 -20 1 19589.3 1426.81 1
6 14 1 18193.2 1073.78 1
-20 6 1 17432.3 934.185 1
14 -20 1 18874 646.084 2
6 14 1 19021.4 1347.15 3
-20 6 1 18865.9 1208.98 2
14 -20 4 20735.3 1466.84 1
-20 6 4 19760.4 1308.77 4
-20 6 4 19697.4 1330.83 2
6 14 4 18114.2 1085.1 1
6 14 4 21761.6 1372.31 3
6 14 7 17110.4 1445.39 4
6 14 7 13787 1458.1 2
-20 6 7 14358.8 1372.55 4
14 -20 7 14709.2 1423.35 1
-20 6 7 14037.2 1359.4 2
6 14 7 16621.4 1330.08 3
6 14 10 3512.76 1121.83 4
-20 6 10 3629.05 1078.75 4
6 14 10 5277.67 1434.63 2
14 -20 10 3750.91 1196.04 1
-20 6 10 3285.5 1012.49 2
5 14 -6 8031.37 1196.14 3
14 -19 -6 7583.72 1379.01 1
14 -19 -6 8907.24 754.902 3
14 -19 -3 47933.7 2209.07 1
5 14 -3 45227.3 1451.26 2
-19 5 0 25361.6 1361.96 2
-19 5 0 25948.8 926.62 1
14 -19 0 28291.2 984.862 2
5 14 0 24009.4 1253.65 1
14 -19 0 25000.5 1531.09 1
-19 5 0 26578.4 1222.57 4
5 14 0 27438.5 1535.51 3
14 -19 3 17624 1278.47 1
5 14 3 15329.6 998.662 1
-19 5 3 15060.9 1143.48 2
-19 5 3 15941.6 1147.14 4
5 14 3 15881 1207.64 3
-19 5 6 19517.6 1418.98 4
14 -19 6 15669.7 530.729 2
14 -19 6 17714.3 1446.2 1
5 14 6 18370 1576.79 2
-19 5 6 17842.5 1352.77 2
5 14 6 16699.2 1376.18 4
14 -19 6 14936.8 487.237 2
5 14 6 18263.5 1307.19 3
-19 5 9 4904 1074.82 4
14 -19 9 5123.5 1186.55 1
-19 5 9 5110.63 1044.21 2
5 14 9 6283.19 1306.84 2
5 14 9 6462.16 1125.62 4
5 14 9 7230.41 1033.56 3
14 -18 -7 76142.7 1327.19 3
4 14 -4 78648.2 2657.9 3
4 14 -4 75658.8 1833.12 2
14 -18 -4 74001.3 2781.9 1
14 -18 -1 72575 1730.47 2
-18 4 -1 71267.3 1890.85 4
14 -18 -1 72319.5 2386.76 1
4 14 -1 71951.2 1740.16 2
14 -18 2 53971 2024.69 1
4 14 2 54464.5 1969.68 3
14 -18 2 51814.4 892.567 2
-18 4 2 54453.1 1664.84 1
-18 4 2 59169.3 1909.92 4
4 14 2 51449.3 1655.58 1
-18 4 2 56234.9 1928.26 2
4 14 5 46863.4 2012.94 4
14 -18 5 43035.6 867.642 2
-18 4 5 49691.7 1987.52 4
14 -18 5 39470.1 752.679 2
-18 4 5 42249.7 1487.5 3
4 14 5 48834.9 2092.47 2
14 -18 5 44198.1 1970.66 1
-18 4 5 51556.1 1995.18 2
4 14 5 50078.2 1926.69 3
4 14 8 48077 2338.66 4
14 -18 8 45540.8 1400.27 2
-18 4 8 48234.7 2245.37 4
14 -18 8 47669.9 2350.52 1
-18 4 8 45961.9 2206.15 2
4 14 8 44396.6 2390.67 2
4 14 8 48281.4 1953.08 3
4 14 11 28266.1 2173.38 4
4 14 11 29034.2 2470.13 2
-18 4 11 27892.3 2080.37 2
14 -18 11 30430.5 2243.77 1
14 -18 11 31430.8 1961.47 3
-18 4 11 27072.8 2063.64 4
14 -17 -5 1064.58 515.119 3
14 -17 -5 585.467 942.132 1
3 14 -5 -34.9677 869.32 3
3 14 -5 990.136 432.968 2
3 14 -2 7643.29 1077.02 3
14 -17 -2 7127.03 750.414 2
3 14 -2 9159.28 633.187 2
14 -17 -2 9077.58 1067.7 1
-17 3 1 26457.5 991.018 1
14 -17 1 24446.5 1419.48 1
14 -17 1 25842.5 808.987 2
3 14 1 23758 1164.52 1
-17 3 1 26787.6 1255.08 4
3 14 1 27040 1463.22 3
-17 3 1 26195.9 1330.16 2
14 -17 1 27437.6 1025.44 4
3 14 4 29788.1 1595.46 2
14 -17 4 25611.6 713.253 2
-17 3 4 29972.6 1506.65 4
14 -17 4 25816.3 639.95 2
-17 3 4 27715.1 1428.27 2
14 -17 4 29208.9 1521.88 1
3 14 4 28025.7 1430.01 3
3 14 7 2494.67 837.175 4
14 -17 7 2133.8 482.939 2
-17 3 7 2335.39 816.857 4
-17 3 7 2903.19 803.431 2
14 -17 7 877.621 771.36 1
3 14 7 1553.56 950.454 2
3 14 7 2830.15 801.881 3
3 14 10 6406.49 1289.59 4
3 14 10 5430.37 1322.18 2
-17 3 10 4622.17 1064.3 4
14 -17 10 6862.99 1077.01 3
14 -17 10 5856.83 1164.34 1
-17 3 10 5472.64 1096.29 2
2 14 -6 14183.4 924.223 2
14 -16 -6 16216 678.363 3
14 -16 -6 15118.2 1603.82 1
14 -16 -6 15413.5 760.868 3
2 14 -3 13808.6 1270.11 3
14 -16 -3 13555.9 967.69 3
14 -16 -3 15901.6 1307.92 1
2 14 -3 13823.4 718.116 2
2 14 0 34713.7 1195.56 2
-16 2 0 34308.7 1511.41 2
14 -16 0 35010.9 1595.74 1
14 -16 0 33830.6 1203.18 4
14 -16 0 33581.5 1055.28 2
2 14 0 35624.3 1430.45 1
-16 2 0 35905.9 1396.45 4
-16 2 0 33735 841.5 1
2 14 0 39503.8 1772.48 3
-16 2 3 31587.7 1448.7 4
-16 2 3 30688.1 1440.01 1
14 -16 3 31015.2 754.873 2
-16 2 3 34393.3 1486.54 2
14 -16 3 30126.5 1461.76 1
2 14 3 28616.3 1307.16 1
2 14 3 33695.1 1543.39 3
14 -16 6 23612.7 941.572 2
2 14 6 22939.7 1636.18 2
14 -16 6 27809.8 1051.63 2
-16 2 6 24628.9 1099.89 3
14 -16 6 26386.7 1550.51 1
-16 2 6 27692.3 1529.86 2
2 14 6 27729.4 1638.14 4
-16 2 6 25894.6 1517.56 4
2 14 6 26110.3 1383.98 3
14 -16 9 9201.23 1243.93 1
14 -16 9 7851.54 886.536 2
-16 2 9 6344.42 1083.7 4
2 14 9 6603.97 1187.05 4
14 -16 9 8566.6 1128.07 3
2 14 9 7370.48 1293.74 2
-16 2 9 8122.91 1149.05 2
2 14 9 9098.92 986.243 3
14 -15 -4 97669.5 2087.14 3
1 14 -4 100493 2805.62 3
14 -15 -4 95168.8 2962.61 1
1 14 -4 97745.1 1753.58 2
14 -15 -1 152454 2427.16 2
14 -15 -1 152810 2648.88 4
14 -15 -1 154568 3128.69 1
1 14 -1 148881 2106.79 2
14 -15 2 112087 2557.68 1
14 -15 2 111801 1605.77 4
14 -15 2 110539 1518.74 2
-15 1 2 119022 2540.83 4
-15 1 2 108567 2271.83 1
1 14 2 104810 2293.83 1
-15 1 2 117648 2535.83 2
1 14 2 114060 2650.68 3
14 -15 5 175063 2404.73 2
1 14 5 172724 3550.76 4
1 14 5 165785 3575.3 2
-15 1 5 166963 3350.96 4
-15 1 5 166721 2667.64 3
14 -15 5 177042 3433.08 1
-15 1 5 172130 3362.92 2
1 14 5 175207 3188.43 3
14 -15 5 166881 2216.92 2
1 14 8 26156.7 1891.36 2
-15 1 8 26491.6 1625.74 2
14 -15 8 26848.5 1728.06 1
14 -15 8 28914.4 1370 2
1 14 8 26252.7 1780.92 4
-15 1 8 27389.2 1657.44 4
1 14 8 27087.1 1385.05 3
-15 1 11 28686 1965.9 4
14 -15 11 27496.8 2065.44 1
1 14 11 25652.6 2034.21 4
1 14 11 28848.3 2302.56 2
14 -15 11 28890.6 1796.42 3
-15 1 11 24688.5 1905.44 2
14 -14 -5 2169.68 486.158 3
14 -14 -5 1886.69 859.122 1
0 14 -5 2575.64 484.704 4
14 -14 -5 1803.08 352.687 3
0 14 -5 1967.52 429.107 2
0 14 -2 6062.88 1040.84 3
14 -14 -2 5544.53 614.327 2
0 14 -2 5657.48 590.288 4
14 -14 -2 5778.77 861.407 1
0 14 -2 5893.48 425.355 2
0 14 1 -678.321 782.025 3
-14 0 1 830.973 547.469 2
14 -14 1 661.784 314.117 4
-14 0 1 335.304 450.032 4
14 -14 1 474.239 560.425 1
14 -14 1 717.858 283.122 2
-14 0 1 425.574 350.834 1
0 14 1 1161.32 512.652 1
0 14 4 11543.2 1010.77 4
0 14 4 10133.3 1012.92 2
-14 0 4 12958.1 1012.27 4
-14 0 4 10362.8 771.537 3
14 -14 4 10085.9 895.637 1
-14 0 4 11029.8 903.377 2
14 -14 4 11217.7 591.734 2
0 14 4 11042.1 947.301 3
0 14 7 1426.48 649.751 3
-14 0 7 1186.57 675.316 4
0 14 7 1710.89 923.106 2
14 -14 7 779.094 729.992 1
-14 0 7 1021.3 430.267 3
14 -14 7 1768.73 598.038 2
-14 0 7 2131.91 756.452 2
0 14 7 1065.56 787.42 4
14 -14 10 19874.9 1648.85 1
0 14 10 12818.8 1497.84 4
14 -14 10 17239.4 1308.31 2
-14 0 10 17983.9 1522.46 4
14 -14 10 16695.1 1381.16 3
-14 0 10 17423.8 1546.84 2
0 14 10 18030.7 1815.97 2
-1 14 -6 13221 795.723 2
14 -13 -6 13161 483.165 3
-1 14 -6 11565.2 766.05 4
14 -13 -6 12277 569.773 3
-1 14 -3 38013.4 1753.32 3
-1 14 -3 37642.9 870.937 2
-1 14 -3 34759.8 1180.99 4
14 -13 -3 36391.2 1741.45 1
-1 14 0 5522.15 1040.31 3
-13 -1 0 6033.74 755.209 2
14 -13 0 5717.2 730.361 1
-13 -1 0 5823.97 363.79 1
-13 -1 0 5048.95 381.105 1
14 -13 0 4814.49 493.493 2
-13 -1 0 5314.11 664.021 4
-1 14 0 6622.77 763.55 1
14 -13 0 5514.01 545.975 4
-1 14 3 10898.6 972.818 3
-1 14 3 10620.2 901.176 1
-1 14 3 11422.2 927.833 2
14 -13 3 10770.2 384.94 4
-1 14 3 13223 1039.31 4
-13 -1 3 9915.02 884.225 4
-13 -1 3 11161.8 790.014 3
14 -13 3 11603.8 600.793 2
-13 -1 3 12067.1 917.677 2
14 -13 3 12432 911.457 1
-1 14 6 10217.3 1075.68 4
-1 14 6 10625.4 1196.46 2
-13 -1 6 9922.68 982.253 4
14 -13 6 9849.05 976.655 1
14 -13 6 9238.39 783.431 2
-13 -1 6 9769.86 953.869 2
-13 -1 6 9516.81 762.022 3
-1 14 6 10287.9 929.803 3
-13 -1 9 13658.2 1271.2 4
-1 14 9 12968.4 977.736 3
-1 14 9 12470.1 1374.35 4
14 -13 9 13444.2 1159.67 2
-1 14 9 11034.1 1475.25 2
14 -13 9 13052.3 1339.91 1
14 -13 9 14046 1239.56 3
-13 -1 9 12606.5 1221.82 2
-2 14 -7 93378.3 1977.19 4
-2 14 -7 95986.7 2142.67 2
-2 14 -4 25766.3 748.805 2
-2 14 -4 22298.8 908.977 4
14 -12 -4 21582.6 832.022 3
14 -12 -4 23115.6 1509.82 1
-2 14 -1 154658 3251.97 3
14 -12 -1 153839 2547.46 4
-2 14 -1 143343 2797.5 1
-2 14 -1 151451 1664.04 2
14 -12 -1 153870 2416.72 2
14 -12 -1 138697 2752.13 1
-2 14 2 129127 2768.3 3
14 -12 2 127898 2470.62 1
-2 14 2 124989 2350.35 2
-2 14 2 130610 2601.1 4
-12 -2 2 132004 2534.71 4
14 -12 2 125288 1609.16 4
-12 -2 2 124600 2351.48 3
14 -12 2 122534 1819.46 2
-12 -2 2 128862 2478.99 2
-2 14 2 122257 2493.21 1
-2 14 5 121952 2516.89 3
14 -12 5 125280 2248.84 2
-2 14 5 128407 3015.68 4
-12 -2 5 130617 2834.43 4
14 -12 5 124231 2640.96 1
-2 14 5 131532 3073.72 2
-12 -2 5 123631 2294.28 3
-12 -2 5 124475 2680.65 2
-2 14 8 109068 2310.76 3
-2 14 8 109968 3258.54 4
14 -12 8 113155 2770.14 2
-2 14 8 112213 3469.76 2
14 -12 8 117774 2999.68 3
-12 -2 8 117812 3059.5 4
14 -12 8 115514 3112.57 1
-12 -2 8 121907 3131.67 2
-2 14 11 44163 2694.45 2
14 -12 11 42034.6 2070.91 3
-12 -2 11 42195.8 2193.91 4
-12 -2 11 39370 2217.94 2
14 -12 11 43344.6 2182.9 2
14 -12 11 46470.5 2472.06 1
-2 14 11 44084.2 2473.97 4
-3 14 -5 40104.4 1037.87 2
14 -11 -5 41409.9 939.648 3
-3 14 -2 69704.5 2198.19 3
14 -11 -2 68488.9 1783.73 2
14 -11 -2 65713.8 1549.52 3
-3 14 -2 66247.2 833.68 2
14 -11 -2 69353 2080.6 1
14 -11 -2 63804.9 1784.73 4
-11 -3 1 29667.9 1254.65 2
-3 14 1 31679.6 1532.65 3
-11 -3 1 29632.6 1235.04 4
-11 -3 1 28892.1 952.455 1
14 -11 1 30819.1 966.63 4
14 -11 1 32144.7 1254.12 1
14 -11 1 29718.4 970.606 2
-11 -3 1 29138.3 1197.04 3
-3 14 1 30486.1 1052.26 2
-3 14 1 27246 1256.26 1
-3 14 4 10265.9 886.209 3
-3 14 4 14797.4 1083.08 4
-3 14 4 13408.1 1048.44 2
14 -11 4 13905.5 763.908 2
-11 -3 4 12943.2 955.075 4
14 -11 4 11868 957.221 3
14 -11 4 11495.2 855.137 1
-11 -3 4 11589 797.85 3
-11 -3 4 13321.9 913.577 2
-3 14 7 22890 1132.79 3
14 -11 7 25950 1380.33 2
-3 14 7 24563 1561.15 4
-3 14 7 22965.8 1634.12 2
14 -11 7 23485.2 1369.93 1
-11 -3 7 24116.2 1363.95 4
14 -11 7 25246.5 1425.41 3
-11 -3 7 24911.2 1402.45 2
-11 -3 7 24330.5 1069.64 3
-3 14 10 17096.7 1593.04 4
14 -11 10 16106 1467.36 1
-11 -3 10 20553 1526.72 4
14 -11 10 16166.7 1320.78 3
14 -11 10 16406.6 1384.99 2
-11 -3 10 15846.3 1407.9 2
-3 14 10 19471.5 1818.57 2
14 -10 -6 1322.39 260.799 3
-4 14 -6 1575.26 350.459 4
14 -10 -6 1539.8 199.807 3
-4 14 -6 1468.96 403.048 2
-4 14 -3 68010.4 1429.34 4
14 -10 -3 72352 1486.93 3
14 -10 -3 72058.8 2242.51 1
-4 14 0 7819.92 1030.2 3
-4 14 0 6736.54 472.493 2
14 -10 0 6041.36 668.984 3
14 -10 0 8256.94 624.48 4
-10 -4 0 8390.97 447.829 1
14 -10 0 8018.58 607.29 2
-4 14 0 8391.18 822.659 1
-10 -4 0 9352.43 766.831 3
14 -10 0 7660.05 726.99 1
-4 14 3 37787.2 1480.13 3
-4 14 3 41227.3 1567.21 4
-4 14 3 40976.9 1467.03 2
14 -10 3 39374.8 1500.29 3
-10 -4 3 39220.8 1429.1 4
14 -10 3 42124.1 834.904 4
-10 -4 3 41044.6 1420.26 2
14 -10 3 41509.2 1316.47 1
14 -10 3 40602.9 1214.16 2
-10 -4 3 40925.1 1367.85 3
-4 14 6 660.328 556.28 3
-4 14 6 1350.85 697.436 4
-4 14 6 876.249 697.373 2
-10 -4 6 2476.28 650.983 4
14 -10 6 1050.99 609.897 3
14 -10 6 1305.35 543.954 1
-10 -4 6 1066.46 452.907 3
-10 -4 6 1996.46 586.159 2
14 -10 9 25157.9 1601.62 2
14 -10 9 25429.8 1601.55 1
-10 -4 9 29574.2 1623.17 4
14 -10 9 24493.7 1473.25 3
-10 -4 9 27875.9 1637.82 2
-4 14 9 20871 1735.27 2
-4 14 9 26662.8 1776.28 4
-4 14 12 2706.99 1114.02 4
14 -10 12 3670.74 1088.15 2
-4 14 12 1098.12 1127.51 2
-10 -4 12 3735.41 1008.49 4
14 -10 12 2032.36 1003.28 1
-10 -4 12 2658.11 1002.81 2
-5 14 -7 72982 1381.44 4
-5 14 -4 17463.3 654.198 4
14 -9 -4 17022.7 698.605 3
-5 14 -1 298431 1665.83 2
-9 -5 -1 295437 2164.86 1
14 -9 -1 293202 3338.51 2
14 -9 -1 298482 3673.4 1
-5 14 -1 292017 1677.61 2
14 -9 -1 295002 3434.27 4
-5 14 -1 293411 3937.85 1
14 -9 -1 299841 3315.68 3
-9 -5 -1 287098 3589.91 3
-5 14 2 248670 3630 1
-5 14 2 268533 3671.77 3
14 -9 2 267822 3039.32 1
-5 14 2 259244 3518.67 4
-5 14 2 261046 3137 2
-9 -5 2 241029 3257.23 3
-9 -5 2 279288 3531.73 4
-9 -5 2 269402 3278.7 1
14 -9 2 272023 2497 4
14 -9 2 270114 3039.06 2
-9 -5 2 239371 3157.01 2
-5 14 5 108151 2192.39 3
-9 -5 5 94661.3 2319.25 4
14 -9 5 102203 1175.62 4
-5 14 5 107202 2730.34 4
-5 14 5 105998 2717.3 2
14 -9 5 104827 1125.57 4
-9 -5 5 106622 2331.12 2
14 -9 5 112808 2301.16 1
14 -9 5 109344 2575.56 3
-9 -5 5 99469 2135.98 3
14 -9 8 58538.5 2151.75 1
-9 -5 8 59874.7 2112.16 4
-5 14 8 60671.6 2434.29 4
14 -9 8 56991.7 2048.62 3
-9 -5 8 58794.7 2120.42 2
14 -9 8 56891.8 2228.37 2
-5 14 8 60586.8 2572.15 2
-5 14 11 30486.2 2139.54 4
14 -9 11 30246.5 2012.47 2
14 -9 11 25288.9 1832.18 1
-5 14 11 30805.8 2322.18 2
-9 -5 11 29725.4 1774.71 4
14 -9 11 31824.4 1748.51 3
-9 -5 11 28152.6 1800.56 2
-6 14 -8 14833.9 627.208 4
-6 14 -5 94388.7 1288.22 4
14 -8 -5 92197.2 1391.79 3
-8 -6 -2 24187 708.027 1
14 -8 -2 22391.7 1203.3 1
14 -8 -2 21818.5 1073.68 4
14 -8 -2 22692.2 1070.36 2
14 -8 -2 21762 920.98 3
-8 -6 -2 25586.8 1139.46 3
-8 -6 1 261460 3244.96 2
-6 14 1 252770 2643.32 2
14 -8 1 260812 3384.79 3
14 -8 1 254131 2947.79 2
14 -8 1 262676 2762.8 4
-8 -6 1 258364 2782.17 1
14 -8 1 256423 2815.59 1
-8 -6 1 253283 3355.27 3
-6 14 1 257899 3245.69 4
-6 14 1 262158 3657.64 1
14 -8 4 60912.8 1067.35 4
14 -8 4 61650.3 1712.85 2
-6 14 4 60086.6 1891.45 2
-6 14 4 63737.2 2013.97 4
-8 -6 4 61828.9 1775.22 4
14 -8 4 58924.9 1836.76 3
14 -8 4 59650.4 1477.02 1
-8 -6 4 59505.8 2009.76 1
-8 -6 4 64201.7 1705.71 2
-8 -6 4 60394.9 1682.05 3
-8 -6 7 34261.8 1335.39 3
-6 14 7 38293.4 1893.48 4
14 -8 7 35523.1 863.087 4
-6 14 7 37873.4 1968.97 2
14 -8 7 38436.5 1604.96 1
-8 -6 7 35999.2 1572.97 4
14 -8 7 35134.7 831.496 4
14 -8 7 37532.9 1629.98 3
-8 -6 7 36508 1554.36 2
14 -8 7 34757.9 1675.52 2
14 -8 10 7065.08 1170.29 2
14 -8 10 5927.27 997.753 1
-6 14 10 8022.18 1194.12 4
-6 14 10 8555.7 1408.19 2
-8 -6 10 8679.75 1043.39 4
14 -8 10 8662.92 996.097 3
-8 -6 10 7066.76 1046.37 2
-8 -6 10 6145.11 1313.12 1
-7 14 -6 102.651 142.826 4
14 -7 -6 -94.7996 209.724 3
-7 14 -3 224247 1991.28 4
-7 -7 -3 226626 2519.32 1
-7 14 0 28357.5 720.294 2
-7 14 0 25843.4 998.309 4
14 -7 0 25491.9 1002.14 4
14 -7 0 25988.7 1000.28 1
14 -7 0 26550.3 1101.43 3
-7 -7 0 24331.4 851.424 1
14 -7 0 26015.5 1028.15 2
-7 14 0 24864.8 1216.28 1
-7 -7 0 26473.1 1156.46 3
14 -7 3 177439 2734.14 2
-7 14 3 178917 2857.16 2
14 -7 3 179624 2040.18 4
-7 -7 3 186153 3102.31 1
-7 -7 3 182009 2874.57 4
14 -7 3 179109 2994.03 3
-7 14 3 183914 3147.35 4
-7 -7 3 168769 2896.55 3
14 -7 3 176100 2260.14 1
-7 -7 3 185140 2696.44 2
14 -7 6 4500.8 417.921 4
-7 14 6 6030.42 910.903 4
-7 14 6 3543.21 785.918 2
14 -7 6 5299.86 645.664 1
14 -7 6 5323.05 731.6 3
-7 -7 6 5919.06 1018.2 1
14 -7 6 4948.14 410.741 4
-7 -7 6 4558.15 633.793 2
-7 -7 6 5134.67 682.461 3
-7 -7 6 5685.71 720.051 4
-7 -7 9 24080.1 1431.79 4
-7 14 9 27064 1823.81 4
14 -7 9 29773.1 1844.55 2
14 -7 9 28319.9 1616.52 1
-7 14 9 27266.5 1905.98 2
-7 -7 9 26208 1495.12 2
14 -7 9 28675.4 1552.5 3
-7 -7 9 32759.2 2242.74 1
14 -7 9 26569.8 961.852 4
-7 14 12 3744.85 1196.04 4
-7 -7 12 2020.58 845.444 2
-7 -7 12 677.095 1274.94 1
14 -7 12 1864.67 1071.72 2
14 -7 12 3880.93 1096.01 1
-7 14 12 5210.74 1475.06 2
-7 -7 12 2724.76 858.12 4
-8 14 -4 44192.6 679.364 4
14 -6 -4 44666.1 1130.09 3
-8 14 -4 44091.6 682.542 4
14 -6 -1 242735 3131.49 1
-6 -8 -1 229586 2608.61 1
14 -6 -1 238178 2970.39 3
14 -6 -1 243606 3154.54 4
-8 14 -1 228775 3413.75 1
14 -6 -1 231241 3096.19 2
-8 14 -1 241984 1267.95 2
-6 -8 -1 250052 3342.74 3
-8 14 -1 234598 2525.06 4
-6 -8 2 28399.7 1058.54 2
14 -6 2 27144.7 832.437 1
-6 -8 2 27894.8 1156.28 1
-8 14 2 27361.5 1044.97 2
14 -6 2 28345.7 937.872 4
14 -6 2 27125.8 1230.31 3
-8 14 2 28247.5 1215.72 4
-6 -8 2 30021.1 1259.93 3
14 -6 2 27010.7 1096.55 2
-6 -8 5 61510 2208.65 1
-8 14 5 58107.1 2048.16 4
-8 14 5 58060.5 1992.48 2
-6 -8 5 60602.1 1760.27 4
14 -6 5 61641.1 1269.17 4
14 -6 5 60952.3 1891.2 3
-6 -8 5 63750.2 1685.57 2
14 -6 5 64471.1 1565.63 1
14 -6 8 31712.6 1098.9 4
-8 14 8 32339.4 1837.27 4
14 -6 8 33675.1 1895.19 2
14 -6 8 34253.5 1601.28 1
-8 14 8 32737.4 1917.6 2
-6 -8 8 34608.9 1569.68 4
14 -6 8 31763.4 1543.71 3
-6 -8 8 34385.6 1559.05 2
-6 -8 8 37544.5 2206.07 1
14 -6 11 15833 1466.93 1
-6 -8 11 13887.6 1815.9 1
-8 14 11 12563.7 1520.15 4
-8 14 11 13044.8 1701.42 2
-6 -8 11 14306.5 1250.15 4
-6 -8 11 15368.1 1381.56 2
14 -6 11 15692 1291.39 3
14 -6 11 13491.7 1595.38 2
14 -5 -5 144135 1970.56 3
-9 14 -2 149971 1716.83 4
14 -5 -2 142776 2628.63 4
-5 -9 -2 154771 2230.95 1
14 -5 -2 148535 2289.98 3
-5 -9 -2 150485 2649.73 3
-9 14 -2 144856 2830.85 1
-9 14 1 295922 3897.33 1
-9 14 1 299262 3409.68 4
14 -5 1 317086 3247.98 4
-9 14 1 303749 2845.65 2
-5 -9 1 310717 3359.88 1
14 -5 1 319827 3732.65 3
-5 -9 1 309042 3840.83 3
14 -5 1 305555 3503.66 2
14 -5 1 308142 2509.98 1
-9 14 4 32973.7 1483.34 4
-5 -9 4 35700.8 1631.11 1
-9 14 4 31995.7 1396.92 2
14 -5 4 32854.9 1000.95 4
-5 -9 4 34144.4 1295.95 4
14 -5 4 32342.1 1375.85 3
14 -5 4 31085.4 925.718 1
-5 -9 4 36665.4 1198.19 2
14 -5 7 61965.9 1548.38 4
-5 -9 7 61628.1 2563.53 1
-9 14 7 63116.9 2395.74 4
14 -5 7 60650.4 1853.24 1
-9 14 7 59712.5 2321.21 2
-5 -9 7 62664.5 1933.16 4
14 -5 7 57953.7 1981.07 3
-5 -9 7 62301.4 1867.26 2
14 -5 10 35861.2 1761.35 3
-5 -9 10 39311.3 2522.79 1
14 -5 10 35976.9 1882.05 1
-9 14 10 39218.9 2220.89 4
-5 -9 10 38466.9 1758.78 4
-9 14 10 37415.4 2277.72 2
-5 -9 10 35529.6 1788.59 2
14 -5 10 33516.4 2128.54 2
14 -4 -6 80.6705 324.502 3
-4 -10 -3 73687.7 1809.66 1
14 -4 -3 76543.4 1614.81 3
-4 -10 -3 72767.9 1870.94 3
-10 14 -3 72667.5 885.865 4
14 -4 0 22479.6 989.687 4
-10 14 0 24235.8 694.052 2
14 -4 0 23472.2 1078.84 3
-10 14 0 23362.4 921.346 4
14 -4 0 21494.9 1017.37 2
-4 -10 0 24794.2 1166.04 3
-10 14 0 22805.9 1137.93 1
-4 -10 0 25321.3 1026.47 1
14 -4 3 120601 1399.81 1
-10 14 3 118994 2322.61 2
-4 -10 3 120187 2614.14 1
-10 14 3 119358 2535.9 4
14 -4 3 119060 1979.95 4
14 -4 3 118228 2478.46 3
-4 -10 3 116779 1960.76 2
-4 -10 6 5600.88 983.466 1
14 -4 6 5724.89 608.277 1
14 -4 6 5649.64 567.116 4
-10 14 6 6327.87 909.835 2
-4 -10 6 5728.01 676.153 4
14 -4 6 6008.67 793.46 3
-4 -10 6 6078.19 656.56 2
14 -4 6 4198.57 578.217 4
-10 14 6 5025.05 865.846 4
-4 -10 9 33751.6 1596.37 2
14 -4 9 33841.4 1684.49 1
14 -4 9 34185.5 2015.09 2
-4 -10 9 33524.9 2270.9 1
14 -4 9 35913.1 1383.56 4
-10 14 9 33168.5 1976.43 4
-4 -10 9 33063.6 1563.54 4
-10 14 9 37446.1 2121.56 2
14 -4 9 33926.7 1654.18 3
14 -4 12 1992.33 1231.14 2
-4 -10 12 6083.35 1633.39 1
-10 14 12 3216.17 1199.72 4
14 -4 12 3128.33 1012.7 1
-10 14 12 3061.93 1218.12 2
-4 -10 12 5362.15 1025.99 2
14 -3 -7 27449.9 968.753 3
14 -3 -4 14902.9 769.112 3
-3 -11 -4 16098.9 1024.4 1
14 -3 -1 43867 1439.14 4
-11 14 -1 40606.1 1050.58 4
-3 -11 -1 42204.4 1363.05 1
-11 14 -1 42495.4 1544.93 1
14 -3 -1 42243.4 1387.26 3
-3 -11 -1 41395.5 1462.98 3
-11 14 -1 43039.5 832.357 2
14 -3 2 38657.5 1219.6 4
-11 14 2 40912.9 1446.87 4
-3 -11 2 41116.7 1452.31 1
14 -3 2 40638.3 1468.26 3
-11 14 2 41082.1 1263.48 2
-11 14 5 9252.05 958.451 4
-3 -11 5 9938.2 1030.86 1
14 -3 5 11286.7 622.105 1
14 -3 5 9539.92 692.006 4
-3 -11 5 9962.5 783.067 4
-11 14 5 9694.66 977.195 2
14 -3 5 10712.9 913.307 3
-3 -11 5 11378.3 711.694 2
14 -3 8 18834.2 1090.1 4
-3 -11 8 21461.1 1746.62 1
14 -3 8 19548 1199.12 1
-11 14 8 19426.5 1484.98 4
-11 14 8 17100.6 1502.08 2
14 -3 8 16501.8 1460.41 2
-3 -11 8 20042.8 1151.67 2
14 -3 8 18899.3 1243.26 3
-3 -11 8 19696.8 1157.96 4
14 -3 11 6053.5 1300.23 2
-11 14 11 6221.26 1264.2 4
-3 -11 11 5334.32 1401.04 1
14 -3 11 5441.85 966.755 1
-11 14 11 6861.73 1420.42 2
-3 -11 11 3832.71 776.29 4
-3 -11 11 5121.98 904.379 2
14 -3 11 4793.42 902.038 3
-2 -12 -5 167632 3311.14 1
14 -2 -5 163813 2381.02 3
-12 14 -2 97081 1318.59 4
-12 14 -2 96160.4 2292.16 1
-2 -12 -2 100180 2174.7 1
14 -2 -2 93535.3 1952.3 3
-2 -12 -2 96631.4 2191.27 3
-12 14 1 149284 2861.63 1
-12 14 1 154140 2482.68 4
14 -2 1 151957 2504.42 4
-12 14 1 148719 2100.69 2
14 -2 1 159702 2772.99 3
-2 -12 1 154017 2635.52 1
-2 -12 4 55681 1961.66 1
-12 14 4 55528 1894.08 4
14 -2 4 52298.2 1484.2 4
14 -2 4 51550.4 890.971 1
14 -2 4 53768.2 1763.9 3
-12 14 4 53967.7 1774.31 2
-2 -12 4 56325.2 1340.49 2
-12 14 7 66669.8 2441.25 2
14 -2 7 70567.8 1901 1
-12 14 7 67885.1 2500.92 4
-2 -12 7 67293.5 1875.17 4
14 -2 7 68663.6 2153.22 3
-2 -12 7 70517.9 1841.14 2
14 -2 7 73371.2 1968.63 4
14 -2 7 65223.2 2041.83 1
-2 -12 7 71907.4 2770.24 1
-2 -12 10 40193.8 1714.01 4
-12 14 10 41637.2 2318.98 4
14 -2 10 37998.4 2403.92 2
14 -2 10 40174 1693.5 4
-2 -12 10 43252.3 2615.77 1
14 -2 10 41710.5 1961 1
-2 -12 10 40663.4 1804.24 2
14 -2 10 37249.4 1817.61 3
-12 14 10 45733.6 2504.66 2
-1 -13 -6 644.535 704.95 1
14 -1 -6 1695.29 514.824 3
14 -1 -3 16210.6 878.432 3
-13 14 -3 16364.2 384.168 4
-13 14 0 17258.4 827.811 4
14 -1 0 18108.3 952.82 4
14 -1 0 17997.5 1020.95 3
-13 14 0 17066.2 701.128 2
-13 14 0 17359.4 1046.47 1
-1 -13 0 19489.9 1064.18 1
-1 -13 3 38109.7 1025.41 2
-13 14 3 39404.5 1535 4
14 -1 3 37395.1 1310.34 4
-13 14 3 35893 1359.82 2
14 -1 3 36921.7 1469.58 3
-13 14 6 2311.88 755.449 2
-1 -13 6 3054.85 898.04 1
14 -1 6 3125.29 468.174 1
-13 14 6 2543.2 807.218 4
14 -1 6 2637.89 547.916 1
14 -1 6 3449.12 715.934 3
-1 -13 6 2178.4 438.631 2
14 -1 9 38275.3 1660.27 4
-1 -13 9 39801.8 2404 1
-13 14 9 36994.4 2090.25 4
14 -1 9 36591 1720.59 3
14 -1 9 38940.2 1748.51 1
-1 -13 9 37959.8 1544.94 4
-1 -13 9 42352.1 1659.46 2
-13 14 9 37584 2095.79 2
14 -1 9 37926.1 2253.3 2
14 0 -7 152.031 557.618 3
0 -14 -4 8708.64 940.173 1
14 0 -4 8910.89 733.727 3
-14 14 -1 570.241 301.303 2
-14 14 -1 416.743 289.875 4
0 -14 -1 659.28 562.994 1
14 0 -1 173.763 501.323 3
-14 14 -1 455.298 426.42 1
14 0 2 3505.22 552.644 4
0 -14 2 3552.67 669.924 1
-14 14 2 3580.15 591.758 4
-14 14 2 3019.57 495.325 2
14 0 2 3596.87 695.222 3
-14 14 5 2257.56 682.896 2
-14 14 5 2062.2 708.994 4
14 0 5 1526.5 262.133 1
0 -14 5 1674.54 725.849 1
14 0 5 1700.39 609.138 3
0 -14 5 1933.62 381.563 2
14 0 5 2148.48 324.837 1
14 0 8 -54.6367 627.224 4
14 0 8 367.357 835.462 2
14 0 8 516.073 510.333 1
-14 14 8 -667.237 793.09 4
0 -14 8 83.3388 821.316 1
0 -14 8 360.726 460.7 4
-14 14 8 931.943 790.277 2
14 0 8 266.084 617.099 3
0 -14 8 303.272 445.817 2
14 0 11 458.256 1104.75 2
-14 14 11 1569.5 1020.92 4
0 -14 11 1588.05 1147.67 1
-14 14 11 1725.71 1058.43 2
0 -14 11 446.013 588.708 2
14 0 11 1376.85 768.295 3
14 1 -8 4303.88 730.92 3
1 -15 -5 228815 4271.25 1
14 1 -5 233997 3249.9 3
-15 14 -2 57005.3 1107.62 4
-15 14 -2 50887.7 1709.29 1
1 -15 -2 54658.1 1889.6 1
14 1 -2 53124.2 1631.85 3
-15 14 1 136155 2412.06 4
-15 14 1 136048 2226.67 2
14 1 1 140359 2744.59 3
1 -15 1 131496 2688.52 1
1 -15 4 123672 1683.69 2
-15 14 4 119869 2664.65 2
-15 14 4 121727 2832.39 4
1 -15 4 124131 3004.36 1
14 1 4 115240 2659.86 3
14 1 7 75745.7 1825.34 1
-15 14 7 70623.1 2573.61 4
1 -15 7 71786.4 2785.83 1
14 1 7 68277 1852.52 1
-15 14 7 69674.6 2508.41 2
14 1 7 71148.3 2254.17 3
1 -15 7 73411.1 1680.78 2
14 1 7 72645 2195.69 4
14 1 10 50345.9 2070.43 1
14 1 10 45798.4 2041.63 4
1 -15 10 50648.4 1845 2
-15 14 10 48121 2514.76 4
1 -15 10 47631.8 2729.6 1
-15 14 10 48976.9 2554.19 2
14 1 10 45119.4 2614.97 2
14 1 10 47196.3 2063.35 3
2 -16 -6 12899.4 1319.59 1
14 2 -6 15375.1 1066.7 3
-16 14 -3 59432.6 932.098 4
14 2 -3 57512.3 1709.66 3
2 -16 -3 58046.2 2075.66 1
-16 14 0 38461.8 1234.44 4
14 2 0 36290.5 1443.11 3
-16 14 0 40201.8 1246.63 2
-16 14 3 31310.1 1433.78 4
2 -16 3 30067.4 1499.5 1
-16 14 3 30589.5 1341.79 2
14 2 3 31731.6 1465.07 3
2 -16 6 15389.3 1408.06 1
-16 14 6 14466.2 1262.06 4
14 2 6 14270.5 704.738 1
-16 14 6 16556.7 1286.19 2
14 2 6 15205.1 1127.41 3
14 2 6 13003.5 687.067 1
2 -16 6 14818.8 698.568 2
14 2 9 16126.2 1271.12 4
14 2 9 14207.9 1111.75 1
-16 14 9 13503.2 1447.85 4
2 -16 9 16604.3 1704.99 1
14 2 9 11523.1 1548.48 2
2 -16 9 14271.3 940.093 2
14 2 9 13821.6 1186.4 3
-16 14 9 14757.8 1483.08 2
14 3 -7 6060.94 879.736 3
3 -17 -7 8464.41 1307.56 1
3 -17 -4 10588.3 1126.8 1
14 3 -4 7465.18 815.85 3
-17 14 -1 33280.7 1179.45 2
3 -17 -1 32013.7 1561.8 1
-17 14 -1 31926.4 1028.55 4
-17 14 -1 30170.6 1323.01 1
14 3 -1 32070 1375.38 3
-17 14 2 7722.95 758.668 4
-17 14 2 7096.77 700.015 2
14 3 2 7076.01 810.658 3
3 -17 2 6077.45 850.731 1
14 3 5 604.37 183.85 1
3 -17 5 1032.03 254.988 2
14 3 5 440.102 180.338 1
-17 14 5 862.12 656.889 4
14 3 5 1435.17 682.525 3
3 -17 5 659.305 707.27 1
-17 14 5 538.357 646.849 2
14 3 8 19465.6 1364.04 4
14 3 8 19301.5 1670.17 2
14 3 8 17167 1077.6 1
-17 14 8 22545 1651.76 2
-17 14 8 25021.7 1795.09 4
3 -17 8 18972.7 1686.94 1
14 3 8 18961 1321.51 3
3 -17 8 22913.9 989.198 2
3 -17 11 2796.54 1236.88 1
14 3 11 1318.65 1230.86 2
14 3 11 2378.56 913.093 4
-17 14 11 2039.59 1037.06 4
-17 14 11 1286.46 1007.11 2
14 3 11 1454.46 786.212 3
14 4 -8 15053.5 1258.96 3
4 -18 -5 73873.1 2733.92 1
14 4 -5 76092.4 2175.54 3
-18 14 -2 42198.5 1080.85 4
-18 14 -2 36638.1 1495.42 1
4 -18 -2 39886.6 1803.02 1
14 4 -2 41068.2 1579.2 3
-18 14 1 87735.1 2059.45 4
14 4 1 92566 2410.93 3
-18 14 1 90512.7 2063.73 2
4 -18 1 87927.3 2476.44 1
-18 14 4 132795 3055.58 4
4 -18 4 126709 3195.48 1
-18 14 4 130684 2896.01 2
14 4 4 132382 2975.28 3
-18 14 7 32450.3 1913.95 4
4 -18 7 33523.2 2038.65 1
-18 14 7 35923.3 1932.53 2
14 4 7 33643 1700.83 4
14 4 7 35058 1658.03 3
4 -18 7 33353.9 969.921 2
4 -18 10 21480.5 2002.62 1
14 4 10 20327.1 1577.58 4
14 4 10 21295.7 2076.09 2
-18 14 10 27591.2 2032.88 4
-18 14 10 25284.5 1986.07 2
14 4 10 25590.8 1604.14 3
5 -19 -6 16085.4 1569.29 1
14 5 -6 12461.5 1145.11 3
-19 14 -3 26853.2 831.622 4
5 -19 -3 25476.6 1573.81 1
14 5 -3 27773.3 1395.33 3
-19 14 0 7812.94 682.871 4
5 -19 0 7445.91 1001.58 1
-19 14 0 8433.67 726.265 2
14 5 0 7940.67 901.479 3
-19 14 3 45564.2 1792.02 4
-19 14 3 41936.5 1629.27 2
5 -19 3 42078.5 1900.29 1
14 5 3 41880.6 1745.55 3
14 5 6 21117.2 773.666 1
5 -19 6 23431 1733.94 1
-19 14 6 25687 1624.43 4
-19 14 6 26084.1 1586.72 2
14 5 6 26884 1513.39 3
14 5 9 5408.69 1232.35 2
14 5 9 4270.77 940.308 4
-19 14 9 4469.98 1096.34 4
5 -19 9 5488.04 1281.68 1
14 5 9 5359.76 984.796 3
-19 14 9 4530.54 1087.47 2
14 6 -7 14982.1 1338.2 3
6 -20 -7 12151.6 1498.17 1
6 -20 -4 17071.3 1550.45 1
14 6 -4 17787.1 1206.77 3
-20 14 -1 20054.3 1118.77 2
-20 14 -1 17049 876.671 4
6 -20 -1 16124 1338.31 1
14 6 -1 18503.4 1227.89 3
-20 14 2 33569.5 1482.94 4
-20 14 2 31861.7 1412.26 2
14 6 2 31758.8 1554.3 3
6 -20 2 27960.1 1614.8 1
14 6 5 17714.2 495.999 1
6 -20 5 19328.6 1497.76 1
-20 14 5 21694.6 1404.85 2
14 6 5 20142.5 1337.14 3
14 6 8 5287.5 1007.26 4
-20 14 8 7360.67 1140.22 4
-20 14 8 6798.84 1136.48 2
6 -20 8 5839.32 1273.02 1
14 6 8 6055.77 993.481 3
14 6 8 6173.3 1197.59 2
14 7 -8 14416.7 1402.88 3
7 -21 -5 40238 2373.05 1
14 7 -5 44611 1911.65 3
14 7 -2 28611.6 1516.89 3
-21 14 -2 26156.4 1297.59 1
7 -21 -2 28361.2 1737.23 1
-21 14 -2 30028.1 1071.63 4
7 -21 1 37727.8 1881.99 1
-21 14 1 40178.5 1524.6 4
14 7 1 39677.8 1734.69 3
-21 14 1 37867.7 1566.8 2
14 7 4 10909.4 1100.62 3
-21 14 4 10435.2 1079.99 4
-21 14 4 11230.7 1070.41 2
7 -21 4 13532.7 1317.83 1
7 -21 7 9549.18 1389.97 1
-21 14 7 6926.01 1105.19 2
-21 14 7 6576.61 1095 4
14 7 7 8073.5 1053.7 3
14 7 10 9264.45 1638.77 2
-21 14 10 9434.37 1468.04 4
7 -21 10 10205.1 1570.47 1
-21 14 10 12266.3 1542.24 2
14 7 10 8350.55 1290.96 4
14 7 10 9902.94 1245.03 3
14 8 -6 1390.61 911.695 3
8 -22 -6 2070.16 1112.68 1
-22 14 -3 59683.7 1448.31 4
14 8 -3 65407.3 2279.22 3
8 -22 0 25793.5 1716.66 1
-22 14 0 25982.4 1205.68 4
14 8 0 28082 1554.69 3
-22 14 0 24718.2 1312.01 2
14 8 3 47516.5 1993.1 3
8 -22 3 47378.3 2126.52 1
-22 14 3 48940 1924.44 4
-22 14 3 46992.3 1844.05 2
-22 14 6 24135.5 1682.41 4
8 -22 6 27602.8 1861.69 1
-22 14 6 23442.5 1635.39 2
14 8 6 25039.4 1571.19 3
14 8 9 21625.2 1680.55 4
14 8 9 22848.2 2068.93 2
-22 14 9 22184.3 1855.06 4
8 -22 9 23062.6 2077.04 1
-22 14 9 25314.1 1962.11 2
14 8 9 24321 1685.17 3
14 9 -7 14398 1481.8 3
9 -23 -7 14660.1 1782.82 1
14 9 -4 1895.26 926.387 3
9 -23 -4 3048.02 1130.21 1
-23 14 -1 25859.4 1394.63 2
9 -23 -1 26452.7 1822.17 1
-23 14 -1 25240.7 1146.38 4
14 9 -1 26653.4 1603.93 3
-23 14 2 12266.3 1051.17 4
-23 14 2 11444.1 1040.94 2
14 9 2 10800.7 1157.53 3
9 -23 2 10043.4 1274 1
-23 14 5 4880.42 957.54 4
-23 14 5 2263.35 832.393 2
14 9 5 4791.94 954.367 3
9 -23 5 3004.82 1017.65 1
14 9 8 8887.67 1532.03 2
-23 14 8 6796.57 1253.64 4
9 -23 8 8411.78 1429.97 1
-23 14 8 6251.42 1118.39 2
14 9 8 7123.53 1170.04 4
14 9 8 4715.56 970.393 3
14 10 -8 8406.17 1296.07 3
10 -24 -8 7547.22 1618.53 1
10 -24 -5 29646.3 2265 1
14 10 -5 35638.8 1956.07 3
-24 14 -2 24072.9 1110.13 4
10 -24 -2 26123.3 1824.7 1
14 10 -2 26410 1642.86 3
10 -24 1 27291.3 1824.45 1
-24 14 1 30968.5 1483.97 4
14 10 1 33231.8 1892.4 3
-24 14 1 31963.3 1606.72 2
10 -24 4 273.245 854.55 1
-24 14 4 1120.85 647.075 4
-24 14 4 2103.81 778.733 2
14 10 4 2854.96 872.602 3
-24 14 7 8877.28 1310.51 4
10 -24 7 8330.76 1285.02 1
-24 14 7 8552.95 1211.48 2
14 10 7 8579.78 1148.33 3
14 11 -6 9004.54 1349.8 3
11 -25 -6 8320.52 1592.15 1
11 -25 -3 30906.3 2088.51 1
14 11 -3 30843.2 1826.54 3
-25 14 0 8356.16 981.812 2
11 -25 0 8472.64 1284.44 1
-25 14 0 7876.39 829.095 4
14 11 0 7979.28 1156.88 3
-25 14 3 53405.4 2133.26 4
-25 14 3 50091 2065.38 2
14 11 3 52906.2 2299.28 3
11 -25 3 52445.2 2430.84 1
-25 14 6 11273.9 1336.35 4
-25 14 6 14487.9 1395.25 2
11 -25 6 13843.3 1576.04 1
14 11 6 10390.9 1254.79 3
14 11 9 17120 1930.63 2
14 11 9 15258.2 1601.84 4
-25 14 9 17112.4 1825.44 4
11 -25 9 19039 2008.17 1
-25 14 9 17335.7 1760.59 2
14 11 9 18773.7 1646.88 3
14 12 -7 9084.05 1472.34 3
12 -26 -7 8071.15 1594.01 1
14 12 -4 5244.71 1148.72 3
12 -26 -4 4699.4 1331 1
12 -26 -1 14684.2 1550.81 1
-26 14 -1 15996.6 1060.75 4
14 12 -1 15739.9 1423.98 3
12 -26 2 4779.56 1187.92 1
-26 14 2 4404.75 845.654 4
-26 14 2 4923.83 913.177 2
14 12 2 3822.51 1020.54 3
-26 14 5 14326 1408.71 4
-26 14 5 16967 1480.74 2
12 -26 5 18843.3 1662.71 1
14 12 5 13139.5 1399.43 3
14 12 8 2391.87 996.118 4
14 12 8 2170.79 1292.6 2
-26 14 8 3938.65 1179.01 4
-26 14 8 3166.13 1121.61 2
12 -26 8 2951.26 1187.31 1
14 12 8 1230.15 952.707 3
14 13 -8 1701.22 1186.35 3
13 -27 -8 2355.41 1422.47 1
14 13 -5 3313.18 1110.87 3
13 -27 -5 -128.05 1198.86 1
13 -27 -2 64.4194 1005.69 1
-27 14 -2 1560.59 547.596 4
14 13 -2 466.901 918.904 3
-27 14 1 2401.08 798.629 2
13 -27 1 1128.92 934.031 1
-27 14 1 2846.24 763.675 4
14 13 1 2281.94 920.957 3
-27 14 4 4525.62 1010.28 4
-27 14 4 4386.81 969.363 2
14 13 4 4251.3 1016.03 3
13 -27 4 6000.68 1305.93 1
14 13 7 1494.77 945.586 4
-27 14 7 512.242 937.091 4
-27 14 7 431.174 871.748 2
14 13 7 1660.67 1016.81 3
13 -27 7 292.324 966.919 1
14 14 -6 7268.01 1467.13 3
14 -28 -6 5287.89 1439.15 1
14 14 -3 27895.7 1977.14 3
14 -28 -3 23728 2058.12 1
-28 14 0 14717 1366.33 2
14 -28 0 16399.4 1750.82 1
-28 14 0 17256.2 1209.72 4
14 14 0 13185.1 1451.84 3
14 -28 3 20328.5 1807.87 1
-28 14 3 19952 1514.81 4
14 14 3 19093.8 1651.38 3
-28 14 3 19210.1 1523.17 2
-28 14 6 22087.6 1818.77 4
-28 14 6 20705.7 1750.98 2
14 14 6 18178.1 1681.6 3
14 15 -7 4349.36 1388.8 3
15 -29 -7 3035.45 1586.19 1
14 15 -4 -288.381 1049.91 3
15 -29 -4 2337.19 1297.5 1
15 -29 -1 633.563 977.033 1
-29 14 -1 138.94 596.589 4
14 15 -1 -1321.04 1046.79 3
14 15 2 52.487 947.33 3
-29 14 2 196.388 758.844 2
-29 14 2 1002.83 743.271 4
15 -29 2 -188.499 945.022 1
15 -29 5 1845.67 1138.18 1
-29 14 5 4347.52 1068.64 4
-29 14 5 2492.17 944.856 2
14 15 5 3403.56 1043.98 3
14 15 8 915.738 1046.51 4
-29 14 8 1381.87 1060.97 4
14 15 8 -281.982 1107.83 2
-29 14 8 -1418.82 1089.29 2
14 15 8 51.7875 1007.62 3
15 -29 8 -1460.86 1183.59 1
13 15 -8 25.7513 1237.11 3
15 -28 -8 2582.94 1438.69 1
13 15 -5 1963.47 1132.12 3
15 -28 -5 4096.34 1402.59 1
13 15 -2 3217.81 1173.28 3
15 -28 -2 2829.49 1271.38 1
-28 13 -2 2674.29 642.711 4
-28 13 1 8802.91 1197.96 2
15 -28 1 8578.57 1391.11 1
-28 13 1 7501.81 987.391 4
15 -28 4 3671.64 1070.92 1
-28 13 4 6049.82 1048.42 4
-28 13 4 2757.65 879.107 2
13 15 4 3849.92 1078.7 3
15 -28 7 1282.94 1065.84 1
13 15 7 1367.43 1183.97 2
13 15 7 2902.49 1157.05 4
-28 13 7 3630.62 1132.52 4
-28 13 7 1176.68 892.103 2
13 15 7 882.891 965.112 3
12 15 -6 9351.05 1496.72 3
15 -27 -6 9258.11 1628.85 1
15 -27 -3 28955.8 2184.2 1
12 15 -3 29636.5 1974.47 3
-27 12 0 2604.63 824.425 2
-27 12 0 3719.22 773.583 4
15 -27 0 4708.85 1142.85 1
12 15 0 5282.01 1153.17 3
15 -27 3 39865.3 2254.7 1
-27 12 3 46897.7 2121 4
-27 12 3 40429.8 2056.65 2
12 15 3 40223.9 2179.18 3
15 -27 6 6967.46 1329.21 1
-27 12 6 8116.75 1273 2
12 15 6 6890.18 1242.26 3
-27 12 6 6836.65 1184.97 4
11 15 -7 14956.4 1717.76 3
15 -26 -7 14760.8 1968.55 1
11 15 -4 3879.89 1157.36 3
15 -26 -4 3129.19 1240.87 1
-26 11 -1 28958.1 1437.73 4
15 -26 -1 28881.7 2032.32 1
-26 11 -1 25666.1 1108.97 1
-26 11 2 12502.3 1141.87 4
15 -26 2 14586.4 1523.98 1
11 15 2 11835.1 1301.07 3
-26 11 2 11226.5 1167.27 2
15 -26 5 6795.88 1277.44 1
-26 11 5 8053.55 1147.38 4
-26 11 5 8177.16 1139.83 2
11 15 5 10885.6 1285.23 3
11 15 8 8720.61 1551.59 2
11 15 8 6532.46 1216.37 4
-26 11 8 8197.29 1358.61 4
15 -26 8 6428.27 1446.46 1
-26 11 8 7632.5 1250.77 2
11 15 8 6777.32 1240.35 3
10 15 -8 4010.41 1245.53 3
15 -25 -8 5380.26 1518.62 1
10 15 -5 8064.84 1391.1 3
15 -25 -5 6594.22 1484.66 1
10 15 -2 5773.08 1176.78 3
-25 10 -2 4481.46 495.889 1
15 -25 -2 5138.01 1178.02 1
-25 10 -2 4874.31 720.576 4
15 -25 1 9216.92 1259.42 1
-25 10 1 8547.28 967.063 4
10 15 1 9766.44 1280.16 3
-25 10 1 8152.31 1065.25 2
15 -25 4 6472.34 1153.95 1
-25 10 4 6347.56 1008.57 4
-25 10 4 6391.92 1049.73 2
10 15 4 5884.39 1080.7 3
10 15 7 1524.61 1084.71 2
10 15 7 2893.12 989.498 4
-25 10 7 1696.59 1006.81 4
-25 10 7 3075.18 1002.2 2
15 -25 7 5628.2 1273.25 1
10 15 7 1578.62 870.974 3
9 15 -6 29783.1 2033.85 3
15 -24 -6 25457.7 2165.8 1
15 -24 -3 30902.3 2175.02 1
9 15 -3 41184.8 2228.62 3
9 15 0 6004.24 1118.21 3
-24 9 0 5197.52 910.432 2
-24 9 0 2614.98 569.448 1
-24 9 0 3986.9 722.051 4
15 -24 0 2627.83 1046.71 1
15 -24 3 32453.7 1948.79 1
-24 9 3 30684.3 1632.19 4
-24 9 3 36118 1822.03 2
9 15 3 31571.5 1829.48 3
9 15 6 6777.18 1086.15 3
-24 9 6 9696.03 1220.47 4
-24 9 6 7983.43 1200.02 2
9 15 6 6744.71 1182.64 4
15 -24 6 6225.17 1192.52 1
9 15 9 20141.2 2041.72 2
9 15 9 19662.7 1790.7 4
-24 9 9 21992.3 1934.66 4
15 -24 9 17524.3 1884.96 1
-24 9 9 18471.1 1724.25 2
9 15 9 18643.8 1659.28 3
15 -23 -7 13042.3 1820.91 1
8 15 -7 15203.2 1679.36 3
8 15 -4 29184.7 1925.62 3
15 -23 -4 25420.6 1985.88 1
-23 8 -1 87915.3 2273.54 4
15 -23 -1 85517.6 2958.76 1
15 -23 -1 79389.5 1924.9 2
8 15 -1 82275.9 2745.42 3
-23 8 2 4371.2 850.896 2
15 -23 2 3724.52 996.469 1
8 15 2 3580.08 648.427 1
-23 8 2 3091.9 738.928 4
8 15 2 3170.09 955.607 3
-23 8 5 42744.9 2083.93 2
15 -23 5 39553.3 2114.61 1
8 15 5 45004.9 2095.38 3
8 15 8 8180.14 1315.6 4
-23 8 8 7757.92 1270.41 4
8 15 8 7774.99 1458.5 2
-23 8 8 6937.42 1211.16 2
15 -23 8 6158.02 1247.77 1
8 15 8 8168.82 1168.98 3
7 15 -5 10929 1388.89 3
15 -22 -5 10716.7 1437.62 1
15 -22 -2 36317.6 2059.9 1
7 15 -2 38620.1 2016.6 3
-22 7 1 588.299 629.317 2
15 -22 1 880.719 261.272 2
15 -22 1 697.545 923.195 1
-22 7 1 1368.88 607.837 4
-22 7 1 933.561 491.033 1
7 15 1 1848.91 826.365 3
15 -22 4 3809.02 933.209 1
-22 7 4 3682.81 828.008 4
-22 7 4 3063.45 787.896 2
7 15 4 2443.56 878.826 3
7 15 7 5863.6 1091.42 4
7 15 7 4198.56 1148.74 2
-22 7 7 5982.55 1101.47 4
-22 7 7 4934.91 1052.74 2
15 -22 7 4110.27 1061.56 1
7 15 7 4042.41 921.846 3
-22 7 10 1080.77 1089.57 4
15 -22 10 21.1743 1051.68 1
7 15 10 645.786 1035.19 4
-22 7 10 2023.42 1012.74 2
7 15 10 -970.757 1271.87 2
6 15 -6 29641.1 1975.17 3
15 -21 -6 27846.7 2188.99 1
6 15 -3 18744.3 1635.82 3
15 -21 -3 26331.1 1849.84 1
-21 6 0 38458.2 1750.11 2
-21 6 0 39491.1 1187.99 1
15 -21 0 42648 1983.63 1
-21 6 0 38979.1 1537.34 4
15 -21 0 40093.3 1206.85 2
6 15 0 42385.4 1956 3
-21 6 3 31397.7 1574.74 4
6 15 3 27986.2 1342.95 1
-21 6 3 31565.1 1606.56 2
6 15 3 31177.9 1700.72 3
15 -21 3 33049.2 1803.8 1
6 15 6 9778.36 1235.37 4
6 15 6 10653 1320.53 2
-21 6 6 10001 1161.78 4
15 -21 6 11048.3 1293.6 1
-21 6 6 9298.77 1127.23 2
6 15 6 13350.5 1231.41 3
6 15 9 8201.04 1475.76 2
-21 6 9 12840.7 1510.22 4
15 -21 9 10743.5 1507.09 1
-21 6 9 13764.8 1518.01 2
6 15 9 9613.19 1382.85 4
6 15 9 10904.9 1228.54 3
15 -20 -7 58369 3104.82 1
5 15 -4 19484.9 1642.92 3
15 -20 -4 16164.9 1525.79 1
15 -20 -1 68324.1 1762.64 2
-20 5 -1 70166.7 1965.62 4
15 -20 -1 69091.1 2491.21 1
-20 5 -1 66362.1 1095.7 1
5 15 -1 72381.1 2510.55 3
-20 5 2 27446.3 1266.24 1
15 -20 2 30578.8 1726.54 1
-20 5 2 32912.5 1550.98 4
15 -20 2 24295.9 598.451 2
5 15 2 29898.7 1359.39 1
-20 5 2 28086.1 1478.79 2
5 15 2 35444.3 1738.25 3
5 15 5 46291.5 2071.05 4
-20 5 5 48267 2045.26 4
-20 5 5 46330.9 1991.24 2
15 -20 5 44128.8 2076.74 1
5 15 5 48658 2229.23 2
5 15 5 42718.8 1895.97 3
-20 5 8 5997.82 1141.16 2
5 15 8 3811.47 1090.72 4
5 15 8 3635 1164.95 2
-20 5 8 4923.12 1016.21 4
15 -20 8 2921.43 1041.14 1
5 15 8 6125.54 1021.82 3
4 15 -5 23544.8 1155.6 2
15 -19 -5 26503.6 1955.03 1
15 -19 -5 23082.6 1231.59 3
4 15 -2 6377.22 1136.74 3
15 -19 -2 4945.35 695.127 2
4 15 -2 4352.74 550.43 2
15 -19 -2 6135.35 1009.86 1
4 15 1 4343.68 856.689 3
-19 4 1 4135.84 744.237 2
15 -19 1 5579.98 912.795 1
15 -19 1 5206.13 449.078 2
-19 4 1 4000.71 679.519 4
-19 4 1 5064.19 552.53 1
15 -19 4 3189.71 829.924 1
-19 4 4 2267.76 743.257 4
15 -19 4 1034.62 139.112 2
-19 4 4 2552.26 771.405 2
4 15 4 1644.28 747.646 3
4 15 7 5046.99 1213.76 2
15 -19 7 5678.47 497.782 2
-19 4 7 6596.96 1063.63 4
4 15 7 5423.84 1010.05 4
15 -19 7 4414.33 1001.24 1
-19 4 7 4956.39 949.641 2
4 15 7 5689.84 987.958 3
4 15 10 1203.06 1120.23 2
-19 4 10 1974.65 977.221 4
15 -19 10 1222.84 891.712 3
15 -19 10 726.83 952.015 1
-19 4 10 1857.92 1008.4 2
4 15 10 3725.4 1156.3 4
15 -18 -6 9113.34 1399.08 1
15 -18 -6 9204.69 732.749 3
15 -18 -3 25982 1650.16 1
3 15 -3 26429.2 1038.2 2
3 15 0 39944.5 1355.05 2
-18 3 0 39461.4 1669.55 2
15 -18 0 43915.5 1440.96 4
15 -18 0 44500.7 1256.64 2
15 -18 0 43731.4 1859.54 1
-18 3 0 43770.4 1035.4 1
-18 3 0 44289 1572.73 4
3 15 0 46177.6 1968.86 3
-18 3 3 17844.4 1167 4
15 -18 3 15991.6 520.53 2
-18 3 3 17519.5 1177.34 2
15 -18 3 17301.7 1242.78 1
3 15 3 16156.8 1225.08 3
3 15 6 36351.3 1871.06 4
15 -18 6 30871.8 999.158 2
3 15 6 37039.3 1734.98 3
15 -18 6 33453.5 1812.19 1
-18 3 6 35015.7 1805.2 4
-18 3 6 36511 1795.34 2
3 15 6 34256.8 1980.2 2
15 -18 6 33377.5 948.21 2
3 15 9 15584.7 1540.02 4
3 15 9 15082.6 1695.65 2
-18 3 9 15147 1460.4 4
15 -18 9 16212.7 1539.54 1
-18 3 9 13985.7 1407.25 2
3 15 9 14775.9 1263.44 3
15 -17 -7 74003.1 1133.55 3
15 -17 -4 24116 1257.36 3
2 15 -4 27295 1740.87 3
2 15 -4 25889.3 1011.33 2
15 -17 -4 24105.7 1672.82 1
2 15 -1 99694.5 2811.27 3
-17 2 -1 111635 2352.3 4
15 -17 -1 108678 2141.68 2
15 -17 -1 101900 2750.06 1
2 15 -1 103216 1937.81 2
15 -17 2 59450.3 2068.02 1
15 -17 2 57609.8 1126.42 2
-17 2 2 57334.4 1910.03 2
-17 2 2 61227.3 1921.35 4
-17 2 2 57690.1 1703.96 1
2 15 2 61043.9 2085.24 3
-17 2 5 95986.4 2649.54 2
-17 2 5 93803.3 2668.85 4
15 -17 5 90001 1595.93 2
15 -17 5 94647.6 2703.5 1
2 15 5 98043.4 2801.11 4
2 15 5 98959.1 2924.9 2
15 -17 5 93719.6 1515.11 2
2 15 5 98164.4 2577.79 3
2 15 8 29713 1872.81 4
2 15 8 30511.6 2082.91 2
15 -17 8 31688.1 1341.98 2
-17 2 8 28837.2 1781.82 4
15 -17 8 32381.4 1929.96 1
-17 2 8 27948.8 1730.36 2
2 15 8 28812.8 1558.43 3
15 -17 11 33772.5 2311.41 1
2 15 11 35227.4 2378.9 4
2 15 11 40242.6 2723.78 2
-17 2 11 32585.3 2140.65 4
15 -17 11 35989.6 2105.05 3
-17 2 11 34138.6 2213.9 2
15 -16 -5 1885.23 556.179 3
1 15 -5 1519.09 419.386 2
15 -16 -5 2811.26 913.788 1
1 15 -2 -90.5681 808.118 3
15 -16 -2 665.002 456.01 2
15 -16 -2 -920.218 741.839 1
1 15 -2 -149.392 264.286 2
-16 1 1 11045 933.835 2
1 15 1 12762.1 1153.65 3
15 -16 1 10296.3 664.794 4
15 -16 1 10903.4 1036.27 1
15 -16 1 10595.8 592.156 2
-16 1 1 10536.2 865.603 4
-16 1 1 10325.9 657.065 1
1 15 4 5205.02 832.213 2
-16 1 4 4189.58 716.914 4
1 15 4 4651.17 814.813 4
15 -16 4 4814.7 409.816 2
-16 1 4 4867.29 738.924 2
1 15 4 4852.07 818.128 3
15 -16 4 4400.79 718.583 1
-16 1 7 5353.84 897.13 4
15 -16 7 5724.58 661.487 2
15 -16 7 6288.25 1011.4 1
1 15 7 4440.25 983.264 4
1 15 7 5320.45 1096.79 2
-16 1 7 5426.21 902.512 2
1 15 7 7224.47 912.192 3
15 -16 10 6330.03 1068.6 3
1 15 10 7605.4 1291.04 4
1 15 10 7178.59 1371.33 2
15 -16 10 7711.7 961.046 2
-16 1 10 7636.71 1232.41 4
15 -16 10 8953.67 1360.8 1
-16 1 10 9032.98 1265.91 2
0 15 -6 15606.9 879.984 2
15 -15 -6 14972.1 741.893 3
0 15 -3 3189.47 929.312 3
0 15 -3 2361.49 465.945 4
15 -15 -3 3713.03 849.366 1
0 15 -3 3475.8 380.343 2
0 15 0 51865 1985.94 3
-15 0 0 45881.8 1696.2 2
-15 0 0 47344.4 966.904 1
15 -15 0 48499.6 1405.98 4
15 -15 0 47592.4 1291.55 2
15 -15 0 47634.6 1791.77 1
-15 0 0 51272.3 1623.89 4
0 15 3 1634.19 731.242 3
15 -15 3 1617.37 619.967 1
0 15 3 2169.9 678.015 4
-15 0 3 1901.68 624.392 4
0 15 3 1875.21 625.349 2
15 -15 3 1651.81 316.634 2
-15 0 3 2349.46 615.909 2
15 -15 6 18456.6 936.84 2
-15 0 6 21307.9 1364.26 2
15 -15 6 19420 1004.55 2
-15 0 6 19343.6 1323.79 4
0 15 6 21581.4 1541.64 2
15 -15 6 21438.7 1384.39 1
-15 0 6 20103 1043.75 3
0 15 6 21469 1476.38 4
0 15 6 21421.9 1278.55 3
0 15 9 1519.97 732.113 3
0 15 9 1940.18 1122.9 2
15 -15 9 423.021 577.518 2
-15 0 9 964.437 745.908 4
15 -15 9 459.299 724.241 3
15 -15 9 899.347 850.017 1
0 15 9 1715.12 989.511 4
-15 0 9 482.207 772.704 2
-1 15 -7 67627.8 1838.08 2
-1 15 -4 111810 1659.21 2
15 -14 -4 117580 3268.61 1
15 -14 -4 116437 1966.12 3
15 -14 -1 122832 2238.74 2
15 -14 -1 121222 2385.8 4
15 -14 -1 126501 2809.03 1
-1 15 -1 121295 1711.79 2
-1 15 2 60066.6 2016.87 3
15 -14 2 58807.5 1833.6 1
-1 15 2 53688.4 1651.95 2
15 -14 2 58197.4 1186.54 4
-14 -1 2 55236.3 1773.89 4
15 -14 2 55577.1 1244.4 2
-14 -1 2 52055.2 1717.04 2
-1 15 5 220042 3625.79 3
15 -14 5 215180 2779.75 2
-1 15 5 223342 4085.01 4
-1 15 5 224267 4146.74 2
-14 -1 5 214778 3786.64 4
15 -14 5 214739 3664.08 1
-14 -1 5 222147 3720.81 2
-1 15 8 6863.86 900.697 3
-1 15 8 7171.06 1133.98 4
15 -14 8 5739.62 993.981 1
-1 15 8 9371.27 1379.1 2
-14 -1 8 6457.6 999.239 4
15 -14 8 6651.83 872.205 2
15 -14 8 5459.22 928.307 3
-14 -1 8 6561.06 991.6 2
-1 15 11 65205.8 3240.63 2
15 -14 11 58391 2409.76 2
-14 -1 11 57946.6 2668.76 4
15 -14 11 63497.8 2910.74 1
15 -14 11 61378.4 2504.92 3
-14 -1 11 68060.1 2886.28 2
-1 15 11 64104.8 3003.29 4
-2 15 -5 5767.77 561.778 4
15 -13 -5 7202.49 498.746 3
-2 15 -5 6483.37 497.255 2
15 -13 -5 7588.33 1139.44 1
-2 15 -2 77226.9 2397.36 3
15 -13 -2 72232.3 1876.4 2
15 -13 -2 79112.7 2327.51 1
-2 15 -2 69276.6 1679.36 4
-2 15 -2 69576.5 1073.33 2
-13 -2 1 27777.8 1297.09 2
-2 15 1 25577.8 1478.99 3
-13 -2 1 29472.5 971.889 1
-2 15 1 27973.3 1068.86 2
15 -13 1 27642.8 948.017 4
15 -13 1 26242.9 1251.83 1
-13 -2 1 27873.4 1236.24 4
15 -13 1 26060.5 941.067 2
-2 15 4 3252.77 764.06 3
-2 15 4 3224.97 729.466 4
-2 15 4 3542.72 704.209 2
-13 -2 4 3091.97 649.465 4
-13 -2 4 2004.16 493.147 3
-13 -2 4 3771.72 672.014 2
15 -13 4 2324.77 601.844 1
15 -13 4 3282.62 456.193 2
-2 15 7 40929 1596.32 3
15 -13 7 39640.2 1591.83 2
-2 15 7 37213.9 2018.17 2
-13 -2 7 36917.3 1745.72 4
15 -13 7 39627.8 1843.71 1
15 -13 7 42479.2 1848.21 3
-2 15 7 39668.5 1980.68 4
-13 -2 7 37208.7 1361.84 3
-13 -2 7 42786.1 1828.72 2
-2 15 10 5118.68 1185.22 4
15 -13 10 5649.27 1001.92 2
-2 15 10 4869.83 1156.69 2
-13 -2 10 4366.72 945.609 4
15 -13 10 4240.18 1019.05 1
15 -13 10 2750.66 847.161 3
-13 -2 10 4310.8 1012.02 2
15 -12 -6 19912.7 718.015 3
-3 15 -6 18695.8 848.207 2
-3 15 -6 19042.8 857.015 4
15 -12 -6 19231.3 590.912 3
15 -12 -3 26554.6 1481.39 1
-3 15 -3 25530.2 568.974 2
-3 15 -3 26847.1 981.684 4
-3 15 0 8897.4 1095.76 3
-3 15 0 7883.93 553.283 2
-12 -3 0 9172.02 449.152 1
15 -12 0 8006.1 611.422 2
15 -12 0 8681.25 804.04 1
15 -12 0 8724.6 644.514 4
-3 15 3 20596.2 1234.03 3
15 -12 3 20116.7 588.823 4
-3 15 3 18127 1161.9 4
-12 -3 3 19452.3 1122.69 4
-3 15 3 22997.7 1193.51 2
-12 -3 3 19524.9 1032.76 3
-12 -3 3 22751.9 1150.83 2
15 -12 3 23109.5 899.521 2
15 -12 3 20707.2 1075.76 1
-3 15 6 30706 1404.48 3
15 -12 6 31488.4 1417.77 2
-3 15 6 34067.1 1766.28 4
-3 15 6 30247.8 1748.15 2
15 -12 6 29237.2 1489.48 3
15 -12 6 30062.6 1455.1 1
-12 -3 6 32856.1 1560.83 4
-12 -3 6 28830.5 1442.43 2
-12 -3 6 31448 1276.36 3
15 -12 9 4397.33 888.404 2
-3 15 9 3719.85 1110.01 2
-12 -3 9 4403.56 924.984 4
-3 15 9 3119.89 932.346 4
15 -12 9 4237.76 918.384 1
15 -12 9 3889.45 862.52 3
-12 -3 9 1583.81 763.953 2
-4 15 -7 74949.3 1580.48 4
-4 15 -4 180425 2289.33 4
15 -11 -4 180533 2242.91 3
15 -11 -4 182734 3909.95 1
-4 15 -1 202881 1683.61 2
-4 15 -1 208183 3688.56 3
-11 -4 -1 202098 1531.23 1
-4 15 -1 199580 1742.34 2
15 -11 -1 199488 2953.04 4
15 -11 -1 202820 3243.55 1
15 -11 -1 204388 2917.37 2
15 -11 -1 196448 2842.57 3
-4 15 2 62558.5 1968.34 3
-4 15 2 57052.3 1573.1 2
-4 15 2 57976 1782.11 4
15 -11 2 58883.8 1193.31 4
15 -11 2 58451.9 1615.34 1
-11 -4 2 56779.3 1710.64 4
15 -11 2 57112.5 1769.61 3
-11 -4 2 53038.1 1518.19 1
-11 -4 2 52534.2 1612.29 3
15 -11 2 57491.1 1403.15 2
-11 -4 2 53403.9 1636.21 2
-4 15 5 251708 3559.77 3
15 -11 5 250582 3454.5 2
-4 15 5 237265 4072.25 2
-4 15 5 276988 4452.83 4
-11 -4 5 235118 3809.13 4
15 -11 5 263487 4062.75 3
15 -11 5 266451 3669.36 1
-11 -4 5 255863 3476.49 3
-11 -4 5 263804 3819.21 2
-4 15 8 1603.07 597.254 3
15 -11 8 2346.73 762.226 2
-4 15 8 716.566 762.025 4
-4 15 8 3451.78 962.26 2
15 -11 8 2944.45 770.824 1
15 -11 8 756.421 686.409 3
-11 -4 8 553.065 671.169 4
-11 -4 8 1537.49 659.21 2
15 -11 11 54348.2 2328.36 3
15 -11 11 51659.4 2539.75 1
-4 15 11 50314.7 2690.15 4
-4 15 11 59073.2 3073.7 2
-11 -4 11 47690 2264.23 4
-11 -4 11 54829.7 2521.1 2
15 -11 11 56923.5 2579.29 2
-5 15 -5 27315.5 863.617 4
15 -10 -5 27771.8 837.606 3
15 -10 -2 98466.8 2448.13 1
15 -10 -2 93305.1 2104.81 2
15 -10 -2 99795.3 1915.52 3
-10 -5 -2 89645.2 1072.17 1
-10 -5 1 147728 2649.13 2
-5 15 1 140689 2865.81 3
-5 15 1 135801 2029.01 2
15 -10 1 133641 2041.65 4
-10 -5 1 143649 2626.64 4
15 -10 1 134336 2560.83 3
15 -10 1 137188 2173.44 2
15 -10 1 136401 2317.46 1
-10 -5 1 137605 2045.77 1
15 -10 4 45153.9 1415.37 2
-5 15 4 46872.1 1638.46 3
-5 15 4 52170.2 1886.89 4
-5 15 4 48186.1 1762.12 2
15 -10 4 44899.6 828.424 4
-10 -5 4 49455.9 1686.3 4
15 -10 4 44287.3 1682.95 3
15 -10 4 47083.4 1449.69 1
-10 -5 4 43829.4 1481.86 3
-10 -5 4 48039.2 1576.87 2
15 -10 7 32473.5 1616.32 2
-5 15 7 30388.5 1713.84 4
-5 15 7 31948.2 1858.72 2
-10 -5 7 32443.5 1564.95 4
15 -10 7 30345.5 1570.16 3
-10 -5 7 31992.7 1546.66 2
-10 -5 7 26928.6 1237.63 3
15 -10 7 32641.3 1539.65 1
15 -10 10 15918.7 1450.06 2
-5 15 10 16152.5 1571.83 4
-5 15 10 15350.4 1618.17 2
15 -10 10 17082.4 1473.93 1
-10 -5 10 14395 1272.65 4
15 -10 10 15325.8 1296.83 3
-10 -5 10 14991.2 1360.76 2
-6 15 -6 49020.6 1018.07 4
15 -9 -6 45686.2 899.604 3
-9 -6 -3 16418.3 648.624 1
-6 15 -3 15284 650.961 4
15 -9 -3 16774.1 777.698 3
15 -9 -3 16412.7 1216.63 1
15 -9 0 53233.4 1486.88 1
-6 15 0 54986.7 1516.29 4
15 -9 0 53038.6 1417.53 4
-6 15 0 54257.1 1037.59 2
15 -9 0 53694.4 1574.8 3
-9 -6 0 54296.2 1149.7 1
15 -9 0 52935.1 1442.89 2
-6 15 3 36904.1 1436 3
-9 -6 3 35876.1 1384.04 4
-6 15 3 36285 1376.26 2
15 -9 3 38367.4 937.492 4
15 -9 3 37776.8 1545.74 3
-9 -6 3 38134.8 1482.14 1
-6 15 3 38189.7 1543.93 4
-9 -6 3 35318.8 1350.6 3
-9 -6 3 39982.9 1384.71 2
15 -9 3 37227.5 1219.94 1
15 -9 3 34623.6 1217.87 2
15 -9 6 13677.8 957.523 1
15 -9 6 12793.4 477.982 4
-6 15 6 13187.7 1151.64 4
-6 15 6 15051.6 1271.66 2
15 -9 6 12071 448.383 4
15 -9 6 14283.5 1099.25 3
-9 -6 6 12798.7 967.427 2
-9 -6 6 13899.9 1017.6 4
-9 -6 9 10759.9 1111.43 4
15 -9 9 11451.1 1251.56 2
-6 15 9 9278.88 1209.7 4
-6 15 9 11305.7 1428.38 2
15 -9 9 9917.12 1086.13 1
15 -9 9 10642.2 1084.33 3
-9 -6 9 10369 1100.12 2
15 -9 12 1316.91 931.016 1
-6 15 12 1414.96 1116.43 2
15 -9 12 2693.38 1105.89 2
-9 -6 12 1040.63 822.683 4
-9 -6 12 1191.31 1355.52 1
-6 15 12 2085.08 1119.82 4
-9 -6 12 920.894 870.996 2
-7 15 -7 19966.4 574.149 4
-7 15 -4 91783.9 1290.17 4
15 -8 -4 97455.2 1688.22 3
15 -8 -1 282275 3545.74 1
-8 -7 -1 287195 2593.17 1
-7 15 -1 281549 2961.07 4
15 -8 -1 285061 3486.58 4
15 -8 -1 284844 3335.42 3
15 -8 -1 276432 3434.85 2
-8 -7 2 5279.44 621.659 2
-7 15 2 5917.96 748.021 4
15 -8 2 6521.61 567.16 1
-8 -7 2 6545.75 652.97 1
15 -8 2 7230.44 521.812 4
-8 -7 2 6465.82 689.607 4
-7 15 2 6907.67 632.268 2
15 -8 2 4713.41 692.64 3
-8 -7 2 6018.29 691.436 3
15 -8 2 6120.95 595.443 2
-8 -7 5 129526 3170.18 1
-7 15 5 124658 2978.99 4
-7 15 5 120846 2876.08 2
15 -8 5 125211 1597 4
-8 -7 5 126299 2624.03 4
15 -8 5 122876 2744.3 3
15 -8 5 123682 2262.37 1
-8 -7 5 125918 2509.38 2
-8 -7 8 896.919 961.049 1
-7 15 8 832.618 771.284 4
15 -8 8 691.879 276.624 4
-7 15 8 2365.45 1015.55 2
-8 -7 8 -82.8141 584.478 4
15 -8 8 808.637 670.497 3
-8 -7 8 648.733 665.774 2
15 -8 8 845.148 649.39 1
15 -8 8 2220.1 853.813 2
15 -8 11 26827.9 1967.98 2
-7 15 11 31104 2169.62 4
15 -8 11 29196.5 1874.51 1
-7 15 11 29450.7 2250.13 2
-8 -7 11 22458 1584.79 4
15 -8 11 27866.1 1691.57 3
-8 -7 11 29708.5 1837.95 2
-8 -7 11 26028.9 2330.42 1
-8 15 -5 91039.1 985.035 4
15 -7 -5 101352 1617.35 3
-8 15 -2 38087.4 982.72 4
15 -7 -2 39864.3 1228 3
-7 -8 -2 37630.3 1055.69 1
-8 15 1 302230 3576.84 4
15 -7 1 298693 3163.22 4
-8 15 1 301081 2871.64 2
-7 -8 1 298096 3222.53 1
15 -7 1 301163 3759.51 3
15 -7 1 303708 3502.19 2
15 -7 1 297750 2884.09 1
-8 15 4 88627.8 2383.97 4
-8 15 4 85884.2 2227.7 2
15 -7 4 90560.5 1514.42 4
-7 -8 4 85188.2 2099.1 4
15 -7 4 89741.9 2271.14 3
15 -7 4 84991.9 1676.57 1
-7 -8 4 82593.3 2353.12 1
-7 -8 4 86985.8 1947.64 2
15 -7 7 53270.5 1265.48 4
-8 15 7 56067.2 2264.45 4
-8 15 7 50876.8 2228.84 2
15 -7 7 53138.7 1778.12 1
-7 -8 7 57334.9 2513.55 1
-7 -8 7 54980.3 1901.63 4
15 -7 7 48579.3 1171.31 4
15 -7 7 54621.1 2000.32 3
-7 -8 7 54939.9 1852.67 2
15 -7 10 12572.4 1437.15 2
-8 15 10 12561.2 1455.07 4
15 -7 10 15511.1 1391.26 1
-7 -8 10 11430.1 1120.55 4
15 -7 10 13566.1 1237.58 3
-7 -8 10 14648.3 1312.11 2
-8 15 10 11281.8 1426.65 2
-7 -8 10 10726.1 1639.53 1
15 -6 -6 23015.9 787.187 3
-6 -9 -3 62170 1502.94 1
15 -6 -3 62709.4 1485.16 3
-9 15 -3 62758.5 1036.2 4
15 -6 0 32256.4 1060.7 1
-9 15 0 33703.8 1142.22 4
15 -6 0 34736.8 1206.56 4
-9 15 0 33599.5 792.134 2
15 -6 0 31731.7 1239.98 3
15 -6 0 33155.9 1214.39 2
-6 -9 0 32331.8 1071.56 1
15 -6 3 48104.2 1094.82 1
-9 15 3 48846.9 1702.08 4
-9 15 3 48849.6 1554.37 2
15 -6 3 49080.4 1235.5 4
-6 -9 3 48843.5 1554.3 4
15 -6 3 48339.4 1682.13 3
-6 -9 3 50054.5 1696 1
-6 -9 3 50421.8 1412.68 2
15 -6 6 27202.3 1010.97 4
-6 -9 6 28341.2 1729.67 1
-9 15 6 28790.7 1606.97 2
15 -6 6 29823.7 1223.44 1
-6 -9 6 31152.4 1371.06 4
-9 15 6 28545.5 1601.48 4
15 -6 6 30309.3 1476.66 3
15 -6 6 30142.9 980.981 4
-6 -9 6 27817.5 1232.63 2
15 -6 9 11195.3 1398.09 2
-6 -9 9 16129.7 1699.41 1
15 -6 9 13031.2 813.89 4
15 -6 9 13380.4 1148.16 1
-9 15 9 13359.7 1460.2 2
-6 -9 9 14504.5 1151.89 4
15 -6 9 13435 1192.59 3
-9 15 9 12834.1 1430.56 4
-6 -9 9 12668 1102.69 2
-6 -9 12 126.094 1386.86 1
-9 15 12 454.101 1067.8 4
-6 -9 12 2883.17 874.766 4
15 -6 12 812.805 1072.94 2
-6 -9 12 1222.3 853.4 2
15 -6 12 2015.71 930.388 1
-9 15 12 995.26 1175.99 2
15 -5 -7 16707.2 698.282 3
-5 -10 -4 58597.7 1688.28 1
15 -5 -4 53755.4 1362.44 3
-10 15 -1 79569 1508.86 4
15 -5 -1 77920.9 1898.04 4
-5 -10 -1 79766.6 1718.42 1
15 -5 -1 76377.7 1797.37 3
-10 15 -1 80694.8 958.861 2
-5 -10 2 93733.2 1864.11 2
15 -5 2 96944.4 1835.06 4
-10 15 2 93773.8 1879.88 2
-5 -10 2 85807.2 2030.59 1
-10 15 2 96698.8 2197.12 4
15 -5 2 99192.3 2282.12 3
15 -5 2 92359 1260.33 1
15 -5 2 87349.7 2028.89 2
-10 15 5 28625.2 1471.23 2
-10 15 5 24976.1 1473.08 4
-5 -10 5 27140.3 1559.51 1
15 -5 5 25617.9 955.06 4
-5 -10 5 26917.4 1246.82 4
15 -5 5 27471.9 981.392 1
15 -5 5 26005.2 1326.74 3
-5 -10 5 26527.7 1106.68 2
-5 -10 8 9116.55 1331.83 1
15 -5 8 6830.15 1123.52 2
15 -5 8 7871.31 716.51 4
-10 15 8 7952.65 1060.15 4
15 -5 8 8022 892.172 1
-10 15 8 7970.47 1095.12 2
-5 -10 8 7396.28 833.929 4
15 -5 8 8324.4 961.412 3
-5 -10 8 7900.87 861.287 2
15 -5 11 11324 1524.1 2
-10 15 11 9450.58 1391.12 4
-5 -10 11 12374 1835.99 1
-10 15 11 11809.7 1581.9 2
-5 -10 11 8439.33 1049.02 4
15 -5 11 9936.07 1213.92 1
-5 -10 11 10551.8 1173.32 2
15 -5 11 10633 1162.29 3
-4 -11 -5 195653 3500.5 1
15 -4 -5 185689 2455.07 3
-11 15 -2 73112.3 1241.98 4
-4 -11 -2 71115.7 1777.28 1
-11 15 1 266831 3351.38 4
15 -4 1 266160 3226.43 4
-11 15 1 274599 2817.16 2
15 -4 1 265664 2219.06 1
-4 -11 1 273063 3374.27 1
15 -4 1 268891 3598.04 3
-11 15 4 111038 2663.6 4
-4 -11 4 116417 2778.8 1
15 -4 4 110153 2027.43 4
-11 15 4 106971 2510.34 2
15 -4 4 117328 2617.24 3
15 -4 4 115047 1524.43 1
-4 -11 4 116544 2055.53 2
-11 15 7 105493 3058.16 4
15 -4 7 108588 2215.45 4
-11 15 7 107543 3098.12 2
-4 -11 7 105961 3309.37 1
15 -4 7 97860.3 2211.37 1
-4 -11 7 108129 2494.83 4
15 -4 7 99166.9 2092.69 4
15 -4 7 107881 2745.33 3
-4 -11 7 107338 2353.28 2
-11 15 10 10696.1 1492.31 2
15 -4 10 10346.3 1126.21 1
15 -4 10 9063 1403.67 2
-11 15 10 5727.94 1181.89 4
-4 -11 10 8286.98 998.944 4
-4 -11 10 8832.12 1520.21 1
-4 -11 10 9470.97 1028.33 2
15 -4 10 11481.1 1136.98 3
15 -3 -6 51651.2 1365.63 3
-3 -12 -3 17459.4 1030.07 1
-12 15 -3 16617.7 432.647 4
15 -3 -3 18693.6 917.053 3
-12 15 0 7566.03 624.069 4
15 -3 0 9093.31 742.888 4
15 -3 0 9030.51 785.733 3
-12 15 0 9219.16 511.553 2
-3 -12 0 9499.24 781.453 1
-3 -12 3 23909.6 918.176 2
-12 15 3 25638.5 1260.63 4
-3 -12 3 23737.5 1280.7 1
15 -3 3 23485.7 1007.02 4
15 -3 3 24689.8 1241.6 3
-12 15 3 21712.8 1063.49 2
-12 15 6 8153.34 1048.36 4
-3 -12 6 7705.22 1104.88 1
15 -3 6 8860.47 645.873 1
-12 15 6 8010.87 993.984 2
-3 -12 6 8768 783.745 4
15 -3 6 9204.5 941.3 3
-3 -12 6 7977.67 672.022 2
15 -3 6 8243.43 734.688 4
15 -3 9 5451.59 1179.24 2
15 -3 9 4460.25 721.742 4
15 -3 9 5375.01 822.032 1
-3 -12 9 5462.12 1277.13 1
-3 -12 9 4592.29 746.415 4
-12 15 9 4623.7 1129.24 2
-3 -12 9 4490.62 717.472 2
15 -3 9 5278.19 902.42 3
-12 15 9 5444.28 1057.13 4
15 -2 -7 38769.5 1304.77 3
-2 -13 -4 8962.48 940.748 1
15 -2 -4 8687.04 677.468 3
-2 -13 -1 49894.1 1589.07 1
-13 15 -1 48996.1 1204.44 4
-13 15 -1 50933.1 1061.1 2
15 -2 2 31895.6 1210.92 4
-13 15 2 33339.6 1340.36 4
-13 15 2 33013.9 1175.31 2
-2 -13 2 34043.5 1411.08 1
15 -2 2 33351.5 1417.32 3
-13 15 5 15422 1187.48 4
-2 -13 5 13874.2 1199.25 1
15 -2 5 15380.6 617.017 1
15 -2 5 13883.2 880.558 4
-2 -13 5 13711.3 766.223 2
15 -2 5 13728.2 680.654 1
-13 15 5 15444.6 1131.76 2
15 -2 8 1564.25 920.823 2
15 -2 8 1535.19 594.358 4
-13 15 8 2287.24 847.868 4
15 -2 8 1740.66 605.165 1
-2 -13 8 1021.94 975.25 1
-13 15 8 2545.08 915.242 2
-2 -13 8 2248.91 611.862 4
15 -2 8 2065.23 725.348 3
-2 -13 8 1643.94 522.437 2
15 -2 11 6499 1416.19 2
15 -2 11 6160.71 1043.74 1
-13 15 11 8228.59 1373.85 4
-13 15 11 7102.38 1315.17 2
-2 -13 11 7129.21 987.779 2
15 -2 11 6857.48 1051.45 3
-2 -13 11 7755.32 1532.72 1
15 -1 -8 25146.9 1122.38 3
-1 -14 -5 183795 3670.05 1
15 -1 -5 153551 2554.13 3
-14 15 -2 110185 1517.8 4
15 -1 -2 114091 2291.54 3
-14 15 1 154009 2587.46 4
-14 15 1 155672 2285.73 2
15 -1 1 156070 2889.59 3
-1 -14 1 157723 2880.54 1
-14 15 4 102387 2610.64 4
-1 -14 4 103496 2730 1
-14 15 4 102722 2445.96 2
15 -1 4 107667 2574.85 3
-1 -14 4 101382 1729.2 2
15 -1 7 87801.1 2131.82 1
15 -1 7 89401.5 2330.38 4
15 -1 7 94672.9 2011.03 1
-14 15 7 97786.7 3023.54 4
-1 -14 7 93980.1 3161.98 1
-14 15 7 94477.9 2902.69 2
15 -1 7 93132.1 2585.63 3
-1 -14 7 91727.5 2004.98 2
15 -1 10 7887.13 972.798 4
15 -1 10 8231.19 1046.71 1
-14 15 10 7747.76 1312.76 4
-14 15 10 8785.42 1338.7 2
-1 -14 10 7953.55 892.805 4
15 -1 10 9580.94 1478.67 2
-1 -14 10 7344.34 893.776 2
15 -1 10 8367.3 1058.63 3
-1 -14 10 8744.33 1507.94 1
0 -15 -6 22461.5 1610.64 1
15 0 -6 19923.3 1091.36 3
0 -15 -3 1199.58 620.785 1
-15 15 -3 1781.47 196.616 4
15 0 -3 1565.56 493.118 3
0 -15 0 48889.9 1707.11 1
-15 15 0 49875.5 1392.31 4
15 0 0 52097.6 1689.93 3
-15 15 0 50011 1278.46 2
-15 15 3 2838.35 649.447 4
-15 15 3 2318.63 544.321 2
0 -15 3 3189.63 681.366 1
15 0 3 2975.05 636.637 3
-15 15 6 16049.8 1346.39 4
15 0 6 16288.8 773.784 1
0 -15 6 16969.7 1432.71 1
-15 15 6 15940.7 1274.75 2
15 0 6 15684 1152.32 3
15 0 6 15378 702.918 1
0 -15 6 14807.8 777.758 2
15 0 9 1753 1018.14 2
15 0 9 857.019 688.187 4
-15 15 9 966.525 913.304 4
15 0 9 631.189 577.109 1
15 0 9 1363.36 767.152 3
0 -15 9 965.102 1003.4 1
-15 15 9 2154.51 867.455 2
0 -15 9 808.54 530.289 2
15 1 -7 10548.1 946.132 3
1 -16 -4 5340.56 876.322 1
15 1 -4 10881.5 862.219 3
1 -16 -1 29520.1 1447.4 1
-16 15 -1 26349.4 962.509 4
15 1 -1 28734.8 1321.44 3
-16 15 -1 30164 1027.77 2
-16 15 2 770.272 417.818 2
-16 15 2 1332.46 522.223 4
15 1 2 749.678 575.556 3
1 -16 2 1062.44 617.471 1
-16 15 5 6408 889.321 4
15 1 5 3997.06 235.551 1
1 -16 5 4997.38 895.069 1
-16 15 5 4362.83 748.565 2
15 1 5 4156.12 762.509 3
15 1 5 3844.99 235.661 1
1 -16 5 5053.27 446.2 2
15 1 8 1334.71 969.982 2
15 1 8 1453.78 538.638 1
-16 15 8 1793.54 803.953 4
1 -16 8 1223.5 896.873 1
-16 15 8 1234.13 867.978 2
15 1 8 1907.45 680.231 4
15 1 8 1527.33 692.402 3
1 -16 8 1689.64 484.419 2
15 1 11 294.293 1150.1 2
-16 15 11 245.549 1018.98 4
1 -16 11 2454.22 1350.74 1
-16 15 11 1140.34 1094.4 2
15 1 11 688.528 728.659 3
15 2 -8 59626.7 2011.41 3
2 -17 -5 74320 2636.78 1
15 2 -5 68547.7 1948.15 3
-17 15 -2 100414 1588.15 4
2 -17 -2 99730.6 2645.37 1
-17 15 1 113350 2309.93 4
-17 15 1 113960 2174.97 2
15 2 1 114964 2639.75 3
2 -17 4 4856.61 936.904 1
-17 15 4 3925.78 726.043 2
15 2 4 4974.99 808.547 3
-17 15 4 4747.71 771.433 4
15 2 7 118858 2935.35 4
15 2 7 123924 2139.53 1
2 -17 7 122034 3654.54 1
-17 15 7 125565 3426.1 2
15 2 7 121302 3049.05 3
2 -17 7 121637 2024.37 2
-17 15 7 125736 3508.54 4
-17 15 10 8043.76 1399.37 4
-17 15 10 7494.63 1371.27 2
15 2 10 4402.73 896.086 3
15 2 10 6885.65 1414.06 2
15 2 10 6482.03 1016.66 4
2 -17 10 7186.42 1433.73 1
3 -18 -6 49977.8 2391.12 1
15 3 -6 43119.1 1713.69 3
-18 15 -3 29274.8 772.823 4
15 3 -3 27486.3 1343.59 3
3 -18 -3 29621.1 1665.93 1
-18 15 0 46951.1 1410.48 4
15 3 0 47330.9 1745.34 3
-18 15 0 49450.2 1474.07 2
-18 15 3 43372 1732.08 4
-18 15 3 43135.5 1617.98 2
3 -18 3 41816.8 1835.5 1
15 3 3 42816.1 1735.89 3
3 -18 6 7451.75 1138.04 1
-18 15 6 8168.27 1046.33 4
15 3 6 5142.61 852.485 3
15 3 6 6488.53 439.388 1
-18 15 6 5031.63 895.451 2
15 3 6 6826.25 444.953 1
3 -18 6 5406.2 439.454 2
15 3 9 6592.17 966.065 4
-18 15 9 9084.8 1294.12 4
15 3 9 8667.31 1337.09 2
3 -18 9 9409.69 1474.72 1
-18 15 9 7995.97 1265.34 2
15 3 9 7086 1020.36 3
15 4 -7 9047.3 1090.34 3
4 -19 -7 8499.21 1379.8 1
4 -19 -4 268.398 795.195 1
15 4 -4 158.508 616.751 3
-19 15 -1 11607.4 829.898 2
-19 15 -1 10831.6 698.678 4
4 -19 -1 11247.1 1133.33 1
15 4 -1 10780.1 987.257 3
-19 15 2 12907.6 960.166 4
-19 15 2 11110.3 865.489 2
15 4 2 13539 1071.42 3
4 -19 2 12024.3 1118.09 1
-19 15 5 27317.8 1607.55 4
4 -19 5 24428.6 1645.29 1
-19 15 5 27266.5 1531.53 2
15 4 5 23618.3 1454.43 3
-19 15 8 1338.69 865.311 2
-19 15 8 674.465 798.567 4
15 4 8 1356.72 726.743 4
4 -19 8 281.475 934.379 1
15 4 8 1384.19 748.742 3
15 4 11 9002.71 1233.77 4
-19 15 11 11856.6 1583.53 4
-19 15 11 14609.7 1741.95 2
15 4 11 10721.8 1692.42 2
15 4 11 10044 1236.97 3
4 -19 11 8103.4 1676.12 1
15 5 -8 18587.2 1459.61 3
5 -20 -5 45734.5 2325.32 1
15 5 -5 46602.7 1830.74 3
-20 15 -2 36447.8 1112.17 4
15 5 -2 38775.2 1672.51 3
-20 15 1 69554.5 1940.39 4
15 5 1 69084.5 2247.07 3
-20 15 1 68759.4 1920.52 2
5 -20 1 66164.3 2333.16 1
-20 15 4 4529.13 825.89 4
5 -20 4 5174.88 1047.69 1
-20 15 4 4589.99 755.805 2
15 5 4 6697.61 901.612 3
15 5 7 60107.5 1418.52 1
15 5 7 62365.2 2318.47 3
-20 15 7 66267.5 2683.71 4
-20 15 7 65183.5 2562.09 2
5 -20 7 69244 2883.48 1
15 5 10 2184.83 944.2 4
15 5 10 4569.47 1398 2
-20 15 10 2154.53 1101.13 4
5 -20 10 3441.67 1333.89 1
-20 15 10 533.309 865.751 2
15 5 10 2253.3 911.334 3
15 6 -9 12923.5 1302.84 3
6 -21 -6 16317.3 1645.57 1
15 6 -6 16575.3 1315.46 3
-21 15 -3 14772.3 699.455 4
6 -21 -3 14080.5 1366.64 1
15 6 -3 13947 1167.51 3
6 -21 0 33824.8 1839.1 1
-21 15 0 35499.2 1352.04 4
15 6 0 37981.8 1699.48 3
-21 15 0 36675 1469.37 2
-21 15 3 27561.1 1469.15 4
-21 15 3 27063.2 1404.66 2
6 -21 3 24949.5 1611.06 1
15 6 3 25404.4 1508.37 3
-21 15 6 15376.1 1367.9 4
6 -21 6 15567.5 1530.77 1
-21 15 6 15473.9 1361.04 2
15 6 6 17307.4 1363.14 3
15 6 6 13105.7 509.061 1
15 6 9 8305.79 1192.11 4
15 6 9 6834.73 1406.27 2
-21 15 9 8854.24 1303.07 4
6 -21 9 9732.38 1532.1 1
-21 15 9 6261.8 1230.93 2
15 6 9 5851.27 1074.22 3
15 7 -7 8130.11 1157.73 3
7 -22 -7 6818.52 1414.02 1
15 7 -4 2395.36 849.318 3
7 -22 -4 3060.68 1019.57 1
-22 15 -1 980.348 555.099 2
-22 15 -1 1809.96 507.987 4
7 -22 -1 2211.85 947.023 1
15 7 -1 3120.32 827.586 3
15 7 2 35415.3 1733.92 3
-22 15 2 30682.2 1500.34 4
-22 15 2 33244.2 1546.6 2
7 -22 2 33234.9 1831.05 1
-22 15 5 19543.6 1465.4 4
-22 15 5 17998.1 1334.03 2
15 7 5 19807.4 1431.12 3
15 7 8 2925.67 904.881 4
-22 15 8 4295.88 1077.58 4
7 -22 8 4711.25 1213.13 1
-22 15 8 4104.32 998.927 2
15 7 8 2842.81 881.785 3
15 8 -8 11451 1385.07 3
8 -23 -8 11111.8 1703.6 1
8 -23 -5 23613.9 1965.05 1
15 8 -5 25821 1666.57 3
8 -23 -2 2111.29 916.002 1
-23 15 -2 3444.99 528.843 4
15 8 -2 2903.76 843.529 3
8 -23 1 59287.7 2459.3 1
-23 15 1 59227.3 1918.36 4
-23 15 1 58327.1 2010.74 2
-23 15 4 14402.7 1227.54 4
-23 15 4 17276.6 1270.9 2
8 -23 4 14424.5 1379.3 1
-23 15 7 24110.8 1808.98 4
8 -23 7 21108.7 1808.13 1
-23 15 7 20987.4 1686.02 2
15 8 7 22843.3 1586.1 3
15 8 10 -226.843 869.157 4
15 8 10 -423.096 1178.75 2
-23 15 10 1722.26 1090.04 4
8 -23 10 -293.012 1157.33 1
-23 15 10 3454.83 1223.15 2
15 8 10 559.937 867.314 3
15 9 -9 8681.17 1313.89 3
15 9 -6 19482.7 1591.41 3
9 -24 -6 21094.8 2016.48 1
-24 15 -3 26720.1 1088.57 4
9 -24 -3 27234.6 1930.27 1
15 9 -3 29858.4 1687.4 3
-24 15 0 13963.6 1146.19 2
9 -24 0 16792.6 1537.78 1
-24 15 0 14656.4 996.027 4
15 9 0 13372.8 1319.8 3
-24 15 3 49947.1 2044.86 4
9 -24 3 48790.1 2328.5 1
-24 15 3 49779.6 2041.91 2
15 9 3 50950.8 2149.34 3
-24 15 6 17294.4 1535.01 4
9 -24 6 17224.9 1632.25 1
-24 15 6 19049.5 1514.08 2
15 9 6 20930.7 1558.02 3
15 9 9 19410.4 1953.97 2
15 9 9 19400.6 1671.56 4
-24 15 9 26638.2 2107.97 4
9 -24 9 25912.8 2224.5 1
-24 15 9 25611.3 1965.72 2
15 9 9 22503 1728.98 3
15 10 -7 2939.01 1134.76 3
10 -25 -7 1220.08 1210.27 1
10 -25 -4 11381.1 1500.37 1
15 10 -4 14541.9 1397.9 3
-25 15 -1 3398.34 794.943 2
-25 15 -1 4124.95 651.085 4
10 -25 -1 4860.88 1136.18 1
15 10 -1 4781.46 1026.44 3
10 -25 2 5324.59 1141.3 1
-25 15 2 6204.98 877.203 4
-25 15 2 5412.98 890.215 2
15 10 2 4417.59 1006.63 3
-25 15 5 8851.37 1227.44 4
-25 15 5 8713.12 1094.65 2
10 -25 5 10874 1364.83 1
15 10 5 10468.7 1264.95 3
-25 15 8 2248.76 1017.35 4
15 10 8 2971.46 1036.71 4
15 10 8 2484.35 1167.55 2
-25 15 8 2771.1 1036.47 2
10 -25 8 1937.18 1178.23 1
15 10 8 2822.71 1025.57 3
15 11 -8 1196.92 1108.83 3
11 -26 -8 1863.11 1279.91 1
15 11 -5 3367.31 1049.49 3
11 -26 -5 2928.34 1206.8 1
11 -26 -2 4845.59 1196.6 1
-26 15 -2 6273.32 721.376 4
15 11 -2 6661.75 1128.79 3
11 -26 1 19864.3 1664.65 1
-26 15 1 24482.8 1397.17 4
15 11 1 22201.9 1658.74 3
-26 15 1 22802.4 1451.9 2
11 -26 4 1276.41 899.174 1
-26 15 4 1173.29 778.383 4
-26 15 4 768.164 764.638 2
15 11 4 2559.12 917.124 3
-26 15 7 14014.8 1498.97 4
-26 15 7 12663.3 1422.42 2
11 -26 7 18546.3 1843.8 1
15 11 7 15135.7 1501.24 3
15 12 -6 18694.4 1740.79 3
12 -27 -6 16724.3 1941.96 1
12 -27 -3 41069.7 2484.7 1
15 12 -3 44363.3 2272 3
-27 15 0 704.428 744.253 2
-27 15 0 3220.6 698.795 4
12 -27 0 3235.32 1109.03 1
15 12 0 3343.43 1002.58 3
12 -27 3 24562.2 1905.17 1
-27 15 3 27063.4 1654.43 4
-27 15 3 28131.2 1708.74 2
15 12 3 30921.1 1954.89 3
-27 15 6 4800.35 1105.5 4
-27 15 6 6491.36 1189.67 2
15 12 6 5127.35 1155.64 3
12 -27 6 5701.06 1206.71 1
15 13 -7 1964.04 1216.4 3
13 -28 -7 666.22 1231.69 1
15 13 -4 5871.16 1243.78 3
13 -28 -4 4807.78 1285.28 1
13 -28 -1 9192.61 1451.97 1
-28 15 -1 8739.11 899.781 4
15 13 -1 10899 1349.6 3
-28 15 2 2627.55 854.755 2
13 -28 2 2905.61 1066.54 1
-28 15 2 2581.92 796.957 4
15 13 2 2218.98 948.248 3
-28 15 5 10792.6 1310.78 4
-28 15 5 12414.8 1386.16 2
15 13 5 12790.3 1469.02 3
13 -28 5 11378.9 1507.29 1
-28 15 8 1218.8 962.924 4
15 13 8 558.448 1067.01 2
15 13 8 761.681 944.547 4
-28 15 8 1826.68 1141.58 2
15 13 8 651.052 1012.01 3
13 -28 8 2023.59 1199.51 1
14 -29 -8 1958.04 1299.2 1
15 14 -8 2563.15 1315.66 3
15 14 -5 4630.78 1264.67 3
14 -29 -5 3157.81 1369.98 1
15 14 -2 2543.46 1066.92 3
14 -29 -2 3501.89 1194.47 1
-29 15 -2 2035.3 624.573 4
14 -29 1 1568.29 1003.97 1
-29 15 1 2414.54 933.856 2
-29 15 1 1291.6 721.207 4
15 14 1 4606.72 1150.47 3
14 -29 4 1311.08 1067.69 1
-29 15 4 2496.39 931.916 4
15 14 4 2965.19 1054.8 3
-29 15 4 3137.78 958.449 2
14 -29 7 4163.69 1297.84 1
-29 15 7 2495.01 1042.45 4
-29 15 7 3689.45 1204.26 2
15 14 7 2809.83 1114.4 3
15 -30 -6 7467.49 1714.65 1
15 15 -6 10367.4 1590.62 3
15 15 -3 20088.8 1889.09 3
15 -30 -3 21016.7 2066.5 1
-30 15 0 2943.23 1016.23 2
-30 15 0 2631.75 753.021 4
15 -30 0 2805.87 1178.24 1
15 15 0 5362.32 1246.71 3
15 -30 3 20921.4 1974.6 1
-30 15 3 25674.5 1758.7 4
15 15 3 23112.9 1851.3 3
-30 15 3 24040.2 1765.1 2
15 -30 6 3488.45 1386.95 1
-30 15 6 6385.08 1293.95 4
-30 15 6 3889.32 1201.2 2
15 15 6 5250.05 1273.99 3
15 16 -7 -1240.68 1303.9 3
16 -31 -7 1740.87 1419.72 1
16 -31 -4 6818.3 1577.99 1
15 16 -4 2568.93 1255.61 3
15 16 -1 2402.15 1142.42 3
16 -31 -1 692.035 1171.74 1
-31 15 -1 1366.9 647.174 4
-31 15 2 3526.78 1018.4 2
-31 15 2 5949.62 1000.39 4
16 -31 2 6128.33 1363.54 1
15 16 2 7324.1 1299.66 3
-31 15 5 5614.83 1144.75 4
-31 15 5 4978.38 1108.01 2
15 16 5 7297.63 1365.1 3
14 16 -5 327.263 1115.08 3
16 -30 -5 -921.771 1160.02 1
14 16 -2 -1141.8 1102.07 3
-30 14 -2 1732.54 636.631 4
16 -30 -2 -635.023 1162.78 1
-30 14 1 3365.47 983.712 2
-30 14 1 4507.5 885.582 4
16 -30 1 4852.01 1352.63 1
14 16 1 4152.48 1170.49 3
16 -30 4 1391.58 1068.34 1
-30 14 4 3715.18 1014.6 4
14 16 4 1601.21 998.92 3
-30 14 4 5076.14 1167.51 2
16 -30 7 4784.61 1350.54 1
14 16 7 1690.81 1081.89 4
14 16 7 3009.43 1406.08 2
-30 14 7 3941.93 1247.03 4
-30 14 7 1972.94 1048.53 2
14 16 7 1346.58 1095.51 3
16 -29 -6 27508.2 2599.81 1
13 16 -6 32274.3 2346.77 3
16 -29 -3 7453.64 1550.86 1
13 16 -3 10025 1495.29 3
-29 13 0 26459.6 1807.09 2
16 -29 0 24264.3 2043.01 1
-29 13 0 26074.5 1484.81 4
13 16 0 27439 1953.11 3
-29 13 3 2539.86 946.97 2
16 -29 3 3184.22 1166.34 1
-29 13 3 3810.95 956.95 4
13 16 3 2344.48 1086.91 3
-29 13 6 20354.2 1778.6 4
-29 13 6 22052.3 1850.18 2
16 -29 6 25516.5 2173.04 1
13 16 6 27552.1 2002.86 3
12 16 -7 199.03 1184.75 3
16 -28 -7 859.344 1333.7 1
16 -28 -4 3658.25 1343.8 1
12 16 -4 3686.98 1278.22 3
12 16 -1 1240.19 1005.12 3
16 -28 -1 -241.828 979.553 1
-28 12 -1 372.198 621.933 4
-28 12 2 1952.19 873.707 2
-28 12 2 1550.83 741.085 4
16 -28 2 1664.62 1076.15 1
12 16 2 971.16 960.229 3
-28 12 5 904.852 842.506 4
16 -28 5 1699.19 1129.1 1
-28 12 5 547.796 893.679 2
12 16 5 2319.2 1028.18 3
12 16 8 1873.34 1109.91 4
12 16 8 2207.29 1233.25 2
-28 12 8 1065.24 994.148 4
-28 12 8 2632.64 1100.97 2
12 16 8 1430.54 1063.85 3
16 -28 8 2251.05 1278.23 1
11 16 -8 2605.94 1296.15 3
16 -27 -8 3281.47 1550.69 1
11 16 -5 5337.27 1402.07 3
16 -27 -5 5695.33 1345.04 1
-27 11 -2 9806.58 938.855 4
16 -27 -2 9445.02 1428.76 1
11 16 -2 11164.6 1451.19 3
-27 11 1 9077.33 1130.63 2
16 -27 1 10490.8 1438.05 1
-27 11 1 9029.78 1034.92 4
11 16 1 7796.69 1199.65 3
16 -27 4 11319.9 1458.57 1
-27 11 4 12319 1287.17 2
-27 11 4 9771.21 1151.96 4
11 16 4 9623.54 1309.92 3
11 16 7 2050.46 1078.87 2
16 -27 7 1142.63 1080.07 1
-27 11 7 1905.66 977.682 4
11 16 7 1851.95 1047.87 4
-27 11 7 2408.74 997.202 2
11 16 7 1528.83 1016.71 3
10 16 -6 24370.6 1989.13 3
16 -26 -6 22602.9 2178.11 1
10 16 -3 32678.8 2093.81 3
16 -26 -3 22000.7 1940.01 1
-26 10 0 42402.3 2073.81 2
-26 10 0 49071.2 1895.38 4
16 -26 0 47216.3 2417.22 1
10 16 0 46051.7 2304.3 3
-26 10 3 6862.53 1050.59 4
16 -26 3 5119.69 1234.4 1
-26 10 3 4382.72 992.559 2
-26 10 6 33541.5 2064.61 4
-26 10 6 35277.5 2097.81 2
16 -26 6 32043.6 2153.51 1
10 16 6 35213.8 2028.31 3
10 16 9 3919.77 1467.5 2
-26 10 9 3116 1190.45 4
-26 10 9 922.905 1017.12 2
16 -26 9 1181.03 1220.98 1
10 16 9 1902.01 1125.93 4
10 16 9 2363.24 1117.63 3
16 -25 -7 847.245 1137.26 1
9 16 -7 1145.05 1074.93 3
9 16 -4 5552.96 1268.08 3
16 -25 -4 8705.6 1515.72 1
-25 9 -1 13149.1 1038.61 4
-25 9 -1 9345.87 655.277 1
16 -25 -1 11191.4 1400.15 1
9 16 -1 11629.8 1355.45 3
16 -25 2 26495.6 1830.9 1
-25 9 2 25038.7 1507.21 4
9 16 2 24638.2 1691.5 3
-25 9 2 23274.2 1536.23 2
16 -25 5 2377.63 1037.32 1
-25 9 5 2863.93 912.32 4
-25 9 5 4048.37 1002.4 2
9 16 5 4382.43 1032.94 3
9 16 8 3258.58 1113.21 4
9 16 8 6026.98 1404.67 2
-25 9 8 5169.34 1183.58 4
-25 9 8 3371.63 1075.78 2
16 -25 8 2772.48 1163.65 1
9 16 8 5878.71 1158.35 3
8 16 -5 6718.29 1363.75 3
16 -24 -5 4255 1220.73 1
16 -24 -2 13808.3 1458.56 1
8 16 -2 16245 1524.31 3
8 16 1 3246.38 953.146 3
-24 8 1 3485.01 823.36 2
-24 8 1 4534.5 790.31 4
-24 8 1 2842.55 595.075 1
16 -24 1 2369.49 950.988 1
-24 8 4 25687.9 1633.29 4
-24 8 4 22988.7 1580.17 2
8 16 4 23942.3 1645.77 3
16 -24 4 26366.4 1829.5 1
-24 8 7 829.999 878.719 4
8 16 7 1027.63 934.043 2
8 16 7 291.137 871.235 4
-24 8 7 2169.71 942.308 2
16 -24 7 176.093 914.897 1
8 16 7 2440.17 968.787 3
7 16 -6 54548.5 2596.66 3
16 -23 -6 45070.5 2811.73 1
7 16 -3 -930.2 1023.95 3
16 -23 -3 2726.28 1010.65 1
-23 7 0 75066 1688.22 1
-23 7 0 80785.6 2574.14 2
16 -23 0 73414 1628.65 2
16 -23 0 75024.6 2779.56 1
-23 7 0 75706.1 2205.97 4
-23 7 3 1481.48 737.004 4
16 -23 3 409.888 831.539 1
-23 7 3 66.7021 677.33 2
7 16 3 417.557 780.274 3
7 16 6 32199.8 2078.33 2
-23 7 6 28206.9 1816.71 4
7 16 6 32421.9 1984.17 4
-23 7 6 29373 1782.29 2
16 -23 6 34771.6 2067.79 1
7 16 6 35909.5 1919.27 3
7 16 9 3936.12 1085.24 3
7 16 9 1932.63 1061.53 4
7 16 9 1553.94 1203.24 2
-23 7 9 2857.57 1055.63 4
-23 7 9 2838.6 1085.94 2
16 -23 9 3939.28 1235.25 1
16 -22 -7 7159.69 1408.1 1
6 16 -4 20165.8 1753.23 3
16 -22 -4 20145.9 1771.29 1
6 16 -1 4153.45 1024.01 3
16 -22 -1 4362.11 1005.23 1
16 -22 -1 3643.74 622.898 2
-22 6 -1 2041.9 633.794 4
-22 6 -1 2223.93 310.775 1
16 -22 2 40110.5 2009.25 1
-22 6 2 40188.6 1544.56 1
-22 6 2 41204.7 1856.11 2
6 16 2 43789.4 2025.99 3
16 -22 5 228.318 781.123 1
6 16 5 1694.88 965.448 2
-22 6 5 -166.231 785.869 2
-22 6 5 3104.42 899.932 4
6 16 5 1811.32 851.038 3
6 16 8 51681 2701.67 2
6 16 8 51200.2 2499.25 4
-22 6 8 56083.2 2608.99 4
16 -22 8 53086.9 2645.31 1
-22 6 8 54226.9 2550.97 2
6 16 8 55586.6 2348.32 3
5 16 -5 -863.772 1061.27 3
16 -21 -5 900.553 970.775 1
5 16 -2 54509.5 2402.81 3
16 -21 -2 49272.5 2284.71 1
5 16 1 2258.08 890.513 3
-21 5 1 1016.91 625.075 2
16 -21 1 1203.02 340.446 2
16 -21 1 1220.13 815.661 1
-21 5 1 1292.13 578.755 4
-21 5 1 1309.37 448.487 1
-21 5 4 13206.7 1169.99 4
-21 5 4 14302 1237.26 2
16 -21 4 16389.5 1388.62 1
5 16 4 14944.9 1308.5 3
5 16 7 2339.81 918.467 4
5 16 7 1826.79 951.192 2
-21 5 7 3661.77 954.07 4
-21 5 7 3086.73 928.797 2
16 -21 7 2366.23 898.664 1
5 16 7 4477.93 966.554 3
-21 5 10 4093.64 1168.47 4
5 16 10 4885.23 1381.7 2
5 16 10 5403.56 1296.14 4
16 -21 10 3053.24 1181.14 1
-21 5 10 3874.94 1173.4 2
4 16 -6 56136.5 2529.17 3
16 -20 -6 59978.8 2930 1
16 -20 -3 14540.7 1462.1 1
4 16 -3 11904.4 830.136 2
-20 4 0 45716.2 1882.26 2
-20 4 0 45066.1 1122.17 1
16 -20 0 43657.3 1301.19 2
16 -20 0 42058.7 1942.96 1
-20 4 0 44997.4 1656.77 4
4 16 0 44203.3 2052.87 3
4 16 3 2465.09 835.5 3
-20 4 3 2085.21 646.182 4
16 -20 3 1439.17 189.735 2
16 -20 3 2089.43 768.353 1
-20 4 3 2297.73 752.606 2
4 16 6 24187.9 1724.92 2
16 -20 6 21315.3 647.27 2
-20 4 6 25215.1 1608.58 4
4 16 6 24590.5 1641.32 4
16 -20 6 22367.8 1617.94 1
-20 4 6 22240.6 1563.45 2
4 16 6 24800.2 1566.28 3
4 16 9 2730.6 885.898 3
4 16 9 4342.37 1207.13 2
4 16 9 3952.87 1055.51 4
-20 4 9 4385.2 1074.66 4
16 -20 9 5652.44 1222.13 1
-20 4 9 4516.1 1106.27 2
16 -19 -7 633.751 308.059 3
3 16 -4 114796 3353.03 3
16 -19 -4 113629 3478.55 1
3 16 -4 109804 2149.24 2
3 16 -1 3609.68 956.599 3
16 -19 -1 3973.64 908.579 1
16 -19 -1 3039.25 561.899 2
-19 3 -1 2702.33 608.94 4
3 16 -1 2596.67 488.793 2
16 -19 2 168637 3580.88 1
16 -19 2 164096 1885.66 2
-19 3 2 167879 2876.52 1
-19 3 2 169990 3301.36 4
3 16 2 174284 3626.55 3
3 16 5 598.211 724.857 3
3 16 5 1481.6 873.215 2
16 -19 5 585.541 271.3 2
-19 3 5 1732.89 739.685 4
16 -19 5 1310.4 240.018 2
-19 3 5 1304.05 708.575 2
16 -19 5 364.1 701.828 1
3 16 5 1167.8 777.495 4
3 16 8 107950 3634.14 2
-19 3 8 113172 3411.88 4
16 -19 8 111685 3468.52 1
3 16 8 108145 3440.29 4
-19 3 8 111454 3370.62 2
3 16 8 115804 3065.59 3
3 16 11 1126.07 1247.82 2
16 -19 11 2385.72 985.671 3
-19 3 11 2184.47 1027.36 2
16 -18 -5 21016 1167.89 3
2 16 -5 21896.3 1690.71 3
2 16 -5 19260.5 989.556 2
16 -18 -5 21252.6 1781.45 1
16 -18 -2 37792.2 1888.74 1
2 16 -2 35389.3 1950.51 3
2 16 -2 34774.7 1119.04 2
-18 2 1 10373.2 1000.26 2
16 -18 1 8665.01 677.398 4
-18 2 1 10361.9 679.708 1
16 -18 1 8946.4 581.149 2
-18 2 1 8686.72 847.841 4
16 -18 1 10638.4 1109.69 1
2 16 1 11694.6 1194.11 3
2 16 4 3128.78 794.789 3
16 -18 4 3813.84 826.037 1
2 16 4 2776.73 764.903 4
2 16 4 3762.49 839.114 2
-18 2 4 3670.2 769.492 4
16 -18 4 2778.42 307.87 2
-18 2 4 2021.13 656.48 2
2 16 7 1068.23 716.731 3
2 16 7 1914.61 826.103 4
16 -18 7 1555.41 491.453 2
-18 2 7 1088.25 668.523 4
2 16 7 2508.51 999.413 2
16 -18 7 1422.02 756.186 1
-18 2 7 1628.44 700.812 2
2 16 10 2351.14 1092.24 4
2 16 10 1850.5 1140.74 2
-18 2 10 1632.74 901.789 4
16 -18 10 825.298 795.106 3
16 -18 10 2136.02 1083.55 1
-18 2 10 2393.6 927.403 2
1 16 -6 2925.2 560.52 2
16 -17 -6 3486.31 436.049 3
16 -17 -6 2748.27 1018.02 1
16 -17 -6 4269.31 605.35 3
1 16 -3 42271.8 2091.2 3
1 16 -3 39132.1 1119.44 2
16 -17 -3 37361.5 1942.18 1
1 16 0 18612.1 1404.97 3
1 16 0 17369.2 892.256 2
-17 1 0 17479.3 1209.1 2
16 -17 0 18605.1 975.016 4
16 -17 0 16739.7 852.752 2
-17 1 0 18033.5 1090.11 4
16 -17 0 17375.2 1241.43 1
-17 1 0 18819.5 643.982 1
1 16 3 45938.1 1784.92 2
16 -17 3 43906.2 1016.26 2
-17 1 3 40811.2 1668.35 1
-17 1 3 48757.4 1836.72 4
-17 1 3 45860.8 1774.5 2
16 -17 3 43191.2 1779.86 1
1 16 3 49270.2 1916.03 3
16 -17 6 18626.4 901.809 2
1 16 6 17176.6 1470.57 2
-17 1 6 19459.2 1380.38 4
1 16 6 18367.7 1440.84 4
16 -17 6 18770.7 1365.03 1
-17 1 6 19626.2 1348.32 2
16 -17 6 16559.2 838.887 2
1 16 6 19613 1348.77 3
1 16 9 6118.09 1002.92 3
1 16 9 6716.4 1214.18 4
1 16 9 6572.31 1350.78 2
16 -17 9 7101.42 863.292 2
-17 1 9 7907.83 1119.44 4
16 -17 9 6756.27 1076.89 3
16 -17 9 6968.56 1167.98 1
-17 1 9 7270.75 1123.14 2
16 -16 -7 1321.34 206.405 3
0 16 -4 132467 3389.57 3
16 -16 -4 126230 3485.83 1
0 16 -4 128119 1914.79 2
0 16 -1 587.9 285.842 2
0 16 -1 33.6294 886.271 3
16 -16 -1 739.327 400.889 2
16 -16 -1 591.876 643.318 1
0 16 2 393194 5188.99 3
-16 0 2 380057 4319.32 1
16 -16 2 389265 4943.48 1
16 -16 2 380684 3174.66 4
-16 0 2 394675 4759.24 4
16 -16 2 377874 3178.16 2
-16 0 2 387022 4800.52 2
0 16 5 2989.11 876.698 3
-16 0 5 3318.78 737.459 4
0 16 5 2512.58 774.461 4
-16 0 5 4505.46 806.272 2
0 16 5 4088.54 940.293 2
16 -16 5 3585.53 454.099 2
16 -16 5 2754.92 735.437 1
0 16 8 53954.4 2005.45 3
-16 0 8 54229.3 2314.34 4
16 -16 8 55474.6 1845.19 2
0 16 8 50751.8 2360.66 4
16 -16 8 47860.4 2145.27 3
16 -16 8 49855.5 2273.74 1
-16 0 8 52633.2 2232.27 2
0 16 8 53909.7 2595.54 2
0 16 11 1702.28 1068.48 4
0 16 11 331.829 1126.31 2
-16 0 11 2488.47 994.908 4
16 -16 11 2393.84 956.296 3
16 -16 11 1885.84 1040.12 1
-16 0 11 2619.63 1059.29 2
16 -15 -5 4934.74 666.625 3
-1 16 -5 5399.95 508.95 2
16 -15 -5 6279.7 1151.07 1
-1 16 -5 4195.03 585.303 4
16 -15 -5 5115.51 505.981 3
16 -15 -2 775.56 650.209 1
-1 16 -2 1123.74 855.242 3
-1 16 -2 879.597 421.823 4
-1 16 -2 328.692 234.479 2
-15 -1 1 27160.1 1345.17 2
-1 16 1 28734.4 1572.72 3
16 -15 1 26071 992.214 4
16 -15 1 24468.5 1320.52 1
-15 -1 1 28066.7 1310.95 4
16 -15 1 25324.2 926.919 2
-15 -1 1 27013.3 1029.36 1
-1 16 4 5333 878.004 3
-1 16 4 5384.1 908.558 4
-1 16 4 7103.05 920.446 2
-15 -1 4 6191.2 810.832 4
-15 -1 4 4867 735.516 2
16 -15 4 4344.43 731.769 1
16 -15 4 5768.49 502.405 2
-1 16 7 7816.12 952.367 3
-15 -1 7 9795.37 1099.79 4
16 -15 7 9234.73 1098.52 3
16 -15 7 10105.3 1136.61 1
-15 -1 7 8734.53 1001.14 2
16 -15 7 8467.05 863.999 2
-1 16 7 7979.27 1150.87 4
-1 16 7 10667.3 1287.46 2
-1 16 10 3923.09 1108.65 4
-1 16 10 2809.3 1140.27 2
16 -15 10 4115.46 897.974 2
-15 -1 10 3174.63 951.948 4
16 -15 10 3371.51 887.229 3
16 -15 10 2929.88 1044.46 1
-15 -1 10 4624.44 1093.55 2
16 -14 -6 12897.4 714.333 3
-2 16 -6 12603 747.072 2
-2 16 -6 13352.8 821.564 4
16 -14 -6 14014.1 587.244 3
-2 16 -3 30033.3 1713 3
-2 16 -3 29633.8 729.19 2
-2 16 -3 30444.4 1161.19 4
16 -14 -3 31798.6 1161.62 3
16 -14 -3 33747.3 1758.13 1
-2 16 0 36760.7 1778.51 3
-14 -2 0 37107.6 905.989 1
-14 -2 0 36383.1 804.656 1
16 -14 0 32654.6 1153.48 2
16 -14 0 37409.8 1541.66 1
16 -14 0 35471.9 1268.77 4
-2 16 3 52299.5 1939.93 3
-2 16 3 57885.8 1871.19 2
-2 16 3 56241.9 1940.47 4
16 -14 3 54346.1 969.129 4
-14 -2 3 58876.8 1885.75 4
16 -14 3 55213.8 1330.26 2
-14 -2 3 53177.5 1803.04 2
16 -14 3 56476.3 1809.27 1
-2 16 6 13738.5 1135.8 3
16 -14 6 12907 909.484 2
16 -14 6 13521.5 976.631 2
-2 16 6 13772.5 1242.98 4
-2 16 6 13478.3 1282.76 2
-14 -2 6 14316 1134.98 4
16 -14 6 12511.2 1143.1 3
16 -14 6 14808.4 1148.51 1
-14 -2 6 15106.9 1150.4 2
-2 16 9 4309.84 1081.42 4
16 -14 9 4652.97 858.294 2
-2 16 9 3917.47 1079.33 2
-14 -2 9 5835.31 1024.9 4
16 -14 9 6471.76 1005.08 3
16 -14 9 2679.51 869.274 1
-14 -2 9 5530.36 993.921 2
-3 16 -7 2026.67 464.055 4
-3 16 -7 2342.02 523.882 2
-3 16 -4 284373 2115.59 2
-3 16 -4 287780 3209.77 4
16 -13 -1 7703.43 869.633 1
-3 16 -1 5918.33 980.973 3
16 -13 -1 6894.68 696.922 4
16 -13 -1 8006.71 707.799 3
16 -13 -1 7685.99 685.18 2
-3 16 -1 6709.16 413.098 2
-3 16 2 188526 3530.01 3
-3 16 2 194089 2958.64 2
-3 16 2 198091 3341.77 4
-13 -3 2 200772 3317.18 4
16 -13 2 198678 2234.34 4
16 -13 2 197769 2519.48 2
-13 -3 2 189675 3194.83 2
16 -13 5 9851.12 752.991 2
-3 16 5 10660.7 1044.43 3
-13 -3 5 10346.7 985.265 4
-3 16 5 9593.29 1051.69 4
-3 16 5 9668.17 1085.19 2
16 -13 5 9930.66 912.086 1
-13 -3 5 10484.5 947.824 2
16 -13 5 9042.49 981.081 3
-3 16 8 167949 3034.08 3
-3 16 8 184965 4322.67 4
16 -13 8 180708 3634.71 2
-3 16 8 201560 4700.92 2
-13 -3 8 179219 3852.67 4
16 -13 8 190092 3978.22 1
16 -13 8 175197 3808.16 3
-13 -3 8 184005 3890.75 2
-3 16 11 3525.52 1231.79 4
16 -13 11 5630.27 1067.35 2
-3 16 11 6622.11 1436.09 2
-13 -3 11 5254.06 1107.31 4
16 -13 11 4695.54 1162.97 1
16 -13 11 6237.75 1131.96 3
-13 -3 11 6442.23 1183.04 2
-4 16 -5 10262.4 649.087 4
-4 16 -5 11330.9 496.917 2
16 -12 -5 11216 596.218 3
16 -12 -2 22909.7 1034.82 3
-4 16 -2 19583.9 423.142 2
16 -12 -2 22496.9 1317.49 1
-4 16 -2 18618.8 437.558 2
-4 16 1 22349.7 934.879 2
-12 -4 1 21002.5 1147.58 2
-4 16 1 22383.6 1386.85 3
16 -12 1 21556.1 1120.8 1
-4 16 1 21136 1116.8 4
16 -12 1 20438.8 858.066 4
-12 -4 1 23508.4 893.205 1
-12 -4 1 22022.4 1168.17 4
16 -12 1 22202.4 1154.5 3
16 -12 1 22353.9 930.873 2
-4 16 4 31259 1456.13 3
16 -12 4 27778.8 576.656 4
-4 16 4 32166.3 1564.03 4
-4 16 4 31778.6 1485.76 2
-12 -4 4 32725 1476.34 4
16 -12 4 31775.5 1503.32 3
16 -12 4 28653.3 1249.9 1
-12 -4 4 30491.6 1345.38 2
16 -12 4 29681.3 1149.19 2
-4 16 7 40096.9 1549.47 3
-4 16 7 41656.3 2044.82 4
16 -12 7 39954.7 1717.73 2
-12 -4 7 34018.2 1676.24 4
-4 16 7 35189.3 1962.68 2
16 -12 7 38147.6 1724.8 1
16 -12 7 37851.5 1793.42 3
-12 -4 7 36116.5 1692.81 2
-4 16 10 2708.62 1044.47 4
16 -12 10 3273.38 854.701 2
-4 16 10 1787.58 1073.68 2
-12 -4 10 1621.29 773.084 4
16 -12 10 1866.5 863.349 1
16 -12 10 2176.82 802.805 3
-12 -4 10 1768.6 860.187 2
-5 16 -6 54848.7 1286.04 4
16 -11 -6 57636.8 1065.85 3
-5 16 -3 1737.94 363.108 4
16 -11 -3 3027.69 449.832 3
16 -11 -3 1909.79 704.728 1
-5 16 0 106346 2671.48 3
-5 16 0 90415.3 2028.07 4
-5 16 0 100984 1523.05 2
16 -11 0 99494.7 2005.75 4
16 -11 0 99640.2 2214.53 3
-11 -5 0 102993 1494.28 1
16 -11 0 100916 2014.5 2
16 -11 0 93681.2 2117.18 1
-5 16 3 18607.8 1213.98 3
-5 16 3 21245.1 1219.73 4
-5 16 3 20822.2 1115.69 2
16 -11 3 19824.1 1169.23 3
-11 -5 3 20461.1 1141.93 4
16 -11 3 18903.1 675.478 4
-11 -5 3 19310.2 1133.13 1
16 -11 3 20660.7 942.348 2
-11 -5 3 21075.1 1109.56 2
16 -11 3 20645.9 1036.16 1
-5 16 6 4323.69 746.409 3
-5 16 6 5284.04 898.411 4
-5 16 6 5425.92 940.412 2
-11 -5 6 5021.33 768.569 4
16 -11 6 6013.53 858.897 3
16 -11 6 5892.95 752.348 1
-11 -5 6 6108.63 762.224 2
-5 16 9 4559.36 1092.08 2
-5 16 9 5111.38 1073.16 4
-11 -5 9 5391.61 952.002 4
16 -11 9 4981.93 932.882 1
16 -11 9 5037.48 1010.44 2
16 -11 9 4669.19 889.434 3
-11 -5 9 5155.97 888.088 2
-6 16 -7 2360.53 336.471 4
-6 16 -4 185281 2134.7 4
16 -10 -4 180033 2356.95 3
-6 16 -1 95367.5 993.366 2
-10 -6 -1 99918.9 1402.86 1
16 -10 -1 97446.5 2131.28 4
-6 16 -1 93101.7 993.993 2
16 -10 -1 92764.7 2062.22 2
16 -10 -1 104241 2137.41 3
16 -10 -1 97996.2 2260.82 1
-10 -6 2 293928 3760.99 2
-6 16 2 290071 4089.41 3
16 -10 2 282794 3314.97 1
16 -10 2 288964 2875.65 4
-10 -6 2 292449 3887.84 4
16 -10 2 290599 3984.46 3
-6 16 2 297744 3420.36 2
-6 16 2 286957 3892.26 4
-10 -6 2 283971 3449.21 1
16 -10 2 279965 3284.55 2
-6 16 5 9500.49 910.333 3
-10 -6 5 10693.1 1114.53 1
-6 16 5 10595.6 1060.52 2
16 -10 5 9035.49 401.714 4
-10 -6 5 10507.1 932.873 4
16 -10 5 8740.15 957.172 3
16 -10 5 9683.03 798.008 1
-6 16 5 8489.04 976.186 4
-10 -6 5 9802.29 860.49 2
16 -10 8 76496.3 2413.73 1
16 -10 8 69817.8 2469.21 2
-6 16 8 75250.7 2885.01 2
-10 -6 8 69236.5 2366.15 4
16 -10 8 70585.6 2406.71 3
-6 16 8 70346.1 2749.65 4
-10 -6 8 70634.8 2342.69 2
-10 -6 11 2339.39 1266.15 1
-6 16 11 376.619 994.099 4
16 -10 11 2087.77 1055.11 2
-6 16 11 2652.04 1257.32 2
-10 -6 11 905.702 829.522 4
16 -10 11 2455.19 885.563 1
16 -10 11 2275.38 834.413 3
-10 -6 11 2241.73 935.094 2
-7 16 -5 42186.2 900.033 4
16 -9 -5 44049.1 1123.95 3
16 -9 -2 76856.6 1751.73 3
-9 -7 -2 75494.1 1277.49 1
-7 16 1 39980.8 1403.44 4
-7 16 1 43223.2 1159.27 2
16 -9 1 40782.2 1217.42 4
-9 -7 1 41675 1229.76 1
16 -9 1 43550.3 1526.93 3
16 -9 1 42865.7 1286.72 1
16 -9 1 40353.8 1288.89 2
-7 16 4 118767 2671.07 2
16 -9 4 112685 1588.41 4
-9 -7 4 112915 2752.91 1
-9 -7 4 112246 2490.55 4
-7 16 4 121212 2843.62 4
16 -9 4 111215 2614.14 3
16 -9 4 114366 2104.79 1
-9 -7 4 116324 2373.75 2
-9 -7 7 -27.4783 846.346 1
16 -9 7 500.22 218.171 4
-7 16 7 657.123 800.303 2
16 -9 7 537.888 205.419 4
-9 -7 7 329.845 560.093 4
-7 16 7 276.193 764.767 4
16 -9 7 860.727 562.061 1
16 -9 7 341.979 591.541 3
-9 -7 7 1011.75 540.58 2
-9 -7 10 33054.2 1814.37 4
16 -9 10 28844.9 1924.54 2
-7 16 10 34882 2201.85 4
-7 16 10 33821.1 2254.71 2
16 -9 10 33223 1898.67 1
16 -9 10 29531.6 1706.25 3
-9 -7 10 34713.2 1879.2 2
-9 -7 10 31912.7 2449.36 1
-8 16 -6 50811.6 747.84 4
16 -8 -6 60688 1189.61 3
-8 16 -3 648.326 234.606 4
-8 16 -3 981.099 276.47 4
16 -8 -3 807.694 378.36 3
-8 -8 -3 433.328 329.485 1
-8 16 0 4355.63 586.097 4
16 -8 0 3053.42 493.058 4
-8 16 0 3177.94 318.795 2
16 -8 0 2600.34 500.354 1
16 -8 0 3320.85 588.111 3
16 -8 0 3233.17 505.059 2
-8 -8 0 3952.3 477.399 1
-8 -8 3 2454.27 507.944 2
16 -8 3 1734.15 485.181 2
-8 16 3 1857.74 630.23 4
16 -8 3 1674.68 400.05 1
-8 -8 3 1793.87 549.34 1
-8 16 3 2563.85 584.341 2
16 -8 3 1287.42 316.316 4
-8 -8 3 1403.15 497.459 4
16 -8 3 2106.38 628.187 3
16 -8 6 38599 1031 4
-8 -8 6 38362.4 1938.76 1
-8 16 6 38666.8 1839.59 2
-8 16 6 37790.1 1869.97 4
16 -8 6 37564.7 970.547 4
-8 -8 6 39424.6 1586.32 4
16 -8 6 41705.6 1466.52 1
16 -8 6 40219.2 1713.25 3
-8 -8 6 36459 1472.81 2
-8 -8 9 6051.71 1309.38 1
16 -8 9 6036.39 1102.17 2
-8 16 9 6023.55 1067.75 4
-8 16 9 6399.07 1219.45 2
16 -8 9 6270.79 887.51 1
-8 -8 9 6109.3 871.442 4
16 -8 9 5287.12 906.114 3
-8 -8 9 5695.66 873.665 2
16 -7 -7 5995.89 413.318 3
-9 16 -4 130557 1322.42 4
16 -7 -4 136591 2114.7 3
-7 -9 -4 131952 2362.73 1
16 -7 -1 45113.4 1475.66 1
-7 -9 -1 44182.4 1244.94 1
-9 16 -1 41342.2 1180.83 4
16 -7 -1 43830.1 1468.7 4
16 -7 -1 45425.1 1438.2 3
-9 16 -1 43353 583.57 2
-7 -9 2 81017.4 1876.85 2
16 -7 2 80454.9 1666.05 4
-9 16 2 83079.3 1823.95 2
-7 -9 2 81401.9 1972.15 1
16 -7 2 82287 1471.86 1
16 -7 2 78685.9 2092.78 3
16 -7 2 78757.2 1926.57 2
-9 16 5 15260.4 1161.57 2
-7 -9 5 16330.8 1305.57 1
-9 16 5 17041.1 1247.33 4
16 -7 5 15365.6 706.729 4
-7 -9 5 14989.7 990.428 4
16 -7 5 16285 1135.35 3
16 -7 5 16323.8 830.95 1
-7 -9 5 15712.3 941.654 2
16 -7 8 21066.6 1593.35 2
16 -7 8 17861 825.26 4
-7 -9 8 19381.5 1727.64 1
-9 16 8 20366.3 1550.07 4
-9 16 8 17542.4 1512.73 2
16 -7 8 19590.9 1228.42 1
16 -7 8 20276.8 1363.37 3
-7 -9 8 18954.1 1211.88 2
-7 -9 8 16503.5 1168.29 4
-7 -9 11 1138.31 1159.4 1
-9 16 11 383.403 933.775 4
16 -7 11 1985.82 887.015 1
-7 -9 11 1273.25 723.746 4
16 -7 11 735.024 1026.35 2
-9 16 11 1930.53 1113.7 2
16 -7 11 492.406 666.476 3
-7 -9 11 471.529 735.529 2
16 -6 -5 2589.84 424.238 3
-6 -10 -2 287979 3230.36 1
-10 16 -2 289836 2618.01 4
-10 16 1 78018.6 1897.02 4
16 -6 1 82328.1 1822.52 4
16 -6 1 84933.6 1480.57 1
-6 -10 1 81564.7 1831.1 1
16 -6 1 85064.5 2111.64 3
-10 16 1 82291.1 1534.7 2
-10 16 4 226683 3843.73 4
-6 -10 4 217102 3780.2 1
-10 16 4 218917 3549.63 2
16 -6 4 215666 2626.37 4
-6 -10 4 217676 3370.15 4
16 -6 4 215788 3582.86 3
16 -6 4 220043 2419.45 1
-6 -10 4 219014 3032.65 2
-6 -10 7 592.46 933.155 1
-10 16 7 1448.66 846.692 2
-6 -10 7 545.061 540.901 4
16 -6 7 774.508 498.634 1
16 -6 7 1104.24 677.53 3
16 -6 7 242.359 376.114 4
-6 -10 7 1022.76 549.798 2
-10 16 7 836.448 773.455 4
16 -6 7 852.798 402.542 4
-6 -10 10 78604.8 3502.93 1
16 -6 10 74767.2 3090.99 2
-10 16 10 79992.7 3166.2 4
16 -6 10 80155.9 2671.1 1
-10 16 10 78147.8 3214.13 2
-6 -10 10 80663.2 2627.42 2
-6 -10 10 77349.6 2500.47 4
16 -6 10 83947.4 2716.85 3
16 -5 -6 11793.4 681.517 3
-5 -11 -3 25514.4 1136.25 1
-11 16 -3 25180.9 641.574 4
16 -5 -3 26952.5 1077.75 3
-11 16 0 58769.9 1493.53 4
16 -5 0 58620.9 1651.56 4
-11 16 0 58498.5 1089.51 2
16 -5 0 56158.4 1674.15 3
-5 -11 0 56168.9 1529.32 1
-5 -11 3 3152.53 499.629 2
-5 -11 3 3680.09 678.774 1
16 -5 3 3383.19 315.401 1
16 -5 3 3154.83 456.224 4
-11 16 3 4623.79 609.808 2
-11 16 3 4273.93 704.874 4
16 -5 3 3788.48 693.028 3
-11 16 6 67902 2413.48 4
-5 -11 6 69763.3 2598.77 1
-11 16 6 64551.8 2306.76 2
16 -5 6 68148.5 1668.57 1
-5 -11 6 69091.7 1999.64 4
16 -5 6 62406.4 1554.73 4
16 -5 6 68734 2201.54 3
-5 -11 6 67892.1 1824.84 2
16 -5 9 9153.77 1322.02 2
-5 -11 9 5951.52 1318.83 1
16 -5 9 7563.72 745.509 4
-11 16 9 6435.3 1173.3 4
16 -5 9 7752.21 961.848 1
-11 16 9 7198.47 1189.77 2
-5 -11 9 8200.85 955.053 4
16 -5 9 5680.53 896.188 3
-5 -11 9 6806.63 860.236 2
16 -4 -7 43284.9 1239.45 3
-4 -12 -4 9490.85 843.554 1
16 -4 -4 10020.6 723.992 3
-4 -12 -1 12381.7 851.895 1
-12 16 -1 11583 658.757 4
16 -4 -1 11738.5 839.457 3
-12 16 -1 12931.8 490.404 2
16 -4 2 25595.2 1072.48 4
-12 16 2 28834.5 1113.82 2
-4 -12 2 28979 1290.31 1
16 -4 2 27031.6 1281.32 3
-12 16 2 26564.8 1237.72 4
-12 16 5 9150.8 1009.88 4
-4 -12 5 8960.92 1056.91 1
-12 16 5 8142.16 932.205 2
16 -4 5 8018.34 677.165 4
16 -4 5 8848.7 547.23 1
16 -4 5 10045.5 944.268 3
-4 -12 5 10497 724.528 2
16 -4 8 10911.2 1318.76 2
16 -4 8 11256.7 888.896 4
-4 -12 8 11517.3 1420.74 1
16 -4 8 10664.1 911.108 1
-12 16 8 12036.3 1316.68 2
-4 -12 8 9264.49 918.306 4
16 -4 8 10468.5 1043.88 3
-4 -12 8 10127.3 906.482 2
-12 16 8 10797.7 1256.55 4
16 -4 11 3493.78 1235.37 2
-12 16 11 2525.09 1151.86 4
-4 -12 11 3369.9 1315.26 1
16 -4 11 2566.08 870.98 1
-12 16 11 2683.55 1198.87 2
-4 -12 11 2552.02 773.558 4
16 -4 11 3840.09 914.131 3
-4 -12 11 2594.03 777.246 2
16 -3 -8 169195 2340.66 3
-3 -13 -5 3582.4 775.324 1
16 -3 -5 3065.4 502.561 3
-3 -13 -2 148102 2719.17 1
-13 16 -2 142494 1790 4
16 -3 -2 149636 2589.77 3
16 -3 1 6059.45 635.07 4
-13 16 1 5048.02 653.311 4
-13 16 1 5645.59 518.042 2
16 -3 1 5552.67 733.388 3
-3 -13 1 4899.79 646.801 1
16 -3 4 299100 1869.86 1
-13 16 4 317208 4560.72 4
16 -3 4 297160 3556.78 4
-13 16 4 313509 4217.07 2
16 -3 4 318951 4407.81 3
-3 -13 4 300705 3231.56 2
16 -3 7 5724.01 746.702 4
-13 16 7 5868.46 1042.21 4
-3 -13 7 8439.52 1229.48 1
16 -3 7 6532.32 673.807 1
-13 16 7 6032.36 1034.77 2
-3 -13 7 5787.26 788.289 4
16 -3 7 7393.26 951.073 3
16 -3 7 6037.26 783.281 1
-3 -13 7 6915.77 713.877 2
16 -3 10 64492 2326.42 1
-3 -13 10 61127.4 2132.11 4
16 -3 10 64637.8 2989.86 2
-3 -13 10 69847.7 3351.91 1
-13 16 10 68470.9 2965.91 4
-13 16 10 62392.7 2887.52 2
-3 -13 10 62294.1 2190.26 2
16 -3 10 63338 2416.29 3
-2 -14 -6 25390.9 1595.87 1
16 -2 -6 24812.2 1081.21 3
-14 16 -3 34395.1 651.214 4
16 -2 -3 37263.3 1346.98 3
-2 -14 -3 34697.3 1494.33 1
-14 16 0 33874.7 1182.65 4
16 -2 0 33781.8 1393.67 3
-14 16 0 33254.3 982.748 2
-2 -14 0 34074.9 1394.49 1
-14 16 3 12586.8 1003.99 4
-14 16 3 14747.2 963.452 2
-2 -14 3 14505.1 1089.75 1
16 -2 3 13420.6 1048.78 3
-14 16 6 13427 1258.38 4
-2 -14 6 13647.8 1330.55 1
16 -2 6 13936.2 796.656 1
16 -2 6 14342 707.015 1
-14 16 6 13554.7 1180.48 2
16 -2 6 13533.2 1158.55 3
-2 -14 6 13260 804.644 2
16 -2 9 8119.94 1406.61 2
16 -2 9 9897.27 965.487 4
-14 16 9 8790.26 1260.3 4
-2 -14 9 6935.74 1308.52 1
-14 16 9 11558 1399.39 2
-2 -14 9 10682.4 972.732 4
16 -2 9 10205 969.13 1
16 -2 9 10274.3 1112.64 3
-2 -14 9 8990.37 888.03 2
16 -1 -7 7059.87 795.449 3
-1 -15 -4 5186.02 851.87 1
16 -1 -4 4588.56 643.378 3
-15 16 -1 11953 669.291 4
16 -1 -1 12536.5 935.409 3
-15 16 -1 11257 596.961 2
-15 16 2 193.008 469.362 4
-15 16 2 350.196 379.312 2
16 -1 2 1192.95 592.108 3
-1 -15 2 606.914 588.858 1
-1 -15 5 1370.33 380.426 2
-15 16 5 343.55 632.558 4
16 -1 5 870.791 179.872 1
-1 -15 5 1595.93 801.758 1
-15 16 5 1565.37 695.607 2
16 -1 5 941.418 634.164 3
16 -1 5 810.695 166.286 1
16 -1 8 -185.875 551.362 4
-15 16 8 -465.239 805.341 4
16 -1 8 -278.647 504.88 1
-1 -15 8 -606.434 868.323 1
-15 16 8 1334.93 761.681 2
16 -1 8 681.541 673.533 3
-1 -15 8 1033.47 485.656 2
16 -1 11 4405.85 1346.95 2
-15 16 11 3153.3 1109.29 4
-1 -15 11 2779.78 1322.31 1
-15 16 11 1849.24 1076.26 2
16 -1 11 2382.18 861.881 3
16 0 -8 51748 1755.97 3
0 -16 -5 2302.42 854.318 1
16 0 -5 3126.66 643.396 3
0 -16 -2 369593 4859.31 1
-16 16 -2 366590 2942.99 4
16 0 -2 372002 4349.79 3
0 -16 1 -119.143 531.027 1
-16 16 1 290.184 405.645 4
16 0 1 1381.23 596.463 3
-16 16 1 -18.6098 350.098 2
-16 16 4 146233 3175.11 4
0 -16 4 140521 3299.19 1
-16 16 4 143877 2982.59 2
16 0 4 146895 3107.11 3
-16 16 7 91.5207 737.57 4
16 0 7 771.259 386.598 1
0 -16 7 2160.38 1007.57 1
-16 16 7 1271.93 775.618 2
16 0 7 1206.93 707.812 3
0 -16 7 1402.14 461.233 2
16 0 10 51830.3 2874.98 2
16 0 10 53874.2 2153.73 4
-16 16 10 57320.5 2804.2 4
0 -16 10 64939.6 3212.5 1
-16 16 10 60503 2897.97 2
16 0 10 59499 2362.11 3
1 -17 -6 18763.4 1514.88 1
16 1 -6 19785.7 1151.3 3
-17 16 -3 48663.1 891.058 4
16 1 -3 52225.2 1723.74 3
1 -17 -3 48782.2 1981.76 1
1 -17 0 29206.8 1470.66 1
-17 16 0 27823.7 1116.63 4
16 1 0 28768.3 1396.87 3
-17 16 0 30113 1106.87 2
-17 16 3 37365.5 1581.41 4
-17 16 3 39831 1515.41 2
16 1 3 41053.7 1714.31 3
-17 16 6 14116.4 1317.51 4
16 1 6 10818.7 492.69 1
1 -17 6 15174.9 1399.38 1
16 1 6 11459.7 520.76 1
16 1 6 11702.7 1096.28 3
-17 16 6 14946.4 1262.55 2
1 -17 6 12731.2 696.077 2
16 1 9 2632.33 766.153 4
16 1 9 2614.61 1102.36 2
-17 16 9 3034.62 1024.51 4
-17 16 9 3117.4 1056.93 2
1 -17 9 2505.95 1069.43 1
16 1 9 1694.14 750.956 3
1 -17 9 3119.6 575.657 2
16 2 -7 57.8962 711.828 3
2 -18 -7 588.785 931.408 1
2 -18 -4 12608.9 1241.77 1
16 2 -4 11280.5 952.323 3
-18 16 -1 15308.4 850.535 2
2 -18 -1 15842.1 1211.66 1
-18 16 -1 17442 821.461 4
16 2 -1 17848.3 1137.58 3
-18 16 2 59834.4 1900.25 4
-18 16 2 58509.4 1729.11 2
16 2 2 59749.2 2017.45 3
2 -18 2 62430.1 2125.99 1
-18 16 5 22180.9 1468.91 4
2 -18 5 21370.6 1576.8 1
-18 16 5 19374.9 1309.83 2
16 2 5 22235.6 1387.91 3
2 -18 8 14663 831.042 2
16 2 8 13788.5 1234.6 4
16 2 8 16144.1 919.401 1
-18 16 8 17440.4 1546.12 4
2 -18 8 15844.7 1691.93 1
-18 16 8 16296.3 1508.01 2
16 2 8 14925 1257.84 3
-18 16 11 5559.76 1358.36 4
2 -18 11 6794.62 1472.63 1
16 2 11 3487.58 1427.93 2
-18 16 11 5463.46 1411.37 2
16 2 11 5160.1 1036.91 3
16 3 -8 83366.8 2528.91 3
3 -19 -5 1062.66 827.153 1
16 3 -5 1285 666.881 3
-19 16 -2 143635 2046.64 4
3 -19 -2 148717 3439.86 1
16 3 -2 149442 3019.72 3
-19 16 1 6155.01 721.54 4
16 3 1 4688.17 813.048 3
-19 16 1 5211.85 628.925 2
3 -19 1 6162.33 946.578 1
3 -19 4 102741 2961.11 1
-19 16 4 99189.3 2604.57 2
16 3 4 95730.1 2707.14 3
-19 16 7 6791.95 1140.01 4
16 3 7 7181.05 533.205 1
3 -19 7 7568.85 1329.19 1
-19 16 7 5733.94 1029.5 2
16 3 7 8192.38 1036.21 3
3 -19 7 7898.13 544.139 2
16 3 10 59748.9 3171.16 2
16 3 10 56669.2 2398.43 4
-19 16 10 59531.9 2923.46 4
3 -19 10 63035.5 3264.75 1
-19 16 10 62494.9 2929.53 2
16 3 10 61543.5 2480.62 3
4 -20 -6 31478 2071.86 1
16 4 -6 26163.1 1484.75 3
4 -20 -3 883.819 797.904 1
-20 16 -3 716.244 289.41 4
16 4 -3 57.9628 621.513 3
4 -20 0 49340.1 2057.71 1
-20 16 0 50114.2 1546.37 4
16 4 0 43740.2 1792.85 3
-20 16 0 48635 1575.33 2
-20 16 3 3300.51 764.566 4
-20 16 3 3185.72 666.445 2
16 4 3 3123.99 752.227 3
4 -20 3 3046.23 843.419 1
-20 16 6 78015.2 2753.23 4
4 -20 6 72047.8 2831.41 1
-20 16 6 71976.1 2576.04 2
16 4 6 71411 2441.73 3
16 4 9 534.591 797.727 4
16 4 9 2726.06 1190.23 2
-20 16 9 1649.5 1074.73 4
4 -20 9 988.748 1163.99 1
-20 16 9 2396.63 1027.64 2
16 4 9 1836.16 871.791 3
16 5 -7 -336.59 749.68 3
5 -21 -7 496.236 1026.77 1
5 -21 -4 14118.4 1414.89 1
16 5 -4 14316.5 1169.09 3
-21 16 -1 485.799 512.431 2
-21 16 -1 1041.92 419.373 4
5 -21 -1 1150.26 844.145 1
16 5 -1 726.344 634.739 3
-21 16 2 89734 2385.75 4
-21 16 2 85418 2263.08 2
16 5 2 89096.9 2621.07 3
-21 16 5 1842.32 758.566 4
-21 16 5 866.192 652.144 2
5 -21 5 448.511 815.298 1
16 5 5 767.769 705.917 3
-21 16 8 9157.52 1316.26 4
5 -21 8 11976.7 1553.93 1
-21 16 8 9536.96 1316.44 2
16 5 8 8352.9 1136.19 4
16 5 8 9017.25 1134.02 3
16 6 -8 50865.4 2255.52 3
6 -22 -8 44887.8 2860.24 1
6 -22 -5 2433.84 1133.41 1
16 6 -5 3046.19 891.363 3
-22 16 -2 49950.7 1412.51 4
6 -22 -2 52785.3 2304.63 1
16 6 -2 50465.6 2012.38 3
6 -22 1 6222 1078.82 1
-22 16 1 6352.61 776.219 4
16 6 1 6421.27 938.712 3
-22 16 1 6260.4 785.723 2
-22 16 4 16723.9 1317.58 4
-22 16 4 13656.5 1138.88 2
6 -22 4 14337.6 1405.84 1
16 6 4 13986.9 1243.17 3
-22 16 7 15087.6 1526.04 4
6 -22 7 16192.4 1626.61 1
-22 16 7 15952.9 1439.37 2
16 6 7 11265.7 1199.48 3
16 6 10 9574.24 1682.01 2
-22 16 10 7133.32 1438.08 4
6 -22 10 10377.7 1701.36 1
-22 16 10 11397.7 1611.39 2
16 6 10 9619.88 1339.07 4
16 6 10 7129.69 1208.98 3
7 -23 -6 33404.3 2317.66 1
16 7 -6 33542.7 1877.13 3
-23 16 -3 1787.33 414.011 4
7 -23 -3 1790.56 948.997 1
16 7 -3 3038.52 901.111 3
7 -23 0 76466.5 2736.1 1
-23 16 0 81208.1 2094.89 4
16 7 0 81143.9 2575.44 3
-23 16 0 75625.5 2189.02 2
7 -23 3 3686.58 897.214 1
-23 16 3 5479.91 864.099 4
-23 16 3 3945.27 741.177 2
16 7 3 2639.97 850.688 3
-23 16 6 66943 2652.64 4
7 -23 6 66838 2837.63 1
-23 16 6 69878.7 2624.25 2
16 7 6 68173.9 2539.17 3
16 7 9 2819.44 1217.89 2
16 7 9 1661.83 913.231 4
-23 16 9 3269.48 1155.82 4
7 -23 9 1657.43 1201.98 1
-23 16 9 1948.27 969.153 2
16 7 9 3287.14 986.9 3
16 8 -7 1965.69 1049.45 3
8 -24 -7 3600.22 1266.12 1
8 -24 -4 24722.8 1983.45 1
16 8 -4 24579.7 1585.2 3
-24 16 -1 1688.04 641.357 2
8 -24 -1 1532.46 921.264 1
-24 16 -1 1245.45 469.542 4
16 8 -1 663.982 753.258 3
8 -24 2 3562.82 1048.36 1
-24 16 2 5581.89 841.42 4
16 8 2 5338.2 945.493 3
-24 16 2 4463.35 783.098 2
-24 16 5 5432.32 1015.16 4
-24 16 5 5491.83 1011.62 2
16 8 5 4252.33 952.728 3
8 -24 5 3174.41 1055.12 1
16 8 8 19528.9 1606.39 4
-24 16 8 18128.4 1696.87 4
8 -24 8 20133.4 1889.68 1
-24 16 8 19343.4 1676.48 2
16 8 8 18884.4 1586.82 3
16 9 -8 1554.36 1055.01 3
9 -25 -8 2689.99 1414.79 1
16 9 -5 1502.43 883.329 3
9 -25 -5 1485.98 1108.26 1
-25 16 -2 16674.8 959.025 4
9 -25 -2 17364.9 1652.97 1
16 9 -2 17740.6 1456.99 3
-25 16 1 8645.15 894.544 4
9 -25 1 9808.1 1263.71 1
16 9 1 7261.58 1072.15 3
-25 16 1 8606.1 974.683 2
9 -25 4 4983.13 1041.06 1
-25 16 4 6627.54 995.116 4
-25 16 4 4170.43 865.039 2
16 9 4 5119.82 992.099 3
-25 16 7 3437.89 1053.22 4
-25 16 7 4823.15 1016.74 2
9 -25 7 4145 1199.27 1
16 9 7 2920.4 952.568 3
16 10 -6 45517.6 2325.5 3
10 -26 -6 38405.5 2643.85 1
10 -26 -3 1393.43 1043.84 1
-26 16 -3 -421.045 469.093 4
16 10 -3 1222.14 900.682 3
-26 16 0 48433.7 2029.9 2
-26 16 0 53976.2 1880.38 4
10 -26 0 50642.5 2442.35 1
-26 16 3 17496.9 1334.44 4
-26 16 3 16782.6 1298.88 2
16 10 3 13186.5 1346.9 3
10 -26 3 13750.6 1502.48 1
-26 16 6 39651.9 2205.42 4
10 -26 6 35398.3 2280.69 1
16 10 6 35401.9 2027.81 3
16 10 9 1615.23 990.291 4
16 10 9 3522.92 1404.07 2
-26 16 9 2849.26 1228.46 4
-26 16 9 3769.77 1198.08 2
10 -26 9 3807.56 1409.74 1
16 10 9 2256.49 1031.71 3
16 11 -7 1699.52 1101.35 3
11 -27 -7 -262.144 1177.56 1
11 -27 -4 12535.1 1626.38 1
16 11 -4 15040.5 1546.79 3
-27 16 -1 490.961 526.687 4
11 -27 -1 2072.93 991.677 1
16 11 -1 2017.16 915.551 3
11 -27 2 5085.85 1191.08 1
-27 16 2 7310.94 974.741 4
16 11 2 7602.48 1170.61 3
-27 16 2 7767.16 1057.17 2
11 -27 5 808.77 1008.51 1
-27 16 5 809.112 859.013 4
-27 16 5 683.674 761.69 2
16 11 5 1847.69 968.442 3
16 11 8 5318.01 1480.34 2
-27 16 8 4271.66 1163.64 4
16 11 8 3198.31 1034.92 4
-27 16 8 3192.54 1100.53 2
11 -27 8 3836.85 1297.41 1
16 11 8 4720.4 1132.37 3
16 12 -8 1333.57 1161.91 3
12 -28 -8 1878.03 1453.86 1
16 12 -5 1595.86 1063.4 3
12 -28 -5 191.698 1069.91 1
12 -28 -2 -463.47 1130.9 1
-28 16 -2 683.687 501.951 4
16 12 -2 -492.874 932.586 3
12 -28 1 1691.41 1031.79 1
-28 16 1 1102.86 742.512 2
-28 16 1 228.4 602.073 4
16 12 1 -1041.81 932.69 3
-28 16 4 3981.74 957.91 4
12 -28 4 3699.77 1124.82 1
-28 16 4 1954.51 835.4 2
16 12 4 1307.47 926.361 3
-28 16 7 3371.45 1097.5 4
-28 16 7 1736.01 938.123 2
16 12 7 746.95 937.374 3
12 -28 7 -32.1036 1073.73 1
16 13 -6 28994.2 2155.63 3
13 -29 -6 30341.5 2639.68 1
16 13 -3 334.304 977.333 3
13 -29 -3 1374.81 1152.01 1
-29 16 0 28842.6 1793.65 2
13 -29 0 31955.4 2245.64 1
-29 16 0 33957 1661.91 4
16 13 0 31660.1 2053.36 3
-29 16 3 2269.63 864.026 4
13 -29 3 4189.91 1198.78 1
16 13 3 3340.66 1048.85 3
-29 16 3 2617.66 921.875 2
-29 16 6 40814.9 2348.15 4
-29 16 6 40232.3 2329.22 2
13 -29 6 40661.5 2549.45 1
16 13 6 48020.8 2552.62 3
16 14 -7 2478.53 1307.68 3
14 -30 -7 1675.17 1439.92 1
16 14 -4 7633.57 1359.87 3
14 -30 -4 3765.56 1350.43 1
-30 16 -1 3258.43 738.031 4
14 -30 -1 1581.32 1155.15 1
16 14 -1 2819.95 1021.45 3
-30 16 2 2604.33 872.85 2
-30 16 2 5727.2 957.269 4
14 -30 2 4273.22 1264.65 1
16 14 2 6016.43 1178.82 3
14 -30 5 644.531 1045.98 1
-30 16 5 1109.75 901.814 4
-30 16 5 402.052 835.129 2
16 14 5 814.924 974.597 3
16 15 -5 2491.53 1205.7 3
15 -31 -5 2200.7 1444.6 1
-31 16 -2 10173.1 1019.67 4
15 -31 -2 9993.46 1629.38 1
16 15 -2 10324.8 1499.8 3
-31 16 1 2233.14 938.844 2
-31 16 1 1245.07 816.23 4
15 -31 1 2364.72 1156.25 1
16 15 1 1907.06 1099.91 3
15 -31 4 9658.3 1565.86 1
-31 16 4 12233 1376.07 4
-31 16 4 10962.1 1407.49 2
16 15 4 9370.88 1421.58 3
15 -31 7 1182.78 1279.08 1
-31 16 7 1126.23 1062.14 4
-31 16 7 1675.61 1094.77 2
16 15 7 603.253 1030.95 3
16 16 -6 9597.66 1698.35 3
16 -32 -6 9964.65 1986.27 1
16 16 -3 2306.41 1244.95 3
16 -32 -3 1042.85 1332.17 1
-32 16 0 21933.8 1774.96 2
16 -32 0 22443.2 2038.12 1
-32 16 0 27525.2 1639.44 4
16 16 0 29073.6 2112.7 3
-32 16 3 892.991 849.227 2
-32 16 3 112.533 821.617 4
16 -32 3 1103.5 1035.8 1
16 16 3 2605.65 1175.81 3
16 -32 6 9157.03 1741.25 1
-32 16 6 10057.1 1469.03 2
-32 16 6 12252.8 1579.43 4
16 16 6 11239.5 1651.39 3
17 -33 -4 2793.73 1453.66 1
16 17 -4 5888.88 1503.24 3
16 17 -1 454.866 1119.73 3
17 -33 -1 222.229 1239.38 1
-33 16 -1 63.2103 635.496 4
-33 16 2 4757.54 1167.01 2
-33 16 2 3916.03 983.805 4
16 17 2 6268.98 1404.99 3
-33 16 5 185.165 894.835 4
17 -33 5 -1237.91 1142.35 1
16 17 5 -1197.71 1164.75 3
-33 16 5 -656.662 1014.25 2
15 17 -5 3352.2 1399.26 3
17 -32 -5 1911.92 1391.15 1
17 -32 -2 3226.32 1267.83 1
-32 15 -2 1863.44 729.468 4
-32 15 1 3637.97 1074.77 2
-32 15 1 4065.33 928.771 4
17 -32 1 2274.89 1231.98 1
15 17 1 3667.57 1190.98 3
-32 15 4 1277.78 907.389 2
17 -32 4 311.738 1149.67 1
-32 15 4 2048.26 958.659 4
14 17 -6 3090.78 1483.41 3
17 -31 -6 1155.37 1452.29 1
17 -31 -3 9078.29 1612.96 1
14 17 -3 17882.3 1846.79 3
-31 14 0 8503.09 1299.72 2
17 -31 0 11687.2 1579.51 1
-31 14 0 10625 1130.95 4
-31 14 3 10294.1 1289.19 4
14 17 3 12800.4 1602.11 3
-31 14 3 12653.9 1367.86 2
-31 14 6 10387 1474.21 4
-31 14 6 7358.73 1391.77 2
14 17 6 9303.11 1480.29 3
17 -31 6 8846.73 1580.15 1
13 17 -7 1609.68 1255.07 3
17 -30 -7 375.535 1504.8 1
17 -30 -4 4972.87 1571.01 1
13 17 -4 5801.82 1376.33 3
13 17 -1 -1403 1106.03 3
17 -30 -1 -33.7187 1073.42 1
-30 13 -1 114.17 598.595 4
-30 13 2 2576.33 989.139 2
-30 13 2 2268.43 824.037 4
17 -30 2 2161.42 1181.15 1
13 17 2 3730.89 1076.65 3
17 -30 5 837.792 1054.15 1
-30 13 5 1668.54 998.593 4
-30 13 5 1259.03 901.943 2
13 17 5 1164.28 1067.3 3
12 17 -8 309.617 1305.19 3
17 -29 -8 135.32 1377.23 1
12 17 -5 5945.14 1437.17 3
17 -29 -5 4914.86 1520.66 1
12 17 -2 7021.88 1346.34 3
17 -29 -2 5668.75 1312.71 1
-29 12 -2 9520.16 959.255 4
-29 12 1 7555.94 1124.64 2
17 -29 1 9030.78 1501.44 1
-29 12 1 11297.2 1140.31 4
12 17 1 10040.4 1372.89 3
17 -29 4 6017.3 1346.14 1
-29 12 4 6126.46 1079.25 4
-29 12 4 9289.12 1277.32 2
12 17 4 5138.14 1173.42 3
17 -29 7 3988.06 1355.81 1
12 17 7 6592.49 1500 2
-29 12 7 3210.88 1032.52 4
-29 12 7 8549.1 1425.13 2
12 17 7 5143.9 1205.94 4
12 17 7 5640.3 1336.92 3
11 17 -6 5750.96 1433.09 3
17 -28 -6 4497.33 1606.79 1
11 17 -3 22860.1 1935.48 3
17 -28 -3 19393.9 1987.31 1
-28 11 0 11915.5 1306.76 2
17 -28 0 16125.1 1720.97 1
-28 11 0 13224.7 1127.69 4
11 17 0 9141.77 1391.07 3
17 -28 3 28000.2 2009.42 1
-28 11 3 29839.8 1787.47 4
11 17 3 27151.5 1944.74 3
-28 11 3 25066.4 1708.11 2
17 -28 6 3526.42 1215.26 1
-28 11 6 3917.08 1076.41 4
-28 11 6 3571.8 966.524 2
11 17 6 3326.51 1137.18 3
10 17 -7 5305.13 1403.6 3
17 -27 -7 3747.79 1575.31 1
10 17 -4 8902.96 1468 3
17 -27 -4 7853.96 1526.35 1
-27 10 -1 12294.9 1050.17 4
17 -27 -1 12329.6 1494.43 1
17 -27 2 9783.14 1345.34 1
-27 10 2 8928.63 1074.82 4
10 17 2 11861.2 1407.02 3
-27 10 2 7434.91 1091.22 2
17 -27 5 1100.9 1021.93 1
-27 10 5 573.952 801.856 4
-27 10 5 1056.11 806.849 2
10 17 5 1761.91 998.791 3
10 17 8 3722.65 1274.83 2
-27 10 8 3662.05 1169.25 4
10 17 8 549.212 1025.2 4
-27 10 8 838.837 972.222 2
17 -27 8 1948.57 1212.71 1
10 17 8 2353.83 1109.08 3
17 -26 -8 2840.8 1423.43 1
9 17 -5 7746.14 1501.87 3
17 -26 -5 11404.5 1740.55 1
17 -26 -2 26709.6 2035.83 1
9 17 -2 30114.2 2019.26 3
9 17 1 677.876 966.11 3
-26 9 1 -431.234 754.019 2
-26 9 1 371.46 653.764 4
17 -26 1 831.295 1005.13 1
-26 9 4 5578.27 968.02 4
-26 9 4 4614.62 953.589 2
17 -26 4 6059.6 1213.37 1
9 17 4 3148.93 957.607 3
17 -26 7 4012.32 1203.87 1
9 17 7 2771.68 1039.99 4
9 17 7 1627.58 1178.19 2
-26 9 7 2513.5 936.189 4
-26 9 7 2737.04 1040.2 2
9 17 7 2753.99 995.948 3
17 -25 -6 3903.67 1421.92 1
8 17 -6 7581.61 1426.32 3
8 17 -3 26192.3 1926.48 3
17 -25 -3 20757.5 1806.73 1
-25 8 0 8994.11 1147.99 2
17 -25 0 9445.69 719.175 2
17 -25 0 7987.05 1244.32 1
-25 8 0 10318.7 1002.99 4
-25 8 0 8366.25 723.679 1
8 17 0 9536.63 1319.43 3
17 -25 3 22096.1 1743.86 1
-25 8 3 22114.6 1520.55 4
-25 8 3 21329 1561.75 2
8 17 3 21150.3 1614.58 3
8 17 6 10201 1369.15 4
8 17 6 12519.8 1558.74 2
-25 8 6 12019.2 1324.23 4
-25 8 6 9868.4 1246.85 2
17 -25 6 8362.55 1301.43 1
8 17 6 12408.6 1362.29 3
8 17 9 9909.41 1437.21 4
-25 8 9 13419.3 1668.29 4
17 -25 9 10735.7 1624.53 1
-25 8 9 9800.15 1463.86 2
8 17 9 11555.3 1517.14 3
8 17 9 10857.6 1655.59 2
7 17 -7 12355.1 1669.73 3
17 -24 -7 12078.3 1849.98 1
7 17 -4 6373.04 1406.55 3
17 -24 -4 5758.19 1201.63 1
17 -24 -1 6702.17 1134.81 1
17 -24 -1 7147.34 771.094 2
-24 7 -1 6387.28 805.699 4
-24 7 -1 5182.28 437.832 1
-24 7 2 12321.2 1131.72 4
17 -24 2 13140.9 1380.34 1
7 17 2 13023.8 1381.59 3
-24 7 2 12838.3 1213.79 2
-24 7 5 32278.5 1856.12 4
-24 7 5 28325.5 1767.19 2
17 -24 5 28510.9 1896.03 1
7 17 8 19710 1793.91 4
7 17 8 17533.3 1887.96 2
-24 7 8 20140.9 1758.23 4
17 -24 8 21460.3 1884.71 1
-24 7 8 20128.8 1733.14 2
7 17 8 21787.1 1711.8 3
6 17 -5 7944.92 1361.66 3
17 -23 -5 7685.62 1374.81 1
6 17 -2 8319.65 1284.59 3
17 -23 -2 8580.57 1272.03 1
6 17 1 -305.596 858.955 3
-23 6 1 1468.35 732.363 2
17 -23 1 572.211 330.361 2
-23 6 1 181.14 562.02 4
17 -23 1 507.79 844.26 1
-23 6 1 529.743 463.988 1
-23 6 4 14815.3 1281.02 4
-23 6 4 14618.8 1293.82 2
6 17 4 14790.3 1359.11 3
17 -23 4 14591.3 1406.56 1
6 17 7 2467.92 1002.67 3
6 17 7 816.184 849.069 4
6 17 7 929.441 957.167 2
-23 6 7 2104.25 854.031 4
-23 6 7 1601.25 843.468 2
17 -23 7 1205.19 968.243 1
6 17 10 6254.92 1523.2 2
-23 6 10 5918.12 1315.46 4
6 17 10 4771.26 1281.94 4
-23 6 10 4571.5 1223.56 2
17 -23 10 7606.75 1405 1
5 17 -6 4212.91 1254.21 3
17 -22 -6 2235.78 1210.22 1
5 17 -3 7643.83 1345.56 3
17 -22 -3 8794.31 1264.73 1
-22 5 0 13863.4 1231.45 2
-22 5 0 13819.2 714.088 1
17 -22 0 14386.6 842.276 2
17 -22 0 14617.7 1433.56 1
-22 5 0 12842.8 1020.91 4
5 17 0 17355.6 1515.63 3
17 -22 3 30920.9 1811.49 1
-22 5 3 27847.4 1602.55 4
-22 5 3 31028.3 1681.63 2
5 17 3 31800 1813.59 3
5 17 6 13788.2 1388.65 4
-22 5 6 14321.9 1356.79 4
5 17 6 13784.3 1495.1 2
-22 5 6 16831 1446.31 2
17 -22 6 15573 1477.07 1
5 17 6 13325.4 1317.25 3
5 17 9 11635.8 1550.55 4
5 17 9 12862.7 1758.51 2
-22 5 9 15149.3 1589.81 4
17 -22 9 10767 1464.98 1
-22 5 9 10434.9 1396.05 2
5 17 9 11103.4 1324.66 3
17 -21 -7 42155.2 1233.94 3
17 -21 -7 33689.5 2570.85 1
4 17 -4 26224.9 1883.62 3
17 -21 -4 23235.1 1836.88 1
17 -21 -1 87187.5 2087.55 2
-21 4 -1 92483.6 2369.54 4
17 -21 -1 93711.4 2987.56 1
-21 4 2 15284 993.968 1
17 -21 2 14329.5 1344.72 1
17 -21 2 14364 590.125 2
-21 4 2 16448.3 1200.74 4
-21 4 2 17044.9 1288.93 2
4 17 2 17424.8 1448.88 3
4 17 5 36924.5 1941.97 4
4 17 5 35003.5 1894.45 2
-21 4 5 39041.3 1922.35 4
-21 4 5 36337.1 1852.03 2
17 -21 5 33326.6 1907.02 1
4 17 5 36773.3 1912.51 3
4 17 8 19545.3 1673.81 4
-21 4 8 26222.9 1842.27 4
17 -21 8 24397.5 1843.51 1
4 17 8 23494 2038.56 2
-21 4 8 24065.6 1753.38 2
4 17 8 24517.7 1665.23 3
17 -20 -5 874.369 944.073 1
3 17 -5 994.369 981.438 3
3 17 -5 1269.18 500.944 2
3 17 -2 208.311 998.113 3
17 -20 -2 -29.7537 791.517 1
3 17 -2 995.087 413.692 2
-20 3 1 9375.19 1035.18 2
17 -20 1 8426.18 751.929 4
-20 3 1 9258.26 903.846 4
17 -20 1 8571.24 1111.46 1
17 -20 1 9420.24 629.943 2
-20 3 1 8182.58 639.731 1
3 17 1 11134.1 1279.17 3
17 -20 4 14605.9 567.267 2
3 17 4 16675.1 1294.19 2
17 -20 4 15781.3 531.736 2
-20 3 4 16418.7 1264.75 4
-20 3 4 16909.1 1288.34 2
17 -20 4 18062.3 1395.73 1
3 17 4 18644.3 1395.58 3
3 17 7 2047.91 840.171 3
3 17 7 952.625 1009.52 2
-20 3 7 378.785 725.369 4
3 17 7 217.011 825.705 4
-20 3 7 1757.91 805.609 2
17 -20 7 473.872 825.879 1
3 17 10 6967.38 1373.3 4
3 17 10 7114.12 1505.1 2
-20 3 10 5282.83 1226.38 4
17 -20 10 5987.08 1186.47 3
17 -20 10 7558.46 1409.45 1
-20 3 10 7710.75 1294.05 2
17 -19 -6 10084.4 1455.4 1
17 -19 -6 8520.04 654.086 3
2 17 -3 43209.1 2184.05 3
17 -19 -3 42494.8 2111.25 1
2 17 -3 43698.8 1275.22 2
2 17 0 3299.54 543.213 2
2 17 0 3448 968.184 3
-19 2 0 3685.6 820.738 2
17 -19 0 2792.36 565.255 4
-19 2 0 3529.47 366.363 1
17 -19 0 2485.6 485.678 2
-19 2 0 2560.98 636.24 4
17 -19 0 3611.97 830.725 1
17 -19 3 24096.5 1499.51 1
-19 2 3 24181.5 1416.72 4
17 -19 3 23503.5 760.57 2
-19 2 3 25983.3 1461.11 2
2 17 3 27347.6 1612.6 3
2 17 6 8566.78 1133.84 4
17 -19 6 7159.55 588.657 2
2 17 6 7110.11 1115.66 2
-19 2 6 9262.45 1078.72 4
17 -19 6 8788.58 1128.4 1
-19 2 6 8011.27 1060.9 2
2 17 6 7654.32 1029.42 3
2 17 9 11873.9 1249.48 3
2 17 9 11752.5 1475.4 4
2 17 9 10777.4 1493.69 2
-19 2 9 7866.15 1180.04 4
17 -19 9 11825.5 1349.17 3
17 -19 9 11311.9 1362.82 1
-19 2 9 9427.5 1240.19 2
17 -18 -7 111703 1571.4 3
1 17 -4 34568.1 2011.39 3
17 -18 -4 29088 1434.49 3
1 17 -4 30092 1075.93 2
17 -18 -4 29878.1 1924.4 1
1 17 -1 77437.4 2678.99 3
17 -18 -1 71186.7 1870.93 2
17 -18 -1 79253.6 2551.39 1
1 17 -1 74799.5 1680.77 2
1 17 2 68143.3 2389.78 3
-18 1 2 70968.2 1927.22 1
17 -18 2 72046.7 1532.21 4
-18 1 2 73483.2 2194.83 4
17 -18 2 68014 1400.77 2
17 -18 2 70141.9 2293.55 1
-18 1 2 75291.9 2264.6 2
17 -18 5 53957.6 1380.38 2
1 17 5 57556.2 2270.72 2
-18 1 5 56557.3 2165.22 4
1 17 5 54798.2 2226.21 4
17 -18 5 51665.3 1225.4 2
-18 1 5 52749.3 2080.7 2
17 -18 5 54345 2124.19 1
1 17 5 59747.8 2213.14 3
1 17 8 24861.8 1550.84 3
1 17 8 27567.6 1912.01 4
1 17 8 28133.9 2067.24 2
17 -18 8 25338.4 1238.77 2
-18 1 8 30585.3 1900.11 4
17 -18 8 27064.9 1741.72 3
17 -18 8 28162.5 1821.04 1
-18 1 8 31088.9 1834.29 2
1 17 11 10185.4 1651.2 4
1 17 11 10748.4 1759.95 2
-18 1 11 8957.9 1411.56 4
17 -18 11 10393.5 1538.02 1
17 -18 11 9344.91 1319.83 3
-18 1 11 8579.24 1353.04 2
17 -17 -5 1506.96 630.3 3
0 17 -5 74.1006 340.599 2
17 -17 -5 618.804 406.125 3
17 -17 -5 -748.182 944.115 1
0 17 -2 31238.1 1836.76 3
17 -17 -2 30154.4 1675.31 1
0 17 -2 28759.5 918.283 2
0 17 1 2197.93 892.365 3
-17 0 1 94.5235 629.736 2
-17 0 1 989.922 391.254 1
17 -17 1 379.608 365.416 4
-17 0 1 684.458 545.289 4
17 -17 1 759.763 335.487 2
17 -17 1 1318.04 691.049 1
0 17 4 -526.248 764.716 3
17 -17 4 -732.844 696.468 1
-17 0 4 266.065 586.5 4
0 17 4 -13.9127 648.408 2
0 17 4 303.2 684.935 4
17 -17 4 -5.663 284.655 2
-17 0 4 69.104 542.169 2
0 17 7 1254.98 804.825 3
0 17 7 608.956 823.856 4
17 -17 7 1404.59 560.035 2
0 17 7 365.703 889.342 2
-17 0 7 1998.31 778.509 4
17 -17 7 1202.02 788.023 1
-17 0 7 1363.68 755.045 2
0 17 10 13611.4 1715.88 2
-17 0 10 12032 1356.16 4
17 -17 10 11914.6 1440.43 1
17 -17 10 12269 1349.09 3
-17 0 10 12853.3 1413.46 2
0 17 10 9998.01 1434.95 4
17 -16 -6 14683 860.358 3
-1 17 -6 14502.8 795.919 2
17 -16 -6 15741.3 702.619 3
-1 17 -3 41177.6 2014.13 3
-1 17 -3 40089.9 982.38 2
17 -16 -3 36874.6 1878.67 1
-1 17 0 30466.4 1735.29 3
-16 -1 0 28316.9 734.453 1
17 -16 0 27095.4 1156.13 4
17 -16 0 29469.8 1119.5 2
-16 -1 0 27443.3 766.965 1
-16 -1 0 26316.2 1289.8 4
17 -16 0 27547.4 1418.2 1
-1 17 3 50590.6 2002.33 3
17 -16 3 49976.8 1844.4 1
-1 17 3 51778.5 1975.5 4
-1 17 3 48876.6 1800.72 2
-16 -1 3 49020.9 1843.49 4
17 -16 3 45873.8 960.268 4
17 -16 3 44010.1 1171.36 2
-16 -1 3 51564.2 1876.33 2
-1 17 6 23014.9 1420.34 3
17 -16 6 22963 1160.04 2
-1 17 6 20738.5 1510.89 4
-1 17 6 23261.2 1620.82 2
-16 -1 6 21303.1 1415.26 4
17 -16 6 23634.7 1465.65 1
-16 -1 6 22588.9 1423.86 2
17 -16 6 19215.1 1008.53 2
-1 17 9 2615.42 832.908 3
-1 17 9 5376.48 1196.21 4
17 -16 9 4099.22 842.562 2
-1 17 9 1824.48 1044.33 2
-16 -1 9 3813.46 954.66 4
17 -16 9 4345.73 898.664 3
17 -16 9 4095.67 980.668 1
-16 -1 9 2491.35 830.992 2
17 -15 -7 116737 1237.33 3
-2 17 -4 3377.68 555.326 4
-2 17 -4 3377.54 337.751 2
17 -15 -4 4017.07 1004.98 1
17 -15 -4 4399.93 568.317 3
17 -15 -1 102003 2647.17 1
17 -15 -1 100351 2178.22 2
-2 17 -1 102788 1595.35 2
-2 17 2 108425 2827.85 3
-2 17 2 105930 2323.19 2
17 -15 2 104756 1735.05 4
17 -15 2 105006 2520.71 1
-2 17 2 110901 2630.53 4
-15 -2 2 105459 2518.63 4
17 -15 2 103276 1858.84 2
-15 -2 2 108696 2571.9 2
-2 17 5 60365.6 2075.06 3
-2 17 5 63131.8 2324.89 4
-2 17 5 63376.5 2322.38 2
17 -15 5 64522.7 2085.7 1
-15 -2 5 62974.9 2123.71 2
17 -15 5 57517.8 1540.56 2
-2 17 8 73154.6 2233.94 3
-2 17 8 70538.7 2791.87 4
17 -15 8 72044.2 2245.13 2
-15 -2 8 72689 2594.25 4
17 -15 8 72599.5 2595.16 3
17 -15 8 69611.6 2557.9 1
-15 -2 8 70988.3 2540.09 2
-2 17 11 21347.1 1976.79 4
-2 17 11 20528 2034.86 2
-15 -2 11 18493.4 1676.66 4
17 -15 11 20500 1803.58 1
17 -15 11 16472.7 1549.63 3
-15 -2 11 20581.7 1728.01 2
-3 17 -5 762.314 258.68 2
-3 17 -5 785.659 385.619 4
17 -14 -5 1051.9 354.892 3
-3 17 -2 9037.34 1172.55 3
17 -14 -2 9286.68 974.187 1
17 -14 -2 8907.03 732.258 3
-3 17 -2 9051.48 401.512 2
-14 -3 1 32524.7 1473.45 2
-3 17 1 31088.8 1687.9 3
-14 -3 1 35903.1 1069.5 1
17 -14 1 32886.7 1130.28 4
17 -14 1 32664.4 1439.12 1
-14 -3 1 36071.6 1476.15 4
-3 17 1 35065.2 1224.74 2
17 -14 1 35618 1170.2 2
-3 17 4 7810.65 1028.44 3
-3 17 4 8607.77 977.465 4
-3 17 4 10106.9 990.236 2
-14 -3 4 9127.56 918.16 4
17 -14 4 10714.3 1013.38 3
-14 -3 4 8271.15 880.194 2
17 -14 4 9417.65 921.761 1
17 -14 4 8964.61 666.014 2
-3 17 7 6819.41 921.5 3
17 -14 7 8767.56 932.896 2
-3 17 7 7234.24 1080.43 4
-3 17 7 7193.32 1175.29 2
-14 -3 7 8405.77 1045.15 4
17 -14 7 5896.96 920.566 3
17 -14 7 6214.62 909.136 1
-14 -3 7 6575.91 920.108 2
-3 17 10 3190.56 1088.93 4
17 -14 10 3701.94 892.147 2
-3 17 10 5127.3 1374.98 2
-14 -3 10 3137.77 958.632 4
17 -14 10 3168.1 912.613 3
17 -14 10 3510.05 975.238 1
-14 -3 10 4289.17 1015.31 2
-4 17 -6 27821.2 1050.99 4
17 -13 -6 30719.8 868.452 3
-4 17 -3 12210.7 745.705 4
17 -13 -3 12142.2 778.712 3
-4 17 0 23359.3 843.921 2
-4 17 0 23789.7 1472.18 3
17 -13 0 23514.1 1053.93 4
-13 -4 0 23610.3 720.452 1
17 -13 0 23816.5 1220.34 3
17 -13 0 22275.2 1009.05 2
17 -13 0 22775.6 1211.17 1
17 -13 3 24803.8 1227.68 1
-4 17 3 21405.6 1315.12 3
-13 -4 3 19410.1 1161.84 1
-4 17 3 25388.1 1354.14 4
-4 17 3 21892.5 1194.4 2
17 -13 3 23902.5 733.935 4
-13 -4 3 22344.9 1214.6 4
17 -13 3 25469.4 1362.36 3
17 -13 3 22664.4 978.866 2
-13 -4 3 19955.9 1129.2 2
-4 17 6 11179.2 1020.98 3
-4 17 6 12989.9 1305.46 2
-13 -4 6 10496.8 1030.23 4
17 -13 6 9560.87 1045.51 3
-4 17 6 9661.72 1167.64 4
17 -13 6 10420.3 941.956 1
-13 -4 6 12165.5 1028.68 2
-4 17 9 6112.55 1174.92 4
17 -13 9 5766.51 982.898 2
-4 17 9 5340.34 1216.29 2
-13 -4 9 7016.67 1029.64 4
17 -13 9 6366.66 1022.09 1
17 -13 9 6728.68 1046.45 3
-13 -4 9 5378.3 940.853 2
-5 17 -7 49605.1 1270.77 4
17 -12 -7 48036.4 683.392 3
-5 17 -4 29439.9 1013.76 4
17 -12 -4 29591.5 1042.01 3
17 -12 -4 27061.1 1703.95 1
-5 17 -1 108371 1258.04 2
-12 -5 -1 108425 1264.89 1
-5 17 -1 104750 1277.42 2
17 -12 -1 104456 2486.23 1
17 -12 -1 106170 2255.51 3
-12 -5 2 39744.9 1535.53 2
-5 17 2 40661.5 1379.93 2
-5 17 2 42696.2 1774.9 3
-12 -5 2 40042.9 1358.61 1
17 -12 2 39920.4 1111.28 4
-12 -5 2 42137.8 1596.53 4
17 -12 2 37622.2 1524.12 3
17 -12 2 38617.1 1428.93 1
-5 17 2 39602.1 1559.49 4
17 -12 2 38071.7 1222.84 2
-5 17 5 150263 2983.18 3
-12 -5 5 139410 3049.44 4
-5 17 5 150610 3315.24 2
17 -12 5 146548 3214.84 3
17 -12 5 147651 2842.44 1
-12 -5 5 136784 2938.48 2
17 -12 8 54109.1 2196.97 2
-5 17 8 52866.6 2400.77 4
-12 -5 8 55873.1 2224.63 4
17 -12 8 54667 2149.11 1
17 -12 8 58613.3 2260.2 3
-12 -5 8 53521.2 2142.18 2
-12 -5 11 18460.8 2147.78 1
-5 17 11 19935.2 1841.49 4
17 -12 11 21790.1 1734.55 2
-12 -5 11 17938.4 1590.57 4
17 -12 11 20396.9 1703.77 1
17 -12 11 18970.3 1565.79 3
-12 -5 11 18088.7 1600.58 2
-5 17 11 19260.5 1991.35 2
-6 17 -5 29276.7 927.324 4
17 -11 -5 28573.6 974.145 3
-11 -6 -2 1018.39 204.984 1
17 -11 -2 1586.41 477.169 3
17 -11 -2 1187.86 594.461 1
-11 -6 1 158873 2930.18 2
-6 17 1 162664 2868.36 4
-6 17 1 162699 2284.29 2
17 -11 1 161179 2425.14 4
-11 -6 1 162957 2295.29 1
17 -11 1 165253 2959.06 3
17 -11 1 157685 2614.75 1
17 -11 1 159813 2571.48 2
-6 17 4 26473.7 1468.55 4
-6 17 4 26489.6 1366.75 3
17 -11 4 24620.1 717.865 4
-11 -6 4 23622.8 1279.03 4
17 -11 4 26570.1 1401.25 3
-11 -6 4 25286.2 1386.12 1
-6 17 4 27678.1 1406.74 2
-11 -6 4 24904.7 1255.71 2
17 -11 4 26178.9 1156.31 1
17 -11 4 23200 1104.88 2
17 -11 7 28799.6 1597.56 2
-6 17 7 28809.2 1777.12 4
-6 17 7 29151.7 1806.56 2
-11 -6 7 28911.4 1568.77 4
17 -11 7 29295.8 1471.24 1
17 -11 7 25669.5 1525.18 3
-11 -6 7 24945.1 1415.85 2
-11 -6 10 3000.06 1253.62 1
17 -11 10 3907.41 1016.6 2
-6 17 10 3704.92 1154.27 2
-11 -6 10 1994.92 798.939 4
17 -11 10 3840.48 966.067 1
17 -11 10 2697.03 847.504 3
-6 17 10 4164.98 1128.54 4
-11 -6 10 3842.72 896.273 2
-7 17 -6 6011.54 408.09 4
17 -10 -6 6518.84 460.031 3
-7 17 -3 13864.2 686.614 4
17 -10 -3 13981 790.365 3
-10 -7 -3 13679.1 620.274 1
17 -10 -3 14362.2 1182.57 1
-7 17 0 25743.6 1110.5 4
17 -10 0 25880.7 1109.1 4
-7 17 0 27895 787.71 2
17 -10 0 28687 1253.99 3
17 -10 0 30592 1215.33 1
17 -10 0 28160.1 1182.72 2
-10 -7 0 27914.4 910.268 1
17 -10 3 24806.5 1059.04 1
-7 17 3 23395.3 1320.2 4
-10 -7 3 24356.4 1236.91 1
-7 17 3 23292.1 1156.74 2
17 -10 3 24579.2 849.183 4
-10 -7 3 23471.9 1214.76 4
17 -10 3 23462.1 1291.05 3
17 -10 3 24856.7 1119.83 2
-10 -7 3 25794.1 1187.34 2
-10 -7 6 16002.9 1373.98 1
17 -10 6 12855.4 501 4
-7 17 6 16986.6 1338.77 4
-7 17 6 14209.8 1236.47 2
17 -10 6 12435.4 469.702 4
-10 -7 6 15335.2 1119 4
17 -10 6 16039.9 1234.85 3
17 -10 6 14076.4 970.471 1
-10 -7 6 14141.3 1041.54 2
17 -10 9 13731 1365.54 2
-7 17 9 14452.1 1491.05 4
-7 17 9 18652.7 1699.44 2
-10 -7 9 16585.9 1341.54 4
-10 -7 9 18505.3 1861.95 1
17 -10 9 15311 1290.97 3
17 -10 9 15592.9 1291.12 1
-10 -7 9 17066.6 1321.23 2
-8 17 -7 47220.1 667.47 4
17 -9 -7 63799.4 1044.76 3
-8 17 -4 4256.47 365.035 4
17 -9 -4 4253.29 531.317 3
-9 -8 -1 170817 2183.45 1
-8 17 -1 167931 2463.06 4
17 -9 -1 172455 2945.86 1
17 -9 -1 174946 2832.28 3
-9 -8 2 72001 1901.41 2
-8 17 2 70107.7 2023.94 4
17 -9 2 70609.7 1570.96 4
-8 17 2 70295 1712.46 2
-9 -8 2 73619.4 1852.59 1
17 -9 2 67756.3 1556.65 1
17 -9 2 73313.2 2055.96 3
17 -9 2 67243.1 1764.74 2
-9 -8 5 128016 3222.46 1
-8 17 5 127511 3167.28 4
-8 17 5 127629 2989.6 2
17 -9 5 130877 1765.9 4
-9 -8 5 126988 2796.05 4
17 -9 5 126994 2920.8 3
17 -9 5 134815 2398.98 1
-9 -8 5 123434 2593.2 2
17 -9 8 20725.5 1562.36 2
-9 -8 8 20233 1772.67 1
17 -9 8 18048.9 646.206 4
-9 -8 8 22442.2 1412.72 4
17 -9 8 22213.4 1335.92 1
17 -9 8 20357.3 1449.36 3
-9 -8 8 23028.5 1399.53 2
-8 17 8 23462.9 1735.04 2
-8 17 8 23731.1 1703.9 4
17 -9 11 24187.5 1981.83 2
-8 17 11 29112.7 2226.37 2
17 -9 11 26249.7 1778.21 1
-9 -8 11 25880.5 2359.97 1
-9 -8 11 24827 1688.2 4
17 -9 11 24910.4 1697.33 3
-9 -8 11 23580.7 1672.37 2
-8 17 11 27136.2 2107.91 4
-9 17 -5 134839 1235.8 4
-9 17 -5 136723 1247.35 4
-9 17 -2 72138.7 1468.19 4
17 -8 -2 76717.6 1818.86 3
-8 -9 -2 73224.4 1502.75 1
17 -8 1 175254 2402.52 1
-9 17 1 186360 2959.02 4
17 -8 1 184531 2724.83 4
-9 17 1 180882 2307.35 2
-8 -9 1 177159 2606.56 1
17 -8 1 179723 3102.38 3
-9 17 4 24763 1403.09 4
-8 -9 4 27143.1 1436.93 1
-9 17 4 25091.6 1307.21 2
17 -8 4 21515.9 856.115 4
-8 -9 4 22620.2 1202.22 4
17 -8 4 22500.6 1289.59 3
-8 -9 4 25267.7 1172.01 2
17 -8 4 23165.7 963.282 1
17 -8 7 45064 1186.96 4
-9 17 7 47169 2160.52 4
-9 17 7 48573.6 2181.65 2
17 -8 7 38491 1050.81 4
-8 -9 7 46388.3 1839.89 4
17 -8 7 46262.6 1670.07 1
17 -8 7 45140.5 1925.56 3
-8 -9 7 44027 2305.62 1
-8 -9 7 45190.6 1732.47 2
-8 -9 10 25742.7 2222.84 1
17 -8 10 22496.5 1839.82 2
-9 17 10 22563.7 1840.38 4
-9 17 10 22643 1930.2 2
17 -8 10 20465.2 1508.49 1
-8 -9 10 20561.4 1457.16 4
17 -8 10 22140.8 1560.64 3
-8 -9 10 22556.7 1533.11 2
17 -7 -6 1699.54 406.971 3
-10 17 -3 22190.2 710.88 4
-7 -10 -3 20156.2 945.369 1
17 -7 -3 20016.2 957.166 3
-10 17 0 33117.3 1213.38 4
17 -7 0 31684.8 1244.53 4
17 -7 0 34002.4 1174.84 1
-10 17 0 33996.8 829.632 2
17 -7 0 33856.6 1356.8 3
-7 -10 0 33367.7 1135.16 1
-7 -10 3 8526.48 723.617 2
17 -7 3 9668.71 576.146 1
-10 17 3 8800.35 856.861 4
-7 -10 3 9645.6 854.1 1
-10 17 3 9488.97 786.987 2
17 -7 3 10268.2 668.421 4
17 -7 3 11232 958.707 3
17 -7 6 15687.9 785.422 4
-7 -10 6 19299.5 1493.08 1
-10 17 6 18563.5 1400.54 4
-10 17 6 18544.1 1373.28 2
-7 -10 6 18877 1187.75 4
17 -7 6 16934.9 954.817 1
17 -7 6 18596.4 1276.27 3
-7 -10 6 18054.3 1070.7 2
17 -7 9 336.405 901.385 2
-10 17 9 -85.6456 839.445 4
-7 -10 9 397.69 1027.59 1
-10 17 9 672.9 997.929 2
-7 -10 9 83.885 598.497 4
17 -7 9 257.753 629.243 1
17 -7 9 676.539 735.114 3
-7 -10 9 -303.932 607.907 2
17 -6 -7 19898.5 812.508 3
-11 17 -4 17056.3 405.95 4
-11 17 -4 17585.3 407.604 4
-6 -11 -1 158715 2526.66 1
-11 17 -1 160840 2291.87 4
17 -6 -1 159998 2747.3 3
-11 17 -1 163295 1402.69 2
17 -6 2 4526.98 384.138 1
-11 17 2 5160 720.596 4
17 -6 2 5329.41 568.514 4
-11 17 2 6437.15 612.48 2
-6 -11 2 6396.06 703.822 1
17 -6 2 5329.96 720.887 3
-6 -11 5 29391.2 1656.95 1
-11 17 5 30844.6 1545.97 2
17 -6 5 28056.4 1064.92 4
-6 -11 5 29462.8 1379.03 4
17 -6 5 32338.4 1552.41 3
17 -6 5 32390.7 1049.58 1
-11 17 5 30022.5 1602.04 4
-6 -11 5 29961.3 1244.21 2
17 -6 8 -42.08 416.683 4
17 -6 8 -344.146 824.532 2
-6 -11 8 -1072.03 1029.32 1
-11 17 8 733.734 818.774 2
-6 -11 8 -485.958 611.422 4
17 -6 8 56.8165 536.663 1
-11 17 8 -599.146 800.469 4
17 -6 8 -57.6047 652.865 3
-6 -11 8 336.425 520.666 2
-6 -11 11 5755.94 980.392 4
17 -6 11 3314.9 1233.23 2
-11 17 11 5348.87 1351.92 4
-6 -11 11 4032.62 1471.85 1
17 -6 11 6319.38 1046.12 1
-11 17 11 3966.45 1298.18 2
17 -6 11 4549.21 977.829 3
-6 -11 11 4790.5 975.201 2
17 -5 -8 15591.7 679.656 3
17 -5 -5 173974 2532.6 3
-5 -12 -5 172880 3256.28 1
-12 17 -2 29847.6 901.931 4
-5 -12 -2 28299.6 1192.84 1
17 -5 -2 29051.1 1209.48 3
-12 17 1 112875 2317.62 4
17 -5 1 111650 2261.96 4
-12 17 1 111368 1847.88 2
17 -5 1 114445 2518.65 3
17 -5 4 57123.6 1098.85 1
-12 17 4 61103.9 2090.67 4
-5 -12 4 60523 2073.26 1
17 -5 4 52624.3 1480.45 4
-12 17 4 56383.8 1858.95 2
17 -5 4 57684.5 1971.53 3
-5 -12 4 58238 1571.9 2
17 -5 7 41493.7 1431.3 4
-5 -12 7 46962.4 2346.54 1
-12 17 7 47995.2 2162.07 2
-12 17 7 50976 2274.3 4
-5 -12 7 44688.8 1732.58 4
17 -5 7 49144.1 1564.05 1
17 -5 7 48744.6 1978.31 3
-5 -12 7 44798.7 1614.84 2
-5 -12 10 27303 2152 1
-12 17 10 23692.9 1921.04 4
17 -5 10 23126.2 1485.43 1
-12 17 10 23553.9 1926.33 2
17 -5 10 18322.2 1793.09 2
-5 -12 10 22242.1 1428.79 4
17 -5 10 21218.1 1526.8 3
-5 -12 10 20359.8 1382.73 2
17 -4 -6 14807.8 851.924 3
-13 17 -3 32938.3 722.797 4
-4 -13 -3 33937.6 1400.26 1
-13 17 0 19426.5 931.669 4
17 -4 0 18682.6 1096.11 3
-13 17 0 19606.4 718.134 2
-4 -13 0 20167.3 1058.33 1
-4 -13 3 14980.4 823.413 2
-13 17 3 15606.2 960.357 2
-13 17 3 12497.1 998.678 4
17 -4 3 14106.9 871.309 4
-4 -13 3 13623.1 1057.76 1
17 -4 3 15141.2 1081.4 3
-13 17 6 31851.7 1766.1 4
-4 -13 6 34704.4 1934.26 1
-13 17 6 30166.9 1648.76 2
17 -4 6 28613.6 1213.84 4
17 -4 6 33779.5 1078.33 1
17 -4 6 33607.1 1635.75 3
-4 -13 6 31914.5 1261.22 2
17 -4 9 5394.98 1172.81 2
17 -4 9 6465.82 792.583 4
-4 -13 9 7567.67 1381.89 1
-13 17 9 6106 1167.55 4
-4 -13 9 6250.36 889.297 4
-13 17 9 6367.35 1153.37 2
17 -4 9 5975.34 995.372 3
17 -4 9 5694.55 817.949 1
-4 -13 9 4985.62 752.676 2
17 -3 -7 1106.8 516.327 3
-3 -14 -4 27818.2 1404.63 1
17 -3 -4 28674.7 1195.97 3
-3 -14 -1 24041.5 1195.76 1
-14 17 -1 27050.5 988.626 4
17 -3 -1 27049.8 1246.36 3
-14 17 -1 26158.2 774.166 2
-14 17 2 4831.55 687.802 4
-14 17 2 6995.11 642.287 2
-3 -14 2 5732.32 735.653 1
17 -3 2 7053.29 827.221 3
-3 -14 5 1239.13 423.781 2
17 -3 5 395.851 214.901 1
-14 17 5 195.749 663.048 4
-3 -14 5 504.817 716.332 1
17 -3 5 511.827 264.63 1
-14 17 5 383.153 628.851 2
17 -3 5 -204.957 618.597 3
17 -3 8 11663.6 981.304 4
-14 17 8 15170.4 1467.66 4
-3 -14 8 13803.1 1552.05 1
17 -3 8 12273.7 906.439 1
-3 -14 8 11908.5 1023.13 4
17 -3 8 13244.9 1189.56 3
-14 17 8 13620.3 1412.48 2
-3 -14 8 12133.1 928.076 2
17 -3 11 429.585 1103.4 2
-14 17 11 1026.51 1045.72 4
-3 -14 11 -1269.47 1243.83 1
-14 17 11 -77.7344 1044.75 2
17 -3 11 208.89 707.474 3
-3 -14 11 167.874 662.726 2
17 -2 -8 24129.6 1160.09 3
-2 -15 -5 107150 2886.08 1
17 -2 -5 102450 2193.01 3
-2 -15 -2 56567.1 1881.95 1
17 -2 -2 52268.3 1685.04 3
-15 17 1 117182 2376.14 4
-15 17 1 123323 2080.07 2
17 -2 1 122764 2683.55 3
-2 -15 1 120560 2612.41 1
-2 -15 4 26613.9 1000.02 2
-15 17 4 28478.8 1510.71 4
-2 -15 4 25309.3 1504.52 1
-15 17 4 27262.9 1388.31 2
17 -2 4 23465.7 1376.01 3
-15 17 7 79324.3 2851.33 4
17 -2 7 84327.3 1762.68 1
-15 17 7 80961.7 2753.65 2
17 -2 7 79781.1 2527.88 3
-2 -15 7 81291.1 2989.68 1
-2 -15 7 77172.4 1922.56 2
17 -2 10 27880.6 2198.49 2
-15 17 10 32706.3 2225.13 4
-2 -15 10 33147.7 2483.76 1
17 -2 10 28871.1 1749.2 3
-2 -15 10 29016.2 1495.44 2
-15 17 10 35196.9 2248.56 2
-1 -16 -6 17577.5 1456.88 1
17 -1 -6 18677.5 1097.69 3
-16 17 -3 47013.5 850.573 4
17 -1 -3 51742.7 1661.53 3
-1 -16 -3 52208.7 1921.73 1
-1 -16 0 17883.3 1158.35 1
-16 17 0 18668.7 954.508 4
17 -1 0 19810.8 1137.99 3
-16 17 0 19502.4 850.577 2
-16 17 3 40558.8 1661.37 4
-16 17 3 44037.7 1558.53 2
17 -1 3 37879.1 1659.22 3
-1 -16 3 39087.3 1730.83 1
17 -1 6 2311.78 333.894 1
-16 17 6 4792.95 920.941 4
-1 -16 6 2323.01 929.283 1
-16 17 6 2580.11 782.461 2
17 -1 6 2438.24 303.697 1
17 -1 6 2739.06 736.789 3
-1 -16 6 3149.68 488.093 2
17 -1 9 6586.96 884.537 4
-16 17 9 7263.71 1228.48 4
-1 -16 9 7875.68 1380 1
-16 17 9 5788.49 1224.46 2
17 -1 9 8523.09 1107.31 3
17 -1 9 5743.83 1203.94 2
-1 -16 9 8694.18 837.176 2
17 0 -7 1396.85 648.27 3
0 -17 -4 -105.757 697.813 1
17 0 -4 1195.88 553.477 3
-17 17 -1 292.781 334.981 2
-17 17 -1 1172.55 381.365 4
0 -17 -1 119.045 606.706 1
17 0 -1 1285.41 604.273 3
-17 17 2 32412.8 1439.12 4
-17 17 2 31120.2 1267.6 2
17 0 2 31854 1540.28 3
0 -17 2 28884.9 1476.48 1
0 -17 5 734.692 352.223 2
-17 17 5 194.963 643.487 4
0 -17 5 99.5707 727.775 1
-17 17 5 132.563 608.267 2
17 0 5 1123.49 672.316 3
-17 17 8 12716.3 1430.47 4
17 0 8 10914.1 791.865 1
0 -17 8 8566.92 1249.67 1
-17 17 8 8429.09 1221.77 2
17 0 8 11143.9 1159.97 3
17 0 8 11022.9 1053.54 4
0 -17 8 10373.6 809.581 2
17 0 11 951.486 1151.23 2
-17 17 11 614.138 1051.14 4
0 -17 11 2927.25 1393.67 1
-17 17 11 1271.48 1170.05 2
17 0 11 125.673 768.566 3
17 1 -8 5027.06 879.11 3
1 -18 -5 74360.3 2695.8 1
17 1 -5 75154.6 2112.21 3
-18 17 -2 51440.4 1190.58 4
1 -18 -2 48216.6 1939.92 1
17 1 -2 49777.7 1769.83 3
-18 17 1 65885.8 1864.03 4
17 1 1 59797.5 2049.14 3
-18 17 1 61182.8 1652.63 2
1 -18 1 59942.5 2081.84 1
-18 17 4 43740.7 1863.09 4
1 -18 4 46750.2 2023.66 1
-18 17 4 48328.9 1808.86 2
17 1 4 45112.6 1897.26 3
-18 17 7 79734 2895.83 4
17 1 7 77228 1408.33 1
1 -18 7 80211.2 3097.94 1
-18 17 7 82372.6 2840.5 2
17 1 7 84996.2 2678.78 3
1 -18 7 81919 1724.91 2
17 1 10 21455.2 1523.39 4
-18 17 10 25700.7 2078.22 4
1 -18 10 29821.2 2366.06 1
-18 17 10 25598.3 2044.67 2
17 1 10 24739.8 2146.83 2
17 1 10 23779.1 1690.58 3
2 -19 -6 11831.2 1377.48 1
17 2 -6 13041.5 1064.82 3
-19 17 -3 22631.7 726.788 4
2 -19 -3 22116.7 1487.48 1
17 2 -3 20079.6 1229.9 3
2 -19 0 969.562 660.242 1
-19 17 0 1473.12 465.164 4
17 2 0 662.13 613.117 3
-19 17 0 1457.03 485.983 2
-19 17 3 47790.2 1727.54 2
-19 17 3 49147.8 1879.59 4
2 -19 3 52112.3 2107.04 1
17 2 3 51088.8 1990.18 3
2 -19 6 6982.94 510.013 2
-19 17 6 7644.23 1111.41 4
2 -19 6 7440.75 1197.87 1
-19 17 6 6115.38 973.198 2
17 2 6 5379.14 881.875 3
17 2 9 4869.79 1247.44 2
17 2 9 4222.42 901.597 4
2 -19 9 4897.57 1227.52 1
-19 17 9 5031.37 1164.52 2
17 2 9 4372.75 916.809 3
-19 17 9 6860.26 1192.06 4
3 -20 -7 7234.36 1342.83 1
17 3 -7 5119.11 972.699 3
3 -20 -4 21757.2 1667.96 1
17 3 -4 21720.9 1329.4 3
-20 17 -1 9246.5 763.207 2
3 -20 -1 8063.88 1044.66 1
-20 17 -1 9039.99 675.969 4
17 3 -1 9552.48 991.689 3
3 -20 2 5497.76 901.352 1
-20 17 2 6374.59 807.882 4
-20 17 2 7769.94 805.632 2
17 3 2 6524.57 905.809 3
-20 17 5 2687.21 804.597 4
-20 17 5 1652.6 714.304 2
3 -20 5 1628.47 897.31 1
17 3 5 3667.99 861.376 3
17 3 8 13851.9 1252.57 4
-20 17 8 13988.6 1483.03 4
3 -20 8 15921.2 1720.18 1
-20 17 8 12531.4 1403.97 2
17 3 8 14042.7 1301.42 3
17 4 -8 10611.6 1259.74 3
4 -21 -5 48555.7 2398.1 1
17 4 -5 48105.4 1913.74 3
-21 17 -2 22824 915.627 4
4 -21 -2 21419.2 1520.37 1
17 4 -2 19967.4 1290.73 3
4 -21 1 72176.4 2522.39 1
-21 17 1 74375.7 2068.96 4
17 4 1 68950.9 2315.08 3
-21 17 1 67417.8 1929.48 2
-21 17 4 41697.7 1909.14 4
-21 17 4 41343.1 1810.91 2
4 -21 4 39262.3 2038.16 1
17 4 4 37548 1823.66 3
-21 17 7 20734.3 1659.69 4
4 -21 7 18768.9 1757.26 1
-21 17 7 20662.4 1645.92 2
17 4 7 22502.9 1554.53 3
17 4 10 17277.2 2031.48 2
-21 17 10 24948 2096.19 4
4 -21 10 22198.4 2118.43 1
-21 17 10 22619.5 1999.2 2
17 4 10 17895.2 1549.85 4
17 4 10 22705.7 1678.42 3
5 -22 -6 8502.5 1416.09 1
17 5 -6 9612.67 1110.54 3
-22 17 -3 27099.8 911.666 4
5 -22 -3 26105.3 1755.86 1
17 5 -3 27225.5 1560.31 3
5 -22 0 15306.4 1361.72 1
-22 17 0 15369.1 974.377 4
17 5 0 14876.9 1229.03 3
-22 17 0 16495.2 1067.95 2
-22 17 3 13838.9 1134.92 4
-22 17 3 12229.7 1037.9 2
17 5 3 16977.6 1262.82 3
5 -22 3 14535.8 1352.73 1
-22 17 6 1667.53 870.546 4
-22 17 6 1890.4 823.732 2
5 -22 6 1722.33 927.422 1
17 5 6 636.995 768.023 3
17 5 9 6497.32 1475.23 2
-22 17 9 6830.24 1305.49 4
17 5 9 5894.21 1096.49 4
-22 17 9 6662.65 1216.82 2
5 -22 9 4697.89 1299.6 1
17 5 9 6720.87 1187.7 3
17 6 -7 11247.4 1302.55 3
6 -23 -7 9293.14 1512.53 1
6 -23 -4 5335.03 1170.43 1
17 6 -4 5188.65 948.69 3
-23 17 -1 7135.48 830.676 2
6 -23 -1 9500.26 1263.88 1
-23 17 -1 9693.11 768.072 4
17 6 -1 8041.56 1043.82 3
6 -23 2 1783.08 901.862 1
-23 17 2 1707.77 682.662 4
17 6 2 2725.53 829.432 3
-23 17 2 1778.74 633.075 2
-23 17 5 9261.37 1155.39 4
-23 17 5 8034.88 1024.9 2
6 -23 5 7252.52 1187.59 1
17 6 5 9943.32 1178.95 3
17 6 8 2764.49 910.902 4
-23 17 8 1967.83 1040.75 4
-23 17 8 3254.22 990.735 2
6 -23 8 1864.06 1115.91 1
17 6 8 2601.57 989.287 3
17 7 -8 13228.4 1482.79 3
7 -24 -8 9528.58 1722.52 1
7 -24 -5 28722.4 2063.71 1
17 7 -5 32371.4 1807.61 3
-24 17 -2 7993.39 678.795 4
7 -24 -2 8309.05 1282.19 1
17 7 -2 5244.19 924.028 3
7 -24 1 9891.57 1213.34 1
-24 17 1 9628.44 914.399 4
17 7 1 11180.3 1212.47 3
-24 17 1 9224.31 951.713 2
-24 17 4 3761.33 867.906 4
-24 17 4 4581.61 837.473 2
17 7 4 4166.95 979.499 3
7 -24 4 3303.94 978.314 1
-24 17 7 6749.1 1149.04 4
-24 17 7 7062.93 1189.51 2
7 -24 7 6565.38 1301.43 1
17 7 7 6966.84 1133.29 3
17 8 -6 2779.39 958.577 3
8 -25 -6 3889.48 1290.02 1
-25 17 -3 28787.6 1085.38 4
8 -25 -3 25906 1955.11 1
17 8 -3 29450.5 1743.86 3
8 -25 0 7865.91 1243.99 1
-25 17 0 7402.33 806.222 4
17 8 0 7266.79 1115.47 3
-25 17 0 7191.15 933.96 2
-25 17 3 26446.9 1560.01 4
-25 17 3 27830.8 1606.33 2
17 8 3 27672.1 1750.91 3
8 -25 3 25545.1 1796.59 1
-25 17 6 17421 1569.5 4
-25 17 6 16097.6 1464.61 2
8 -25 6 13058.6 1520.53 1
17 8 6 16053.9 1487.23 3
17 8 9 16041.6 1871.53 2
17 8 9 17660.7 1630.64 4
-25 17 9 18920.2 1861.17 4
8 -25 9 14681.5 1797.68 1
-25 17 9 17826.7 1764.43 2
17 8 9 19191.5 1694.05 3
17 9 -7 8008.68 1296.93 3
9 -26 -7 7363.35 1615.38 1
9 -26 -4 1355.43 1067.61 1
17 9 -4 993.603 841.65 3
-26 17 -1 2620.57 758.334 2
-26 17 -1 3004.08 609.998 4
9 -26 -1 1207.17 985.472 1
17 9 -1 2460.1 890.815 3
9 -26 2 9871.84 1342.81 1
-26 17 2 12811 1142.26 4
17 9 2 13693.9 1372.49 3
-26 17 2 10733.3 1122.11 2
-26 17 5 13218.3 1370.56 4
-26 17 5 12830.3 1300.53 2
9 -26 5 13126.8 1479.3 1
17 9 5 14621.9 1439.97 3
-26 17 8 4952.33 1234.61 4
-26 17 8 4706.31 1153.79 2
9 -26 8 4119.75 1240.31 1
17 9 8 4291.51 1112.32 4
17 9 8 5007.32 1119.61 3
17 10 -8 1072.56 1132.79 3
10 -27 -8 822.449 1376.08 1
17 10 -5 2682.71 1012.35 3
10 -27 -5 3216.95 1309.53 1
-27 17 -2 9265.08 834.941 4
10 -27 -2 9615.91 1361.9 1
17 10 -2 9244.87 1224.56 3
10 -27 1 11404.8 1414.71 1
-27 17 1 12721.4 1091.86 4
17 10 1 15415.9 1497.34 3
-27 17 1 15104.3 1281.19 2
10 -27 4 2182.61 1069.77 1
-27 17 4 3013.57 868.518 4
-27 17 4 1217.49 811.795 2
17 10 4 1835.4 913.284 3
-27 17 7 4637.67 1193.44 4
-27 17 7 2175.65 928.187 2
17 10 7 3468.66 1057.11 3
10 -27 7 2205 1117.33 1
17 11 -6 250.785 1027.08 3
11 -28 -6 -791.298 1303.62 1
-28 17 -3 26690.3 1257.25 4
11 -28 -3 30010.8 2223.67 1
-28 17 0 15638.4 1345.1 2
11 -28 0 12639.2 1595.49 1
-28 17 0 15130.5 1150.16 4
17 11 0 17619.2 1590.29 3
11 -28 3 19634.8 1769.36 1
-28 17 3 24356.6 1600.7 4
17 11 3 20624.9 1733.83 3
-28 17 3 21562.8 1561.67 2
-28 17 6 16603.8 1631.98 4
-28 17 6 14380.7 1542.67 2
11 -28 6 16588.2 1805.78 1
17 11 6 14660 1571.02 3
17 12 -7 5258.26 1441.36 3
12 -29 -7 3285.33 1542.46 1
17 12 -4 3982.29 1201.72 3
12 -29 -4 4312.36 1350.31 1
-29 17 -1 10229.3 982.424 4
12 -29 -1 9385.66 1456.98 1
17 12 -1 10906.1 1383.79 3
-29 17 2 5140.33 995.074 2
12 -29 2 1989.67 1030.83 1
-29 17 2 3483.54 840.185 4
17 12 2 4320.54 1096.27 3
12 -29 5 4664.07 1244.18 1
-29 17 5 7139.72 1185.06 4
-29 17 5 8393.3 1224.72 2
17 12 5 7597.62 1296.94 3
17 12 8 594.22 977.254 4
17 12 8 -1191.71 1269.65 2
-29 17 8 305.161 1051.38 2
17 12 8 429.897 969.277 3
12 -29 8 -4.48375 1097.51 1
17 13 -5 -1431.52 1122.34 3
13 -30 -5 -43.1959 1235.48 1
13 -30 -2 983.969 1112.07 1
-30 17 -2 520.02 537.143 4
17 13 -2 210.911 926.713 3
-30 17 1 2638.92 909.603 2
-30 17 1 1592.67 712.424 4
13 -30 1 3982.71 1169.67 1
17 13 1 2443.88 1091.22 3
13 -30 4 1403.43 1115.75 1
-30 17 4 1518.46 846.577 4
17 13 4 1387.58 975.137 3
-30 17 4 -141.896 838.101 2
13 -30 7 3018.02 1270.31 1
-30 17 7 2637.6 1113.49 4
-30 17 7 2165.15 1128.39 2
17 13 7 2544.34 1148.38 3
17 14 -6 4470.75 1407.83 3
14 -31 -6 4012.28 1532.85 1
17 14 -3 20516.5 1874.62 3
14 -31 -3 15939.3 1989.45 1
-31 17 0 9465.8 1290.29 2
14 -31 0 9599.38 1471.15 1
-31 17 0 11949.7 1157.31 4
17 14 0 8487.96 1363.79 3
14 -31 3 18982.9 1864.99 1
-31 17 3 19190.5 1552.33 4
17 14 3 19075.5 1796.08 3
-31 17 3 17416.7 1555.71 2
14 -31 6 6572.61 1480.18 1
-31 17 6 10337.2 1507.3 4
-31 17 6 8322.96 1404.93 2
17 14 6 7647.12 1404.99 3
17 15 -4 1882.89 1236.33 3
15 -32 -4 -200.077 1327.73 1
15 -32 -1 3139.93 1281.36 1
-32 17 -1 2992.63 769.261 4
17 15 -1 4884.4 1289.77 3
-32 17 2 373.697 850.28 2
15 -32 2 824.208 1176.79 1
-32 17 2 629.241 811.923 4
17 15 2 13.0063 1060.57 3
15 -32 5 713.575 1232.99 1
-32 17 5 2023.66 1044.55 4
17 15 5 1928.87 1154.11 3
-32 17 5 1146.98 896.648 2
17 16 -5 3018.62 1356.41 3
16 -33 -5 1723.61 1468.42 1
17 16 -2 1725.96 1235.53 3
16 -33 -2 4448.68 1455.13 1
-33 17 -2 1871.33 698.873 4
-33 17 1 2423.54 1002.63 2
-33 17 1 1827.33 838.139 4
16 -33 1 1508.85 1101.36 1
17 16 1 4247.64 1269.76 3
-33 17 4 4247.64 1114.68 2
16 -33 4 1563.09 1249.73 1
-33 17 4 3574.74 1090.51 4
17 16 4 2385.25 1194.44 3
17 17 -3 9699.02 1669.05 3
17 -34 -3 8018.33 1808.84 1
17 17 0 7648.27 1550.92 3
-34 17 0 4844.83 975.473 4
17 -34 0 4784.33 1542.84 1
-34 17 3 4567.85 1234.75 2
-34 17 3 7420.73 1251.74 4
17 -34 3 5902.54 1581.03 1
17 18 -1 2371.86 1377.43 3
18 -35 -1 4189.64 1350.87 1
-35 17 -1 2016.98 802.542 4
-35 17 2 801.649 954.032 2
-35 17 2 -457.661 870.111 4
18 -35 2 -735.761 1326.72 1
17 18 2 2320.64 1311.17 3
16 18 -2 3434.89 1340.97 3
18 -34 -2 4566.82 1443.64 1
16 18 1 -242.894 1155.11 3
-34 16 1 -80.2707 979.521 2
-34 16 1 433.864 771.396 4
18 -34 1 289.256 1197.49 1
18 -34 4 11243.8 1812.79 1
-34 16 4 12997.9 1505.95 4
16 18 4 11029.3 1711.63 3
-34 16 4 12938.1 1662.41 2
15 18 -3 7037.51 1524.49 3
18 -33 -3 6985.23 1582.85 1
15 18 0 7342.41 1479.81 3
-33 15 0 5658.06 1003.18 4
18 -33 0 3751.18 1402.22 1
-33 15 3 7961.41 1333.1 2
-33 15 3 7737.99 1271.06 4
18 -33 3 5753.69 1544.31 1
15 18 3 8725.54 1497.85 3
14 18 -4 2214.23 1370.34 3
18 -32 -4 867.646 1296.05 1
14 18 -1 3639.2 1299.49 3
18 -32 -1 1581.05 1061.39 1
-32 14 -1 2196.48 830.801 4
-32 14 2 1180.04 964.602 2
-32 14 2 2722.98 941.073 4
18 -32 2 2384.81 1301.68 1
14 18 2 1815.01 1129.74 3
18 -32 5 3177.09 1259.21 1
-32 14 5 3072.38 1102.11 4
14 18 5 2078.83 1121.31 3
-32 14 5 1807.49 1012.06 2
13 18 -5 2247.14 1320.73 3
18 -31 -5 2323.18 1373.4 1
18 -31 -2 8695.52 1601.98 1
13 18 -2 9835.5 1528.69 3
13 18 1 6706.67 1375.74 3
-31 13 1 6222.41 1191.05 2
-31 13 1 7417.25 1070.55 4
18 -31 1 7091.3 1443.68 1
18 -31 4 12594.1 1710.81 1
-31 13 4 14896.6 1493.27 4
-31 13 4 13937.5 1551.94 2
13 18 4 14849.3 1635.18 3
13 18 7 -894.22 1282.22 2
12 18 -6 5280.96 1480.1 3
18 -30 -6 6845.92 1817.49 1
12 18 -3 18884 1910.14 3
18 -30 -3 19298.6 1965.17 1
12 18 0 2395.89 1165.97 3
-30 12 0 3125.22 1057.69 2
-30 12 0 1635.17 760.493 4
18 -30 0 2302.14 1195.65 1
18 -30 3 22809.1 2009.25 1
-30 12 3 23730.2 1717.99 4
12 18 3 24451.2 1942.01 3
-30 12 3 25172.9 1809.53 2
18 -30 6 1390.92 1147.4 1
-30 12 6 910.856 977.079 4
-30 12 6 2219.23 1117.72 2
12 18 6 1241.97 1056.19 3
11 18 -7 650.373 1301.58 3
18 -29 -7 1163.08 1467.15 1
11 18 -4 4113.01 1323.35 3
18 -29 -4 2999.62 1354.97 1
11 18 -1 7214.4 1363.59 3
18 -29 -1 6582.69 1320.44 1
-29 11 -1 8725.92 994.262 4
11 18 2 4319.29 1204.96 3
-29 11 2 4272.33 988.313 2
-29 11 2 4473.51 943.962 4
18 -29 2 5289.42 1199.12 1
18 -29 5 393.993 995.723 1
-29 11 5 -132.279 830.019 4
-29 11 5 130.871 876.522 2
11 18 5 -153.444 974.427 3
18 -28 -8 2877.52 1529.64 1
10 18 -5 7593.75 1529.22 3
18 -28 -5 6262.44 1510.74 1
10 18 -2 1981.7 1097.92 3
18 -28 -2 835.181 998.446 1
-28 10 1 6573.57 1174.55 2
-28 10 1 9228.48 1079.04 4
18 -28 1 6892.69 1341.3 1
10 18 1 8396.38 1337.11 3
18 -28 4 2848.35 1051.45 1
-28 10 4 3429.08 950.255 4
-28 10 4 5660.23 1156.43 2
10 18 4 5005.96 1192.66 3
18 -28 7 6027.18 1392.92 1
10 18 7 5856.65 1244.82 4
10 18 7 6142.71 1378.21 2
-28 10 7 6627.58 1248.59 4
-28 10 7 7489.45 1250.58 2
10 18 7 5050.06 1245.14 3
18 -27 -6 7877.23 1699.43 1
9 18 -6 10292.5 1607.71 3
9 18 -3 17179.2 1777.43 3
18 -27 -3 19877.4 1903.94 1
-27 9 0 14169.2 1400.9 2
18 -27 0 15626.9 1651.82 1
-27 9 0 17822.9 1295.57 4
9 18 0 18664.2 1704.7 3
-27 9 3 20967 1526.16 4
18 -27 3 17407.5 1701.51 1
-27 9 3 17538.7 1513.44 2
9 18 3 19892.2 1719.21 3
9 18 6 10276.3 1476.34 2
9 18 6 11939.8 1537.46 4
-27 9 6 11986 1412.19 4
-27 9 6 10618 1423.41 2
18 -27 6 12161.8 1553.42 1
9 18 6 11655.3 1435.48 3
8 18 -7 5060.05 1384.23 3
18 -26 -7 3729.27 1528.86 1
8 18 -4 2568.25 1258.82 3
18 -26 -4 2318.4 1210.12 1
8 18 -1 4774.05 1248.84 3
18 -26 -1 4464.52 1151 1
-26 8 -1 4216.54 769.983 4
18 -26 2 8243.08 1317.34 1
-26 8 2 11857 1160.22 4
8 18 2 10905.5 1360.15 3
-26 8 2 10451.4 1242.99 2
-26 8 5 10403.9 1278.03 4
-26 8 5 9185.64 1235.85 2
8 18 5 9700.04 1327.36 3
18 -26 5 9214.63 1314.77 1
8 18 8 3254.01 1166.75 3
8 18 8 2167.7 1095.74 4
8 18 8 3979.04 1349.57 2
-26 8 8 2702.74 1119.86 4
-26 8 8 2141.03 1103.94 2
18 -26 8 4472.32 1262.51 1
7 18 -5 25022 2045.57 3
18 -25 -5 26491.7 2189.51 1
7 18 -2 563.446 1084.02 3
18 -25 -2 2327.46 945.448 1
-25 7 1 14915.6 1309.1 2
18 -25 1 11500.3 607.531 2
-25 7 1 13079 928.289 1
18 -25 1 13523.2 1468.28 1
-25 7 1 16134.2 1226.78 4
7 18 1 14779.3 1484.38 3
7 18 4 3012.03 1024.06 3
18 -25 4 1037.21 941.188 1
-25 7 4 1493.01 784.99 4
-25 7 4 721.644 745.003 2
7 18 7 6243.72 1240.65 3
7 18 7 5128.3 1245.48 2
7 18 7 6118.08 1159.92 4
-25 7 7 8046.62 1297.45 4
-25 7 7 7782.34 1235.82 2
18 -25 7 8240.36 1352.28 1
6 18 -6 38876.4 2355.27 3
18 -24 -6 36119.6 2561.51 1
6 18 -3 12805 1601.15 3
18 -24 -3 12036.4 1496.39 1
-24 6 0 23860.2 1625 2
18 -24 0 23602.7 1069.97 2
18 -24 0 24543.8 1808.09 1
-24 6 0 22826.1 1345.33 4
-24 6 0 21617.4 902.297 1
6 18 0 22178 1756.71 3
18 -24 3 26699.9 1826.05 1
-24 6 3 23537.3 1535.5 4
-24 6 3 24812.3 1635.8 2
6 18 3 27988 1799.34 3
6 18 6 8427.73 1271.39 4
6 18 6 10195.1 1449.06 2
-24 6 6 11531.8 1335.14 4
-24 6 6 9695.31 1260.94 2
18 -24 6 7546.62 1237.45 1
6 18 6 10954.3 1329.92 3
6 18 9 17239.1 1753.21 4
6 18 9 18970.6 2023.83 2
-24 6 9 19333.5 1812.99 4
18 -24 9 18119.6 1866.26 1
-24 6 9 18419.5 1728.01 2
6 18 9 19672.7 1749.91 3
18 -23 -7 15819.9 1898.36 1
5 18 -4 3297.91 1204.56 3
18 -23 -4 4843.02 1250.83 1
5 18 -1 33955.9 2013.83 3
18 -23 -1 26304.9 1269.91 2
-23 5 -1 23880.5 528.055 1
-23 5 -1 31572.4 1485.07 4
18 -23 -1 30045.5 1928.37 1
18 -23 2 12247.5 1361.53 1
-23 5 2 17002 1271.81 4
18 -23 2 11501.5 505.938 2
-23 5 2 11901.1 947.331 1
5 18 2 15794.1 1443.18 3
-23 5 2 12961.4 1210.74 2
5 18 5 35133.2 1958.23 4
5 18 5 34626.5 2007.86 2
-23 5 5 36534.2 1975.29 4
-23 5 5 35674.2 1937.59 2
18 -23 5 32448.6 1980.27 1
5 18 5 38492.3 2036.16 3
5 18 8 1344.75 933.091 3
5 18 8 1174.11 926.016 4
-23 5 8 37.4953 884.832 4
-23 5 8 749.686 839.298 2
18 -23 8 2062.2 1044.77 1
4 18 -5 8955.71 1466.18 3
18 -22 -5 9570.35 1449.04 1
4 18 -2 8958.41 1361.88 3
18 -22 -2 8616.33 1203.78 1
-22 4 1 5767.79 937.224 2
4 18 1 7235.06 1168.85 3
18 -22 1 5953.42 1048.2 1
-22 4 1 5671.65 820.915 4
-22 4 1 4694.28 576.845 1
18 -22 1 5097.75 526.359 2
4 18 4 5091.51 1005.62 2
18 -22 4 4840.41 1022.88 1
-22 4 4 4906.75 896.564 4
-22 4 4 6266.79 1021.42 2
4 18 4 5676.12 1148.94 3
4 18 7 11078 1447.62 2
4 18 7 11011.4 1358.05 4
-22 4 7 14209.4 1423.04 4
18 -22 7 11094.6 1354.69 1
-22 4 7 12018.3 1314.78 2
4 18 7 13124.7 1360.42 3
4 18 10 -33.3875 1167.66 2
-22 4 10 2068.44 1092.54 4
18 -22 10 1267.37 1022.36 3
4 18 10 2168.47 1144.95 4
18 -22 10 1782.09 1138.32 1
-22 4 10 2358.75 992.428 2
18 -21 -6 73004.5 3333.58 1
3 18 -3 7057.21 1314.28 3
18 -21 -3 5727.39 1167.6 1
3 18 -3 4608.94 579.124 2
3 18 0 28590.4 1857.47 3
-21 3 0 24832.4 1514.35 2
-21 3 0 28065.8 859.898 1
18 -21 0 26683 1129.48 2
-21 3 0 26369 1408.1 4
18 -21 0 27382 1699.47 1
-21 3 3 3203.49 795.267 2
3 18 3 2125.49 948.784 3
18 -21 3 4240.83 949.03 1
18 -21 3 2789.9 311.682 2
-21 3 3 4078.82 834.01 4
3 18 6 17030.7 1503.7 4
-21 3 6 18047.7 1439.79 4
-21 3 6 15545.9 1401.98 2
18 -21 6 18676 1519.4 1
3 18 6 15267 1473.67 2
3 18 6 19319.5 1480.61 3
3 18 9 14497.7 1413.4 3
3 18 9 15479.2 1842.78 2
-21 3 9 13428 1528.75 4
18 -21 9 11941.3 1489.12 1
-21 3 9 11091.8 1406.76 2
3 18 9 12726.2 1520.75 4
18 -20 -7 46557 1201.99 3
2 18 -4 12980.1 1543.63 3
2 18 -4 10970.5 764.762 2
18 -20 -4 11351.3 1410.24 1
2 18 -1 124755 3527.19 3
18 -20 -1 115734 2453.14 2
18 -20 -1 120592 3300.05 1
2 18 -1 118993 2256.41 2
2 18 2 30804 1793.2 3
18 -20 2 30525.9 1697.96 1
18 -20 2 30203.7 956.254 2
-20 2 2 30014.5 1501.89 4
-20 2 2 26931.5 1276.58 1
-20 2 2 28837.8 1560.4 2
2 18 5 71146.6 2598.36 4
18 -20 5 63397 1337.33 2
2 18 5 67393 2573.98 2
-20 2 5 67651.1 2456.21 4
-20 2 5 65477.5 2379.66 2
18 -20 5 64222.3 2440.24 1
2 18 5 71332.1 2522.19 3
2 18 8 8602.7 1250.08 3
2 18 8 8660.29 1378.11 2
2 18 8 7219.19 1202.85 4
-20 2 8 5198.2 1112.37 4
18 -20 8 10180.2 1341.9 1
-20 2 8 6904.19 1170.24 2
18 -19 -5 1931.32 689.811 3
18 -19 -5 2355.8 1069.54 1
1 18 -5 1879.4 458.236 2
18 -19 -5 2262.75 528.204 3
1 18 -2 2921.5 1079.9 3
1 18 -2 2968.51 438.707 2
1 18 1 16966.6 1465.02 3
-19 1 1 15369.7 1224.26 2
18 -19 1 16120.2 907.713 4
-19 1 1 16031 815.737 1
18 -19 1 16519.6 1331.64 1
18 -19 1 15396.1 804.946 2
-19 1 1 16902.5 1168.82 4
1 18 4 3678.33 967.829 3
1 18 4 3419.41 860.721 2
18 -19 4 1293.18 772.231 1
1 18 4 3083.45 861.23 4
18 -19 4 3428.54 400.734 2
-19 1 4 4208.35 860.529 4
-19 1 4 2877.12 709.046 2
1 18 7 1053.71 854.352 3
1 18 7 1307.37 1050.1 2
-19 1 7 2136.3 853.479 4
1 18 7 1901.27 879.538 4
18 -19 7 1755.34 525.41 2
-19 1 7 1131.64 764.501 2
18 -19 7 997.145 853.508 1
1 18 10 8155.66 1385.99 4
1 18 10 9473.34 1660.22 2
-19 1 10 10054.7 1351.26 4
18 -19 10 9612.44 1334.88 3
18 -19 10 9133.24 1424.22 1
-19 1 10 10650 1442.82 2
18 -18 -6 26374.6 993.045 3
18 -18 -6 22693.6 1920.08 1
0 18 -3 3942.47 1100.67 3
18 -18 -3 4575.64 970.389 1
0 18 -3 4042.53 441.801 2
0 18 0 30681.7 1808.08 3
0 18 0 25832.9 1080.58 2
-18 0 0 27681.5 741.67 1
18 -18 0 25149 1131.63 2
-18 0 0 28095.4 1392.18 4
18 -18 0 26694.6 1545.62 1
18 -18 0 23894.2 1154.44 4
-18 0 0 28440.8 768.743 1
-18 0 3 1084.33 599.663 2
0 18 3 2094.94 947.902 3
0 18 3 1542.82 683.995 4
0 18 3 578.635 606.982 2
-18 0 3 1101.42 637.257 4
18 -18 3 1458.27 704.079 1
18 -18 3 809.6 318.025 2
0 18 6 48404.8 2057.96 3
18 -18 6 48750.3 1514.07 2
0 18 6 45674.1 2190.68 4
0 18 6 46876.2 2248.99 2
-18 0 6 46197.9 2072.64 4
18 -18 6 45747.5 2030.6 1
-18 0 6 46006.9 2052.82 2
0 18 9 813.636 859.235 3
0 18 9 835.986 977.949 4
0 18 9 1524.94 1110.3 2
-18 0 9 546.362 877.044 4
18 -18 9 1426.28 877.99 3
18 -18 9 438.269 844.081 1
-18 0 9 968.695 808.125 2
18 -17 -7 74885.7 1242.56 3
18 -17 -4 41445.3 2183.32 1
-1 18 -4 41743.1 1047.84 2
18 -17 -4 44469.5 1446.11 3
-1 18 -1 62273.7 2447.91 3
18 -17 -1 52243.8 1660.28 2
-1 18 -1 51270.1 1304.52 2
18 -17 -1 58673.5 2170.24 1
-1 18 2 54499.4 2212.78 3
-1 18 2 54018.4 1763.95 2
18 -17 2 50725.8 1289.07 4
18 -17 2 51187.4 1947.91 1
-17 -1 2 50602.1 1838.02 4
18 -17 2 47135.3 1286.05 2
-17 -1 2 47011.4 1629.74 1
-17 -1 2 48775.6 1874.76 2
-1 18 5 70049.7 2375.87 3
-1 18 5 74698.9 2552.77 4
-1 18 5 74895.1 2598.6 2
-17 -1 5 70052.9 2424.56 4
-17 -1 5 70755.2 2350.18 2
18 -17 5 66868.3 2251.7 1
18 -17 5 67809.7 1609.31 2
-1 18 8 5470.09 979.935 3
18 -17 8 6505.61 849.379 2
-1 18 8 5260.77 1175.65 2
-17 -1 8 5215.93 1012.53 4
-1 18 8 3495.62 995.125 4
18 -17 8 5733.36 1054.11 3
18 -17 8 5311.9 1005.35 1
-17 -1 8 4639.55 999.046 2
-1 18 11 16104.1 1825.06 4
-17 -1 11 13504.8 1568.92 4
18 -17 11 16649.4 1727.95 1
18 -17 11 13915.1 1498.83 3
-17 -1 11 15377.6 1654.86 2
-1 18 11 20641.8 2177.6 2
-2 18 -5 19164.2 723.13 2
18 -16 -5 22306.4 1831.01 1
18 -16 -5 21530.5 940.193 3
-2 18 -2 62002.7 2438.09 3
18 -16 -2 57800.9 2209.61 1
-2 18 -2 59622.6 1142.86 2
-2 18 1 14729.6 1359.62 3
-16 -2 1 13918.2 1111.39 2
-16 -2 1 14688.1 727.566 1
-2 18 1 13739.5 868.279 2
18 -16 1 14044 805.848 4
18 -16 1 13941.4 1117.12 1
-16 -2 1 16825.2 1095.18 4
-16 -2 1 14180.3 803.749 1
18 -16 1 12888.7 757.787 2
-2 18 4 9259.14 1129.03 3
-2 18 4 10749.2 1111.57 4
-2 18 4 9089.77 1026.61 2
-16 -2 4 10345.7 1024.67 4
18 -16 4 8566.08 634.662 2
-16 -2 4 11102.4 1038.43 2
18 -16 4 7713.25 919.987 1
-2 18 7 -783.729 789.98 3
-2 18 7 1508.98 876.329 4
18 -16 7 183.724 559.833 2
-2 18 7 1958.12 935.872 2
-16 -2 7 129.901 688.945 4
18 -16 7 668.565 714.14 3
18 -16 7 780.791 704.088 1
-16 -2 7 904.316 732.938 2
-2 18 10 5171.68 1241.71 4
-2 18 10 7362.8 1499.4 2
-16 -2 10 7294.72 1165.18 4
18 -16 10 6234.38 1125.04 3
18 -16 10 6506.04 1183 1
-16 -2 10 5872.19 1104.64 2
18 -15 -6 6772 669.898 3
-3 18 -6 6539.92 514.819 2
-3 18 -6 5289.89 608.529 4
18 -15 -6 7675.32 540.191 3
18 -15 -3 43683.3 2041.86 1
-3 18 -3 37837.6 729.716 2
-3 18 -3 38506.9 1357.12 4
18 -15 -3 42029 1418.36 3
-3 18 0 51356 2165.55 3
-3 18 0 48757.2 1286.4 2
18 -15 0 46026.8 1477.45 4
-15 -3 0 48531.7 970.99 1
18 -15 0 47116.6 1482.7 2
18 -15 0 46771.9 1773.5 1
-3 18 3 32113.4 1701.19 3
18 -15 3 30319.1 1430.54 1
-3 18 3 30066.6 1532.07 4
-3 18 3 27939.3 1397.61 2
-15 -3 3 30049 1481.41 4
18 -15 3 27023.8 1042.32 2
18 -15 3 28614.3 825.523 4
-15 -3 3 29097.8 1430.43 2
-3 18 6 55397.4 2037.14 3
-3 18 6 50421.9 2236.04 4
-3 18 6 52269.3 2279.43 2
-15 -3 6 54281.9 2144.24 4
18 -15 6 53060.7 2137.89 3
18 -15 6 48556.7 1928.95 1
-15 -3 6 56522.9 2113.58 2
-3 18 9 11235.4 1430.06 4
18 -15 9 11332.8 1137.72 2
-3 18 9 11005.8 1564.33 2
-15 -3 9 10734.2 1248.1 4
18 -15 9 13542.9 1321.18 3
18 -15 9 11835.1 1285.41 1
-15 -3 9 12004.5 1276.61 2
18 -14 -7 31900.8 704.11 3
18 -14 -4 115069 3335.06 1
-4 18 -4 115161 2163.98 4
18 -14 -4 119001 2147.13 3
-4 18 -1 79682.4 2603.04 3
-4 18 -1 75956.1 1283.57 2
18 -14 -1 75978.3 2281.33 1
18 -14 -1 76815.6 2002.47 3
-4 18 -1 75684.7 1209.21 2
-14 -4 2 34835.3 1516.82 2
-4 18 2 36715.1 1827.17 3
-4 18 2 39850.7 1657.03 4
-14 -4 2 38731.4 1353.52 1
-4 18 2 38341.2 1407.24 2
18 -14 2 39225.2 1136.25 4
18 -14 2 39903.7 1573.59 1
-14 -4 2 39011.9 1588.92 4
18 -14 2 37725.2 1599.96 3
18 -14 2 38390.2 1256.46 2
-4 18 5 71060.5 2251.94 3
-4 18 5 77384.7 2492.24 2
-14 -4 5 75500.8 2367.4 4
18 -14 5 74576.5 2388.78 3
18 -14 5 69253.2 2112.7 1
-14 -4 5 72782.3 2264.57 2
-4 18 8 14085.5 1103.93 3
18 -14 8 12452.3 1179.73 2
-4 18 8 10719.6 1357.81 2
-14 -4 8 10657.2 1178.86 4
-4 18 8 12226.9 1398.68 4
18 -14 8 13110.3 1304.72 3
18 -14 8 15457.9 1331.66 1
-14 -4 8 13136.3 1207.43 2
-4 18 11 45626.3 2711.73 4
18 -14 11 46592.3 2342.48 2
-4 18 11 44569.2 2831.76 2
-14 -4 11 44616.5 2356.8 4
18 -14 11 42398.3 2380.72 1
18 -14 11 44918.9 2302.3 3
-14 -4 11 44545.3 2373.06 2
18 -13 -5 6193.8 556.374 3
-5 18 -5 5127.86 513.836 4
18 -13 -2 28582.3 1191.27 3
18 -13 -2 27081.8 1515.49 1
-13 -5 1 100307 2497.56 2
-5 18 1 94370.9 2686.13 3
-5 18 1 100585 2383.6 4
-5 18 1 98328.8 1902.17 2
18 -13 1 98182.3 1965.12 4
-13 -5 1 99063 1790.72 1
18 -13 1 100243 2419.54 3
18 -13 1 93785.7 2231.69 1
18 -13 1 95250.4 2005.97 2
-5 18 4 54358.3 2012.79 3
-13 -5 4 53156 1966.58 1
-5 18 4 53590.9 2079.09 4
18 -13 4 50571.5 929.456 4
-5 18 4 53259.9 1907.19 2
-13 -5 4 50789.3 1865.48 4
18 -13 4 52267 1968.13 3
-13 -5 4 53298.4 1873.01 2
18 -13 4 48803.3 1524.52 2
18 -13 4 53427.3 1760.82 1
-5 18 7 35826.8 1562.18 3
-5 18 7 37008.2 2036.96 2
18 -13 7 36472.3 1722.56 2
-5 18 7 37222.3 2037.12 4
-13 -5 7 35420.6 1767.22 4
18 -13 7 38813.9 1909.86 3
18 -13 7 38240.6 1715.41 1
-13 -5 7 37117.3 1769.68 2
-5 18 10 4790.89 1215.04 4
18 -13 10 4470.59 1007.81 2
-5 18 10 4820.76 1277.88 2
-13 -5 10 3418.01 950.248 4
18 -13 10 5009.96 1023.1 3
18 -13 10 4160.82 980.058 1
-13 -5 10 2558.24 871.894 2
-6 18 -6 1217.65 348.104 4
18 -12 -6 1789.63 351.75 3
-6 18 -3 82951.4 1708.94 4
18 -12 -3 84912.5 1861.98 3
18 -12 -3 86521.5 2652.56 1
-6 18 0 1496.33 566.751 4
-6 18 0 2699.33 371.149 2
18 -12 0 2579.92 520.053 4
18 -12 0 2144.07 585.99 3
18 -12 0 1954.53 568.48 1
-12 -6 0 3007.5 361.322 1
18 -12 3 55943 1959.65 3
-6 18 3 54657.6 1978.57 3
18 -12 3 51222.5 1655.73 1
-6 18 3 54749.8 1975.02 4
-6 18 3 51310.9 1696.13 2
18 -12 3 50657.2 1185.93 4
-12 -6 3 52227.1 1827.03 4
-12 -6 3 53906.5 1795.14 1
18 -12 3 50676.6 1534.6 2
-12 -6 3 53488.4 1764.74 2
-6 18 6 761.899 748.395 2
-12 -6 6 300.936 594.745 4
-6 18 6 2716.7 904.122 4
18 -12 6 1456.34 771.254 3
18 -12 6 656.154 588.924 1
-12 -6 6 388.9 846.233 1
-12 -6 6 1272.48 650.578 2
-12 -6 9 2884.5 1128.03 1
18 -12 9 3149.1 931.381 2
-6 18 9 3500.42 1027.04 4
-6 18 9 1114.29 1047.87 2
-12 -6 9 3271.42 843.91 4
18 -12 9 4963.67 966.761 1
18 -12 9 3655.58 876.777 3
-12 -6 9 3539.1 864.867 2
18 -11 -7 11265.8 476.83 3
-7 18 -4 98769.3 1686.96 4
18 -11 -4 102117 1973.72 3
-7 18 -1 99322.4 1041.53 2
-11 -7 -1 111333 1606.79 1
-7 18 -1 94425.2 995.96 2
18 -11 -1 105751 2294.74 3
18 -11 -1 106217 2481.42 1
-7 18 -1 105211 2106.59 4
-11 -7 2 58456.2 1829.56 2
-7 18 2 66143.7 1991.39 4
-7 18 2 62332.1 1670.68 2
-11 -7 2 59017.7 1664.23 1
18 -11 2 62380.5 1656.6 1
18 -11 2 57791.4 1439.23 4
-11 -7 2 57709.9 1860.54 4
18 -11 2 65536.1 2025.2 3
18 -11 2 56796.1 1632.18 2
-11 -7 5 125684 3195.75 1
-7 18 5 139167 3397.46 4
-7 18 5 130744 3124.55 2
18 -11 5 123557 1524.75 4
-11 -7 5 129493 2945.55 4
18 -11 5 126434 3040.92 3
18 -11 5 133296 2567.51 1
-11 -7 5 130088 2785.47 2
18 -11 8 9679.24 1149.74 2
-7 18 8 11000.4 1356.28 4
-7 18 8 10418.9 1330.75 2
-11 -7 8 9355.24 1073.72 4
18 -11 8 10051.5 1024.1 1
18 -11 8 11741.3 1178.3 3
-11 -7 8 11700.5 1542.69 1
-11 -7 8 12367.4 1143.61 2
18 -11 11 18785.2 1737.14 2
-7 18 11 19280.7 1866.98 4
-11 -7 11 21212.7 2212.78 1
-7 18 11 20317.9 2079.69 2
-11 -7 11 15207.6 1475.41 4
18 -11 11 18794.2 1613.89 1
18 -11 11 22238.4 1685.83 3
-11 -7 11 14814.9 1471.51 2
-8 18 -5 54287 1071.59 4
18 -10 -5 57751.6 1398.4 3
-8 18 -2 53959.7 1379.83 4
18 -10 -2 56546.9 1618.82 3
-10 -8 -2 53307.1 1157 1
18 -10 -2 57973.8 1998.85 1
-8 18 1 115164 2449.84 4
18 -10 1 112622 2155.89 4
-8 18 1 110685 1887.88 2
-10 -8 1 116892 2078.79 1
18 -10 1 116170 2538.71 3
18 -10 1 111155 2135.33 1
-8 18 4 58392.4 2121.49 4
-10 -8 4 58079.6 2047.03 1
-8 18 4 53085.9 1869.17 2
18 -10 4 52844.4 1226.16 4
-10 -8 4 54567.2 1878.12 4
18 -10 4 51607.8 1938.35 3
-10 -8 4 54946.4 1773.71 2
18 -10 4 52737.3 1519.58 1
18 -10 7 27196.9 704.32 4
-8 18 7 32006.7 1875.3 4
-8 18 7 30749 1811.45 2
-10 -8 7 29679.4 1565.31 4
18 -10 7 31422.4 1466.53 1
18 -10 7 30546.1 1703.04 3
-10 -8 7 34120.8 2036.05 1
-10 -8 7 29222.2 1497.52 2
-8 18 10 12805.3 1539.27 4
18 -10 10 9532.08 1333.94 2
-10 -8 10 9903.07 1542.5 1
-8 18 10 12298.1 1597.32 2
18 -10 10 11580 1232.92 1
-10 -8 10 12046.6 1252.74 4
18 -10 10 9759.43 1197.4 3
-10 -8 10 11977.8 1253.15 2
-9 18 -6 1936.88 159.68 4
-9 18 -6 2088.08 158.855 4
-9 18 -3 52330.6 1188.88 4
-9 -9 -3 54235.6 1339.12 1
18 -9 -3 56526.4 1532.13 3
-9 18 0 2488.9 532.066 4
18 -9 0 3688.47 574.082 4
-9 18 0 2817.25 312.321 2
18 -9 0 3153.22 621.237 3
18 -9 0 3432.1 573.733 1
-9 -9 0 3393.1 466.173 1
-9 18 3 48420.9 1812.56 4
18 -9 3 48236 1350.46 1
-9 -9 3 46606.8 1663.1 1
18 -9 3 44733 1254.57 4
-9 18 3 49141.8 1612.93 2
-9 -9 3 45661.7 1668.31 4
18 -9 3 45293.1 1761.55 3
-9 -9 3 46665.1 1576.78 2
-9 18 6 2182.87 796.927 4
-9 -9 6 1813.61 851.406 1
18 -9 6 2852.07 386.649 4
-9 18 6 2608.66 832.572 2
-9 -9 6 3092.91 670.725 4
18 -9 6 1954.65 692.069 3
18 -9 6 3338.37 627.24 1
-9 -9 6 2476.42 648.017 2
18 -9 9 16070.9 1488.19 2
-9 -9 9 13944.4 1674.93 1
-9 18 9 14295.7 1545.6 4
-9 18 9 13134.7 1485.32 2
18 -9 9 15844.2 1259.24 1
-9 -9 9 17336.5 1321.1 4
18 -9 9 16838.5 1389.2 3
-9 -9 9 16736.7 1294.13 2
18 -8 -7 24966.1 852.471 3
-10 18 -4 45266 910.12 4
-10 18 -4 45936.3 896.147 4
-8 -10 -4 49037.4 1487 1
18 -8 -4 46208.6 1405.19 3
-8 -10 -1 107173 1973.82 1
-10 18 -1 106358 1987.55 4
18 -8 -1 110822 2333.28 3
-10 18 -1 106483 945.822 2
-8 -10 2 47752.3 1572.19 2
-10 18 2 46805.5 1679.67 4
18 -8 2 48598.7 1420.27 4
-10 18 2 45255.1 1390.19 2
-8 -10 2 46128 1570.46 1
18 -8 2 50146.7 1772.99 3
18 -8 2 46027.5 1192.84 1
-10 18 5 43815.7 1931.34 4
-8 -10 5 47593 2048.37 1
-10 18 5 45316.3 1852.61 2
18 -8 5 43437.4 1220.63 4
-8 -10 5 50255.3 1823.18 4
18 -8 5 45349.5 1868.17 3
18 -8 5 46442.1 1361.49 1
-8 -10 5 46082.6 1596.79 2
18 -8 8 15086.1 1450.79 2
18 -8 8 13727.7 740.767 4
-10 18 8 13867.7 1442.74 4
-10 18 8 13238.2 1413.08 2
-8 -10 8 13683.9 1128.3 4
18 -8 8 15260.6 1130.81 1
-8 -10 8 16837.2 1696.26 1
18 -8 8 14571.9 1269.11 3
-8 -10 8 15921 1150.2 2
18 -8 11 7604.64 1374.63 2
-8 -10 11 9135.67 1626.24 1
-10 18 11 8746.32 1476.7 4
-10 18 11 9144.14 1513.9 2
-8 -10 11 9106.35 1115.66 4
18 -8 11 9210.89 1194.15 3
-8 -10 11 7874.38 1090.18 2
18 -7 -5 128843 2165.45 3
-11 18 -2 61864.8 1349.05 4
-7 -11 -2 64241.5 1626.3 1
18 -7 -2 65964.7 1777.81 3
-11 18 1 145653 2679.28 4
-11 18 1 142143 2067.25 2
18 -7 1 145659 2843.74 3
-7 -11 1 141649 2483.74 1
18 -7 1 139357 2052.33 1
18 -7 4 79541.1 1529.08 1
-11 18 4 77091.6 2389.04 4
-7 -11 4 74280.4 2293.65 1
-11 18 4 76263.1 2176.67 2
18 -7 4 73022.4 1672.75 4
18 -7 4 75578.7 2277.76 3
-7 -11 4 71802.7 1867.48 2
18 -7 7 27417.6 1076.51 4
-7 -11 7 31175.4 1983.06 1
-11 18 7 27391.8 1787.25 4
-11 18 7 24143.4 1667.29 2
-7 -11 7 29135.7 1486.64 4
18 -7 7 28365.1 1255.53 1
18 -7 7 29351 1638.43 3
-7 -11 7 28536 1379.29 2
-7 -11 10 8632.26 1645.21 1
18 -7 10 5074.75 1268.08 2
-11 18 10 7210.91 1345.64 4
18 -7 10 8765.79 1082.81 1
-11 18 10 6944.45 1384.24 2
-7 -11 10 5841.58 948.789 4
18 -7 10 6244.85 1027.82 3
-7 -11 10 5200.65 894.65 2
18 -6 -6 -55.6446 372.721 3
-6 -12 -3 67942.9 1852.04 1
-12 18 -3 68261.1 1188.13 4
18 -6 -3 68077.6 1767.78 3
-6 -12 0 971.457 443.882 1
-12 18 0 2237.84 479.273 4
-12 18 0 2342.15 310.192 2
18 -6 0 2132.75 593.443 3
-6 -12 3 60223.8 1678.34 2
-12 18 3 68607.9 2124.77 4
18 -6 3 62113.9 1642.94 4
-6 -12 3 60052.4 1963.73 1
-12 18 3 60226.4 1765.78 2
18 -6 3 66121 2105.49 3
18 -6 3 60493.1 1085.66 1
-12 18 6 5889.68 1005.86 4
-6 -12 6 7648.92 1096.65 1
-12 18 6 5275.54 919.717 2
18 -6 6 4445.53 572.108 4
-6 -12 6 6326.85 819.527 4
18 -6 6 6749.69 940.43 3
18 -6 6 5703.68 603.667 1
-6 -12 6 5931.74 697.244 2
18 -6 9 15224.8 1621.66 2
-6 -12 9 16677.6 1792.87 1
-12 18 9 16189.9 1576.43 4
-12 18 9 16679.7 1643.55 2
18 -6 9 15564.7 1174.8 1
-6 -12 9 13414.8 1181.33 4
18 -6 9 16263.6 1354.98 3
-6 -12 9 15540.5 1168.51 2
18 -5 -7 34389.1 1174.18 3
-5 -13 -4 34856.9 1491.59 1
18 -5 -4 34456.9 1269.08 3
-5 -13 -1 82620.9 2020.73 1
-13 18 -1 82376.6 1691.67 4
18 -5 -1 83235.7 2093.82 3
-13 18 -1 82929.5 1184.89 2
-13 18 2 14447.1 1005.4 4
-5 -13 2 13078.6 969.145 1
18 -5 2 14821.8 1070.89 3
-13 18 2 13068.5 798.248 2
18 -5 2 12121.9 465.277 1
-5 -13 5 792.434 465.788 2
18 -5 5 563.825 288.862 1
-13 18 5 1236.34 729.948 4
-5 -13 5 395.964 664.357 1
18 -5 5 595.362 425.024 4
-13 18 5 966.162 639.246 2
18 -5 5 293.549 610.654 3
18 -5 8 38930.9 1481.23 4
-13 18 8 41295.8 2195.66 4
-5 -13 8 43930 2385.37 1
18 -5 8 43392.7 1599.1 1
-5 -13 8 40327.7 1735.86 4
-13 18 8 44268.8 2200.12 2
18 -5 8 39400.1 1899.83 3
-5 -13 8 38458.9 1606.67 2
18 -5 11 782.506 1094.07 2
-13 18 11 526.097 988.171 4
-5 -13 11 2364.28 1272.15 1
18 -5 11 673.388 783.241 3
-13 18 11 1299.49 988.992 2
-5 -13 11 816.2 685.534 2
18 -4 -8 49380.1 1423.54 3
-4 -14 -5 52467.7 2010.54 1
18 -4 -5 48627.7 1511.18 3
-14 18 -2 56962.6 1258.17 4
-4 -14 -2 55555.8 1769.27 1
18 -4 -2 60501.9 1792.7 3
-14 18 1 83650.6 2037.01 4
-14 18 1 84488.9 1679.93 2
18 -4 1 80233 2228.15 3
-4 -14 1 81725.4 2123.26 1
-4 -14 4 81559.4 1843.85 2
-14 18 4 81869 2476.1 4
-4 -14 4 84962.8 2549.61 1
-14 18 4 87566.6 2320.48 2
18 -4 4 89513.3 2505.61 3
18 -4 7 66293.2 1950.74 4
-14 18 7 67316.4 2632.22 4
-4 -14 7 74931.4 2900.34 1
-14 18 7 76207.2 2694.77 2
18 -4 7 72389.9 1702.29 1
18 -4 7 77584.7 2519.11 3
-4 -14 7 73293.2 1989.63 2
18 -4 10 8349.09 1412.19 2
-14 18 10 8908.34 1378.03 4
-4 -14 10 10666 1697.98 1
-14 18 10 10699.6 1475.95 2
-4 -14 10 8493.85 1058.89 4
18 -4 10 11136.9 1227.64 3
-4 -14 10 8166.79 952.606 2
-3 -15 -6 32377.4 1820.22 1
18 -3 -6 31119.7 1297.89 3
-15 18 -3 16260.3 548.137 4
-3 -15 -3 15886.4 1148.89 1
-15 18 0 39874.1 1336.67 4
18 -3 0 44682.2 1647.66 3
-15 18 0 44200 1129.85 2
-3 -15 0 42147.7 1570.23 1
-15 18 3 27046.1 1433.84 4
-15 18 3 30418.7 1323.04 2
-3 -15 3 28098.4 1503.5 1
18 -3 3 32159.7 1545.24 3
18 -3 6 7617.83 569.287 1
-15 18 6 10507 1181.3 4
-3 -15 6 9868.83 1198.97 1
-15 18 6 9518.16 1097.2 2
18 -3 6 8692.11 1021.34 3
18 -3 6 8918.51 536.304 1
-3 -15 6 8332.62 750.589 2
18 -3 9 3842.49 1131.77 2
18 -3 9 3185.18 731.228 4
-15 18 9 3911.27 1013.67 4
-3 -15 9 2464.69 1004.45 1
-15 18 9 884.884 938.58 2
18 -3 9 3615.87 892.846 3
-3 -15 9 4362.86 709.605 2
18 -2 -7 3426.65 688.158 3
-2 -16 -4 3370.67 770.172 1
18 -2 -4 4458.33 657.798 3
-2 -16 -1 13788.8 1057.08 1
-16 18 -1 10631.8 674.899 4
18 -2 -1 12085 961.252 3
-16 18 -1 12880.5 629.361 2
-16 18 2 39270.5 1573.27 4
-16 18 2 36031.2 1314.32 2
-2 -16 2 40062.9 1677.06 1
18 -2 2 35940 1610.5 3
-2 -16 5 20717.3 954.197 2
-16 18 5 21041.3 1419.89 4
-2 -16 5 23230.7 1576.68 1
-16 18 5 22551.6 1401.05 2
18 -2 5 22748.3 1402.51 3
-16 18 8 16117.7 1502.28 4
-2 -16 8 13625.6 1499.6 1
18 -2 8 13454 878.04 1
-16 18 8 13962.3 1427.94 2
18 -2 8 15108.7 1300.4 3
18 -2 8 11250.3 1027.7 4
-2 -16 8 13104.5 941.945 2
18 -2 11 3294.19 1287.19 2
-16 18 11 4483.52 1299.63 4
-2 -16 11 7847.1 1695.78 1
-16 18 11 5971.29 1260.39 2
18 -2 11 4793.6 1020.57 3
18 -1 -8 29021.9 1415.33 3
-1 -17 -5 59955 2347.65 1
18 -1 -5 52155.7 1724.96 3
-17 18 -2 64285.1 1348.26 4
-1 -17 -2 65428.5 2166.64 1
18 -1 -2 68109.6 2008.71 3
-17 18 1 82478.8 2084.68 4
-17 18 1 75610.6 1738.73 2
18 -1 1 83117.8 2343.23 3
-1 -17 1 81249.7 2306.15 1
-17 18 4 30941.9 1646.34 4
-1 -17 4 36973.4 1844.51 1
-17 18 4 35032.9 1574.84 2
18 -1 4 35767.9 1720.18 3
-17 18 7 120032 3551.66 4
-1 -17 7 130342 3847.59 1
-17 18 7 131745 3573.88 2
18 -1 7 116513 1756.32 1
18 -1 7 124699 3218.94 3
-1 -17 7 125361 2353.05 2
18 -1 10 6090.36 1405.49 2
-17 18 10 3749.25 1130.23 4
-1 -17 10 4949.62 1401.09 1
-17 18 10 3850.59 1211.41 2
18 -1 10 6966.52 1145.41 3
0 -18 -6 44503.1 2252.27 1
18 0 -6 43510.6 1662.03 3
0 -18 -3 1234.14 788.994 1
-18 18 -3 714.662 215.198 4
18 0 -3 1658.38 640.555 3
0 -18 0 31850.3 1561.62 1
-18 18 0 32227.2 1258.62 4
18 0 0 30246.4 1485.98 3
-18 18 0 33518.5 1174.28 2
-18 18 3 4078.96 740.541 4
-18 18 3 4058.8 693.723 2
0 -18 3 4934.23 941 1
18 0 3 3683.64 788.792 3
0 -18 6 20319.7 911.388 2
-18 18 6 23930 1630.98 4
0 -18 6 20107.9 1623.98 1
-18 18 6 22125 1515.96 2
18 0 6 19901.7 1410.35 3
18 0 9 1386.49 1124.63 2
18 0 9 1410.96 688.588 4
-18 18 9 4384.38 1145.3 4
0 -18 9 3543.39 1167.36 1
-18 18 9 660.596 887.353 2
18 0 9 2769.77 845.945 3
18 1 -7 2625.51 736.599 3
1 -19 -7 3691.1 1084.64 1
1 -19 -4 2270.01 901.81 1
18 1 -4 1531.3 651.287 3
-19 18 -1 10506.8 730.161 2
1 -19 -1 8774.44 1087.91 1
-19 18 -1 9966 712.888 4
-19 18 2 2614.56 617.761 4
-19 18 2 1846.53 585.393 2
18 1 2 1579.44 662.378 3
1 -19 2 2845.33 794.089 1
-19 18 5 2865.83 782.487 4
-19 18 5 3276.51 779.597 2
1 -19 5 2447.29 906.054 1
18 1 5 1585.67 729.078 3
18 1 8 1484.32 711.468 4
-19 18 8 2095.1 931.447 4
1 -19 8 4038.82 1182.67 1
-19 18 8 3320.82 959.329 2
18 1 8 1134.77 774.094 3
18 2 -8 20746.2 1411.58 3
2 -20 -5 42415.6 2227.82 1
18 2 -5 36919.2 1630.73 3
-20 18 -2 28041.3 979.85 4
2 -20 -2 28643.6 1687.25 1
18 2 -2 28580.6 1504.66 3
-20 18 1 125788 2651.04 4
18 2 1 124793 2991.68 3
-20 18 1 125369 2498.87 2
2 -20 1 122806 3080.74 1
-20 18 4 15426.3 1284.33 4
-20 18 4 15623.4 1169.24 2
2 -20 4 16882.8 1433.45 1
18 2 4 15366.6 1268.49 3
-20 18 7 62896.4 2662.92 4
2 -20 7 62903.8 2812.65 1
-20 18 7 63219.4 2554.24 2
18 2 7 60973.3 2365.5 3
18 2 10 2610.23 916.443 4
18 2 10 2774.46 1266.66 2
-20 18 10 1433.33 1047.71 4
2 -20 10 -546.932 1087.55 1
-20 18 10 1282.59 1059.28 2
18 2 10 1874.78 918.505 3
3 -21 -6 16257.8 1611.49 1
18 3 -6 19069.2 1339.48 3
-21 18 -3 7903.01 510.422 4
3 -21 -3 8209.98 1163.97 1
18 3 -3 7872.49 925.216 3
3 -21 0 19452.5 1445.42 1
-21 18 0 18794.4 1036.96 4
18 3 0 21871.8 1410.4 3
-21 18 0 18998.7 1050.99 2
-21 18 3 17096.3 1255.85 4
-21 18 3 16609.9 1126.65 2
18 3 3 18810.5 1333.67 3
3 -21 3 18856.6 1419.52 1
-21 18 6 39783.9 2085.73 4
3 -21 6 37837.4 2169.8 1
-21 18 6 36575.9 1931.29 2
18 3 6 39247.5 1912.03 3
18 3 9 3544.75 1252.69 2
18 3 9 3346.34 856.899 4
-21 18 9 4692.45 1259.25 4
3 -21 9 3368.51 1318.53 1
-21 18 9 5351.46 1160.53 2
18 3 9 5681.5 1066.07 3
4 -22 -7 10477.7 1600.72 1
18 4 -7 6528.88 1109.64 3
4 -22 -4 2609.5 1011.14 1
18 4 -4 2195.55 786.77 3
-22 18 -1 12237.2 913.55 2
4 -22 -1 9980.73 1215.81 1
-22 18 -1 11572.8 792.456 4
18 4 -1 10281.5 1075.51 3
-22 18 2 9221.1 931.795 4
-22 18 2 10640.9 933.402 2
18 4 2 7952.45 1010.04 3
4 -22 2 8923.81 1124.72 1
-22 18 5 19669.5 1486.24 4
4 -22 5 18904.4 1610.57 1
-22 18 5 19677.9 1421.49 2
18 4 5 19569 1456.8 3
18 4 8 2634.96 883.473 4
-22 18 8 3062.67 1065.23 4
4 -22 8 1848.08 1069.72 1
-22 18 8 4424.89 1069.01 2
18 4 8 3703.76 965.622 3
18 5 -8 675.469 930.277 3
5 -23 -8 869.776 1129.28 1
5 -23 -5 21475 1877.05 1
18 5 -5 21814.4 1472.57 3
-23 18 -2 15728.8 829.023 4
5 -23 -2 15011.3 1489.55 1
18 5 -2 17343.6 1357.98 3
-23 18 1 33267.9 1505.32 4
18 5 1 35532.3 1845.65 3
-23 18 1 33583.1 1526 2
-23 18 4 2548.53 780.946 4
-23 18 4 3414.35 805.601 2
18 5 4 2684.21 812.926 3
5 -23 4 3563.75 1036.3 1
-23 18 7 15964.2 1552.45 4
5 -23 7 17430.9 1711.59 1
-23 18 7 15204.5 1489.26 2
18 5 7 17117.6 1451.06 3
6 -24 -6 17363.7 1794.06 1
18 6 -6 19614.9 1505.16 3
-24 18 -3 37875.1 1156.25 4
6 -24 -3 37076.2 2169.22 1
18 6 -3 35375.4 1839.95 3
-24 18 0 16624.6 1056.15 4
6 -24 0 13818.5 1477.46 1
18 6 0 16034.4 1348.76 3
-24 18 0 16842.6 1131.44 2
-24 18 3 18395.5 1350.72 4
-24 18 3 14952.8 1204.03 2
18 6 3 17254.2 1418.89 3
6 -24 3 18348.7 1564.89 1
-24 18 6 36532.4 2087.31 4
6 -24 6 34332.9 2247.21 1
-24 18 6 32494.6 1915.92 2
18 6 6 33859.2 1931.39 3
18 6 9 15071 1830.72 2
18 6 9 10417.6 1318.82 4
-24 18 9 14916.4 1736.87 4
6 -24 9 14809.8 1868.42 1
-24 18 9 15303.5 1726.34 2
18 6 9 14505.6 1562.9 3
18 7 -7 7551.15 1252.2 3
7 -25 -7 7611.52 1552.27 1
7 -25 -4 5836.73 1230.19 1
18 7 -4 6629.97 1016.73 3
-25 18 -1 13791 1094.31 2
7 -25 -1 11650.6 1359.17 1
-25 18 -1 12509.4 907.811 4
18 7 -1 11895.8 1257.04 3
7 -25 2 4701.07 1089.94 1
-25 18 2 5968.31 879.842 4
18 7 2 5156.79 964.266 3
-25 18 2 4342.15 809.158 2
-25 18 5 29098.9 1826.79 4
-25 18 5 24299.3 1633.35 2
7 -25 5 26517.2 1977.42 1
18 7 5 26259.8 1767.63 3
18 7 8 3054.11 940.504 4
-25 18 8 5819.46 1219.56 4
-25 18 8 6449.38 1262.99 2
7 -25 8 5573.2 1259.98 1
18 7 8 6339.48 1144.35 3
18 8 -8 1950.47 1124.34 3
8 -26 -8 3679.53 1420.32 1
18 8 -5 6248.78 1096.37 3
8 -26 -5 7629.57 1473 1
-26 18 -2 8373.17 744.265 4
8 -26 -2 7058.65 1283.63 1
18 8 -2 8605.45 1145.47 3
-26 18 1 2997.98 743.546 2
8 -26 1 2151.91 1009.19 1
-26 18 1 1992.47 690.585 4
18 8 1 2225.04 936.412 3
8 -26 4 1998.66 954.191 1
-26 18 4 1331.87 777.369 4
-26 18 4 2016.73 810.05 2
18 8 4 1847.64 894.522 3
-26 18 7 5434.48 1165.78 4
8 -26 7 7616.24 1392.71 1
-26 18 7 6866.5 1165.65 2
18 8 7 4994.94 1092.49 3
9 -27 -6 20411.1 2059.63 1
18 9 -6 22172.7 1772.38 3
-27 18 -3 19279.5 1005.23 4
9 -27 -3 20565.3 1893 1
-27 18 0 18719.1 1373.22 2
9 -27 0 17324.8 1668.93 1
-27 18 0 19876.6 1216.03 4
18 9 0 20246.2 1604.09 3
-27 18 3 25470.9 1621.25 4
-27 18 3 20936.3 1454.51 2
18 9 3 22629.8 1683.99 3
9 -27 3 21790.7 1756.51 1
-27 18 6 4143.66 1027.96 4
-27 18 6 2404.22 969.139 2
18 9 6 3846.39 1037.31 3
9 -27 6 2259.03 1128.49 1
18 10 -7 5363.99 1372.06 3
10 -28 -7 3995.32 1577.95 1
18 10 -4 3329.45 1033.08 3
10 -28 -4 2439.9 1225.28 1
-28 18 -1 6706.69 852.11 4
10 -28 -1 9064.64 1425.31 1
18 10 -1 8067.75 1234.1 3
10 -28 2 2315.16 1072.28 1
-28 18 2 4547.73 885.015 4
18 10 2 1978.36 884.289 3
-28 18 2 2349.11 806.646 2
-28 18 5 13536.3 1386.04 4
-28 18 5 11413.1 1324.2 2
18 10 5 14662.1 1512.17 3
10 -28 5 11179.2 1514.51 1
18 10 8 1807.18 1004.37 4
-28 18 8 3346.87 1149.56 4
-28 18 8 1767.72 1059.71 2
10 -28 8 1947.41 1313.1 1
18 10 8 2124.74 1008.77 3
18 11 -5 202.872 997.726 3
11 -29 -5 65.6783 1201.87 1
11 -29 -2 1050.81 1071.27 1
-29 18 -2 3969.01 681.178 4
18 11 -2 2864.25 1046.97 3
-29 18 1 6330.98 891.9 4
11 -29 1 4953 1234.37 1
18 11 1 8004.84 1307.85 3
-29 18 1 5689.08 991.395 2
11 -29 4 4958.87 1230.08 1
-29 18 4 3849.25 959.778 4
18 11 4 3571.56 1080.62 3
-29 18 4 2644.76 908.539 2
-29 18 7 2177.81 1041.06 4
-29 18 7 1400.74 1066.71 2
18 11 7 2147.27 1006.85 3
11 -29 7 2053.39 1259.02 1
12 -30 -6 6309.59 1593.53 1
18 12 -6 8601.5 1449.2 3
12 -30 -3 15327.6 1863.5 1
18 12 -3 16712.9 1716.78 3
-30 18 0 3394.22 927.17 2
-30 18 0 5410.43 862.61 4
12 -30 0 2606.15 1187.97 1
18 12 0 4749.38 1179.04 3
12 -30 3 22686.8 2037.44 1
-30 18 3 27998.3 1794.41 4
18 12 3 23663.3 1889.14 3
-30 18 3 24986.4 1760.09 2
12 -30 6 1321.67 1232.93 1
-30 18 6 528.04 953.33 4
-30 18 6 3212.52 1109.2 2
18 12 6 2896 1100.42 3
13 -31 -4 15998.4 2012.95 1
18 13 -4 15564.7 1685.95 3
-31 18 -1 2010.83 667.751 4
13 -31 -1 67.1012 1147.95 1
18 13 -1 3213.88 1106.87 3
13 -31 2 12962.9 1705.8 1
-31 18 2 13150.6 1274.13 4
18 13 2 12855.7 1546.22 3
-31 18 2 11589.1 1313.37 2
13 -31 5 1581.46 1199.82 1
-31 18 5 168.65 903.345 4
-31 18 5 495.014 903.281 2
18 13 5 -334.873 1050.77 3
18 14 -5 2059.25 1202.14 3
14 -32 -5 1545.4 1224.03 1
14 -32 -2 963.645 1267.17 1
-32 18 -2 1289.17 593.628 4
18 14 -2 1351.1 1034.78 3
-32 18 1 4225.99 1021.8 2
-32 18 1 3234.7 892.24 4
14 -32 1 148.788 1080.19 1
18 14 1 523.182 1084.17 3
14 -32 4 1415.51 1209.7 1
-32 18 4 669.818 864.138 4
18 14 4 2333.91 1057.05 3
-32 18 4 555.182 898.603 2
15 -33 -3 8174.07 1648.07 1
18 15 -3 8284.18 1584.6 3
-33 18 0 2884.66 1041.07 2
-33 18 0 2878.13 866.92 4
15 -33 0 1864 1348.51 1
18 15 0 3431.93 1245.93 3
-33 18 3 8399.73 1263.26 4
15 -33 3 7219.5 1549.8 1
18 15 3 8623.79 1472.86 3
-33 18 3 8115.57 1305.74 2
16 -34 -4 9713.55 1845.27 1
18 16 -4 9387.92 1688.33 3
18 16 -1 -101.292 1160.88 3
16 -34 -1 909.909 1254.01 1
-34 18 -1 1929.26 794.538 4
-34 18 2 1502.5 911.604 2
-34 18 2 2170.53 915.977 4
16 -34 2 765.934 1288.48 1
18 16 2 2294.86 1182.26 3
18 17 -2 1722.41 1277.09 3
17 -35 -2 -515.675 1249.15 1
-35 18 1 4120.69 1160.79 2
-35 18 1 4657.56 1030.48 4
17 -35 1 2763.23 1455.7 1
18 17 1 2410.93 1198.06 3
18 18 0 2459.26 1403.3 3
18 -36 0 816.005 1219.33 1
-36 18 0 926.22 788.271 4
17 19 -2 4424.62 1617.29 3
19 -36 -2 1828.62 1506.4 1
-36 17 1 1751.47 1140.16 2
-36 17 1 1717.09 934.718 4
19 -36 1 1477.75 1352.17 1
16 19 -3 -396.84 1266.65 3
19 -35 -3 2410.25 1571.09 1
19 -35 0 6571.15 1657.32 1
16 19 0 6377.36 1500.62 3
-35 16 0 6431.31 1094.79 4
-35 16 3 112.683 990.987 2
-35 16 3 759.919 907.851 4
19 -35 3 -120.797 1328.86 1
16 19 3 831.355 1239.26 3
15 19 -4 3599.79 1556.38 3
19 -34 -4 1467.09 1428.02 1
15 19 -1 2013.85 1321.59 3
19 -34 -1 3075.4 1390.72 1
-34 15 -1 3606.71 892.889 4
15 19 2 2164.22 1155.29 3
-34 15 2 784.306 899.145 2
-34 15 2 -1000.18 875.714 4
19 -34 2 2161.14 1380.76 1
14 19 -5 2616.77 1426.49 3
19 -33 -5 2367.76 1451.71 1
14 19 -2 4231.56 1402.27 3
19 -33 -2 2392.77 1385.37 1
-33 14 1 8412.18 1354.83 2
19 -33 1 8690.95 1560.1 1
-33 14 1 9862.54 1230.65 4
14 19 1 10871.4 1638.68 3
-33 14 4 6208.76 1271.24 2
19 -33 4 6957.85 1575.92 1
-33 14 4 5813.35 1172.83 4
14 19 4 7099.99 1462.48 3
19 -32 -6 10983.2 2012.6 1
13 19 -6 10486.5 1791.38 3
13 19 -3 4743.38 1418.89 3
19 -32 -3 5802.1 1595.19 1
-32 13 0 15137.5 1342.09 4
19 -32 0 12090.1 1712.46 1
13 19 3 2394.93 1247.41 3
-32 13 3 -923.249 944.647 2
-32 13 3 191.42 848.851 4
19 -32 3 1222.24 1225.2 1
19 -32 6 12451 1814.12 1
-32 13 6 10929.3 1523.31 4
-32 13 6 12765.4 1652.3 2
13 19 6 9805.97 1566.68 3
12 19 -4 162.255 1197.74 3
19 -31 -4 40.7691 1296.63 1
19 -31 -1 2195.29 1224.43 1
-31 12 -1 4007.19 824.05 4
12 19 2 6640.74 1359.29 3
-31 12 2 5627.96 1103.88 2
-31 12 2 7232.04 1093.19 4
19 -31 2 5584.45 1327.52 1
-31 12 5 1090.61 919.549 4
19 -31 5 1861.62 1182.65 1
-31 12 5 1008.91 896.798 2
12 19 5 2167.74 1103.6 3
11 19 -5 9730.73 1678.97 3
19 -30 -5 9041.65 1718.23 1
11 19 -2 7097.76 1471.11 3
19 -30 -2 1750.11 1147.5 1
11 19 1 2757.85 1155.44 3
-30 11 1 2582.36 945.8 2
-30 11 1 5851.02 990.045 4
19 -30 1 3430.92 1223.29 1
-30 11 4 5035.4 1154.88 2
19 -30 4 6014.51 1437.55 1
-30 11 4 6625.27 1137.65 4
11 19 4 7666.8 1416.99 3
11 19 7 3375.8 1326.61 3
19 -30 7 5121.98 1483.71 1
-30 11 7 6142.67 1352.89 4
11 19 7 4272.78 1395.19 2
11 19 7 3254.71 1229.74 4
-30 11 7 3908.95 1253.26 2
10 19 -6 24280.7 2242.05 3
19 -29 -6 16891.3 2157.07 1
10 19 -3 12422.8 1616.93 3
19 -29 -3 7274.58 1467.55 1
-29 10 0 33614.8 1761.56 4
19 -29 0 33642.4 2321.25 1
10 19 0 39709.6 2373.53 3
19 -29 3 12648.9 1593.62 1
-29 10 3 12078.9 1339.31 4
10 19 3 12236.6 1515.31 3
-29 10 3 11259.1 1338.46 2
10 19 6 14094 1687.9 2
10 19 6 14590.5 1623.27 4
-29 10 6 14602.4 1591.23 4
-29 10 6 12319.2 1492.63 2
10 19 6 14116.8 1706.67 3
19 -29 6 10776.1 1560.87 1
9 19 -7 1488.64 1262.85 3
19 -28 -7 2058.48 1443.98 1
9 19 -4 5212.9 1363.41 3
19 -28 -4 3042.3 1325.14 1
-28 9 -1 11088.2 1051.89 4
19 -28 -1 11058.1 1574.58 1
9 19 -1 12113.8 1572.7 3
9 19 2 1869.29 1057.49 3
-28 9 2 1814.4 865.749 2
-28 9 2 1452.85 737.643 4
19 -28 2 2439.55 1088.69 1
9 19 5 2515.42 1133.97 3
19 -28 5 1077.63 1040.53 1
-28 9 5 550.89 783.943 4
-28 9 5 1972.52 1015.65 2
9 19 8 6692.1 1374.6 3
19 -28 8 3371.94 1332.45 1
9 19 8 3974.19 1272.71 4
9 19 8 6004.28 1452.12 2
-28 9 8 4826.73 1248.65 4
-28 9 8 4759.33 1226.61 2
19 -27 -8 3156.68 1620.61 1
8 19 -5 10064.3 1555.1 3
19 -27 -5 13622.9 1850.74 1
8 19 -2 7131.43 1344.36 3
19 -27 -2 5470.28 1250.4 1
-27 8 1 16085 1479.92 2
19 -27 1 14082.4 1578.2 1
-27 8 1 17071.1 1320.24 4
8 19 1 17580.3 1644.57 3
19 -27 4 15444.4 1619.55 1
-27 8 4 12738.9 1336.54 4
-27 8 4 11991.9 1350.14 2
8 19 4 13641.7 1541.58 3
8 19 7 14952 1608.58 4
8 19 7 14963.2 1799.53 2
-27 8 7 13612.8 1545.15 4
-27 8 7 14985.4 1663.99 2
19 -27 7 16624.2 1790.59 1
8 19 7 14131 1600.18 3
7 19 -6 22478.3 2010.18 3
19 -26 -6 24445.8 2312.97 1
7 19 -3 8475.07 1488.15 3
19 -26 -3 6085.66 1355.45 1
-26 7 0 24027.4 1689.86 2
-26 7 0 24832.1 1488.9 4
19 -26 0 22781.1 1866.45 1
19 -26 3 22679.8 1775.9 1
-26 7 3 22186.5 1566.2 4
-26 7 3 26543.7 1774.7 2
7 19 3 22923.1 1790.43 3
7 19 6 21695.2 1744.37 4
7 19 6 21793.3 1809.56 2
-26 7 6 20109.4 1675 4
-26 7 6 17338.4 1572.13 2
19 -26 6 20323.7 1830.53 1
7 19 6 20878.2 1760.05 3
7 19 9 2881.56 1373.13 2
19 -25 -7 5063.56 1514.21 1
6 19 -4 20577.8 1938.7 3
19 -25 -4 16747.9 1803.02 1
19 -25 -1 2501.87 1095.08 1
-25 6 -1 1329.53 185.35 1
-25 6 -1 2498.61 723.277 4
-25 6 2 7228.88 985.499 4
19 -25 2 5699.6 1125.92 1
6 19 2 7358.86 1246.58 3
-25 6 2 5974.32 996.228 2
6 19 5 4608.53 1113.91 3
19 -25 5 902.742 923.505 1
6 19 5 1859.74 948.508 2
-25 6 5 2106.35 823.475 4
6 19 5 2304.11 979.736 4
-25 6 5 3826.63 1003.31 2
6 19 8 12839.6 1609.65 4
6 19 8 10805.6 1671.01 2
-25 6 8 9955.7 1412.36 4
-25 6 8 8256.87 1360.34 2
19 -25 8 11718.4 1583.19 1
6 19 8 11041.3 1474.89 3
19 -24 -5 9140.67 1571.59 1
5 19 -5 11827.2 1634.16 3
5 19 -2 36754 2240.02 3
19 -24 -2 40894.4 2319.67 1
-24 5 1 13200.3 1274.46 2
19 -24 1 15875.5 1507.97 1
-24 5 1 15225.3 924.804 1
19 -24 1 14384.8 753.959 2
-24 5 1 17377.4 1271.67 4
5 19 1 16543.1 1550.62 3
5 19 4 2963.59 956.925 3
19 -24 4 2179.37 938.625 1
-24 5 4 971.847 749.326 4
-24 5 4 1574.51 804.186 2
5 19 7 17366.3 1654.29 4
-24 5 7 24166.6 1834.91 4
5 19 7 24388.9 1937.96 2
-24 5 7 17839.6 1596.7 2
19 -24 7 17418.1 1671.63 1
5 19 7 21349.2 1724.89 3
4 19 -6 15183.4 1726.87 3
19 -23 -6 14852.3 1816.76 1
4 19 -3 10074.8 1578.49 3
19 -23 -3 10366.7 1431.9 1
4 19 0 48386.5 2370.23 3
-23 4 0 47601 1148.28 1
-23 4 0 43002.4 2017.35 2
19 -23 0 44310.8 1458.66 2
-23 4 0 50762.7 1944.74 4
19 -23 0 47770.2 2259.49 1
19 -23 3 7770.73 1170.07 1
19 -23 3 3037.7 284.462 2
-23 4 3 6545.18 1006.67 4
-23 4 3 6095.01 964.329 2
4 19 3 6783.45 1202.86 3
4 19 6 22009.9 1682.11 4
4 19 6 24897.9 1832.49 2
-23 4 6 27494.2 1774.95 4
-23 4 6 27648.4 1776.88 2
19 -23 6 28301.9 1883.53 1
4 19 6 26179.7 1794.34 3
4 19 9 1907.35 1092.09 3
4 19 9 2442.55 1094.06 4
4 19 9 1087.1 1212.35 2
-23 4 9 1164.89 987.758 4
-23 4 9 -330.039 901.747 2
19 -23 9 2845.58 1178.02 1
19 -22 -7 -183.349 1216.79 1
3 19 -4 35020.2 2242.08 3
19 -22 -4 30387.5 2073.58 1
3 19 -1 2403.76 1153.22 3
19 -22 -1 3864.01 1036.79 1
-22 3 2 63008.6 1871.28 1
19 -22 2 64250.1 2543.27 1
19 -22 2 56615.7 1284.35 2
-22 3 2 64345.4 2258.74 4
3 19 2 66808.3 2666.4 3
3 19 5 3080.85 948.177 3
19 -22 5 3863.75 1027.15 1
3 19 5 3483.95 977.546 4
3 19 5 1984.69 950.294 2
19 -22 5 1771.09 250.147 2
-22 3 5 2095.39 874.316 4
-22 3 5 2501.43 879.828 2
3 19 8 11692.6 1412.96 4
3 19 8 11238.2 1595.24 2
-22 3 8 10646 1385.78 4
19 -22 8 11830.5 1406.69 1
-22 3 8 11840.6 1363.68 2
3 19 8 14133.3 1448.12 3
19 -21 -5 5214.74 1255.06 1
2 19 -5 6513.44 1332.88 3
2 19 -2 9099.31 1402.86 3
19 -21 -2 8369.01 1225.03 1
2 19 -2 5690.5 592.797 2
2 19 1 16489.5 1556.97 3
-21 2 1 17159.9 1336.49 2
19 -21 1 14004.9 949.19 4
19 -21 1 14437.7 829.069 2
19 -21 1 16796.4 1380.61 1
-21 2 1 15877.2 1195.52 4
-21 2 1 15082.5 814.154 1
2 19 4 3394.99 1019.7 3
2 19 4 1816.9 838.162 4
2 19 4 3161.61 914.407 2
19 -21 4 3599.98 942.177 1
-21 2 4 3117.75 873.135 4
19 -21 4 2614.51 337.474 2
-21 2 4 4030.02 885.444 2
2 19 7 9290.69 1253.65 3
2 19 7 10506.8 1310.24 4
2 19 7 10731.6 1458.11 2
-21 2 7 9745.42 1205.42 4
19 -21 7 11959.2 1361.54 1
-21 2 7 9898.29 1245.75 2
2 19 10 1322.32 988.552 4
2 19 10 2673.58 1224.94 2
-21 2 10 1215.88 997.248 4
19 -21 10 1619.54 1023.95 3
-21 2 10 2060.37 1013.36 2
19 -21 10 1818.84 1046.4 1
19 -20 -6 10694 771.945 3
19 -20 -6 10503.3 1650.91 1
1 19 -3 3541.02 1209.09 3
19 -20 -3 2554.06 989.604 1
1 19 -3 2827.97 465.041 2
1 19 0 3149.42 545.962 2
19 -20 0 3801.42 918.221 1
1 19 0 4310.46 1168.77 3
-20 1 0 4098.42 341.049 1
19 -20 0 2957.14 585.312 2
-20 1 0 4859.41 388.25 1
-20 1 0 2981.06 721.586 4
1 19 3 9900.69 1265.68 3
19 -20 3 8671.84 1060.48 1
1 19 3 10647.9 1078.13 2
-20 1 3 8353.81 990.543 4
19 -20 3 9202.67 596.21 2
-20 1 3 9935.36 1070.61 2
1 19 6 11266.5 1286.5 3
1 19 6 12493 1331.19 4
19 -20 6 11711.6 757.795 2
-20 1 6 10847.6 1196.67 4
-20 1 6 10941.7 1175.87 2
19 -20 6 12080.9 1263.05 1
1 19 6 12083.5 1388.31 2
1 19 9 2741.48 1085.65 4
-20 1 9 2837.92 1042.22 4
19 -20 9 2748.75 1029.87 3
1 19 9 4112.05 1313.42 2
19 -20 9 2971.07 1040.58 1
-20 1 9 4021.97 1061.38 2
19 -19 -7 3189.45 402.028 3
19 -19 -4 31295.9 2055.41 1
0 19 -4 32752.7 2054.67 3
0 19 -4 29587 995.451 2
0 19 -1 111.285 1006.62 3
19 -19 -1 507.764 747.206 1
0 19 -1 418.364 361.402 2
0 19 2 79761.9 2720.23 3
-19 0 2 71180.7 1971.98 1
19 -19 2 76405 1676.86 4
19 -19 2 77103.6 2506.46 1
-19 0 2 76534.5 2335.92 4
19 -19 2 71884.5 1587.87 2
0 19 2 76401.1 2187.25 2
-19 0 2 75174 2413.65 2
0 19 5 2047.87 897.563 3
19 -19 5 2369.61 847.784 1
0 19 5 1746.12 868.171 2
-19 0 5 2343.3 823.378 4
0 19 5 4140.92 936.234 4
19 -19 5 1789.94 415.867 2
-19 0 5 3405.48 793.553 2
0 19 8 86096.1 2829.4 3
0 19 8 87321.5 3269.98 4
0 19 8 88315.2 3353.64 2
-19 0 8 85903 3041.82 4
19 -19 8 83385.3 2953.59 3
19 -19 8 78797.4 2919.55 1
-19 0 8 82389.4 2944.35 2
19 -18 -5 298.824 912.806 1
19 -18 -5 1304.57 648.382 3
-1 19 -5 1623.07 370.68 2
19 -18 -5 1600.38 488.804 3
19 -18 -2 555.603 777.052 1
-1 19 -2 1749.66 1030.77 3
-1 19 -2 2524.22 371.281 2
-18 -1 1 12153.4 755.531 1
-1 19 1 14569.6 1399.51 3
-18 -1 1 12970.1 1116.54 2
-1 19 1 11964.8 873.302 2
-18 -1 1 13068.3 726.237 1
19 -18 1 11431.6 788.033 4
19 -18 1 14205.7 1184.24 1
19 -18 1 11856 766.951 2
-18 -1 1 13436 1082.49 4
-1 19 4 -12.4922 875.432 3
19 -18 4 1274.39 712.788 1
-1 19 4 2685.83 815.657 2
-18 -1 4 404.661 622.013 4
19 -18 4 2222.81 418.391 2
-1 19 4 4139.65 905.015 4
-18 -1 4 2116.07 733.916 2
-1 19 7 3902.16 974.11 3
-1 19 7 4405.16 1021.93 4
19 -18 7 3692.24 679.609 2
-1 19 7 2061.47 940.804 2
-18 -1 7 3645.19 923.02 4
19 -18 7 2935.12 889.935 3
-18 -1 7 3026.83 861.292 2
19 -18 7 2696.33 849.456 1
-1 19 10 2143.86 1099.34 4
-1 19 10 3223.69 1364.53 2
-18 -1 10 2138.07 977.835 4
19 -18 10 1587.69 914.555 3
19 -18 10 3449.7 1108.1 1
-18 -1 10 1315.73 855.366 2
19 -17 -6 7069.34 570.661 3
-2 19 -3 40827.4 2163.36 3
-2 19 -3 40811.5 933.788 2
19 -17 -3 42865.5 1507.73 3
19 -17 -3 45327.9 2157.64 1
-2 19 0 2668.89 1045.85 3
-2 19 0 1155.34 390.622 2
19 -17 0 1704.35 706.025 1
-17 -2 0 1524.85 256.074 1
19 -17 0 2083.23 523.691 2
-17 -2 0 1780.78 299.29 1
-2 19 3 22316.1 1551.13 3
19 -17 3 22511.1 1377.04 1
19 -17 3 21491.2 752.306 4
-2 19 3 20420.1 1258.32 2
-2 19 3 23225.9 1451.18 4
-17 -2 3 22437.5 1374.93 4
19 -17 3 21000.8 924.175 2
-17 -2 3 22660.1 1366.77 2
-2 19 6 14034.7 1336.26 3
-2 19 6 11753.9 1350.35 2
-17 -2 6 13225.5 1289.39 4
19 -17 6 11946.4 1206.45 3
-2 19 6 12616.6 1290.99 4
19 -17 6 12275.3 1154.02 1
-17 -2 6 13432.2 1230.82 2
-2 19 9 17329.6 1756.22 4
19 -17 9 14993.6 1221.01 2
-17 -2 9 13585.8 1401.91 4
19 -17 9 17352.5 1505.41 3
-2 19 9 17566.7 1801.45 2
19 -17 9 16075.7 1473.47 1
-17 -2 9 14547.5 1420.93 2
19 -16 -7 7595.81 454.603 3
19 -16 -4 91395.4 2008.75 3
19 -16 -4 93296.3 3135.79 1
19 -16 -1 6008.8 885.69 1
-3 19 -1 5607.84 1096.6 3
-3 19 -1 3916.62 454.181 2
19 -16 -1 4754.24 724.234 3
-3 19 -1 4689.69 414.209 2
-16 -3 2 152755 3218.25 2
-3 19 2 154659 3587.28 3
-3 19 2 153273 3218.22 4
-16 -3 2 154648 2618.21 1
-3 19 2 143181 2741.47 2
19 -16 2 140266 2195.47 4
19 -16 2 146742 3129.43 1
-16 -3 2 148622 3144.18 4
19 -16 2 139303 2332.13 2
19 -16 5 2349.09 709.79 1
-3 19 5 2842.21 956.544 3
-3 19 5 1258.99 803.962 4
-3 19 5 1086.98 807.542 2
-16 -3 5 2240.45 772.474 4
19 -16 5 941.379 721.579 3
-16 -3 5 1661.8 690.108 2
19 -16 5 779.445 434.386 2
-3 19 8 94676.4 2657.64 3
19 -16 8 93689.2 2672.41 2
-3 19 8 100432 3397.23 4
-3 19 8 99697.2 3491.68 2
-16 -3 8 86787.5 2972.5 4
19 -16 8 100728 3144.01 3
19 -16 8 96614.1 2995.92 1
-16 -3 8 93377.6 3010.87 2
-3 19 11 4135.44 1443.69 2
19 -16 11 2865.63 992.144 3
-16 -3 11 2794.99 1021.48 2
-4 19 -5 21745.2 1056.35 4
19 -15 -5 26415.6 1048.41 3
19 -15 -2 11829.3 891.699 3
19 -15 -2 11652.5 1147.08 1
-4 19 -2 10786.5 412.635 2
-15 -4 1 7926.59 877.061 2
-4 19 1 7284.54 1086.37 3
-4 19 1 9838.87 935.74 4
-4 19 1 8883.61 709.754 2
19 -15 1 7987.41 662.753 4
-15 -4 1 9418.14 625.548 1
-15 -4 1 11793.6 999.102 4
19 -15 1 9722.25 926.217 3
19 -15 1 9146.44 913.263 1
19 -15 1 7878.34 676.661 2
-4 19 4 -47.0041 832.016 3
-4 19 4 555.922 719.741 4
19 -15 4 372.233 177.127 4
-4 19 4 93.3066 632.414 2
-15 -4 4 458.206 578.036 4
19 -15 4 1489.58 738.31 3
19 -15 4 -180.859 635.007 1
19 -15 4 -127.921 420.499 2
-15 -4 4 83.0079 571.786 2
-4 19 7 8650.77 1058.06 3
-4 19 7 6698.98 1140.79 4
19 -15 7 9257.45 1000.25 2
-4 19 7 8116.93 1245.99 2
-15 -4 7 8388.78 1037.6 4
19 -15 7 9152.37 1143.02 3
19 -15 7 8692.67 1020.35 1
-15 -4 7 6761.24 948.476 2
-4 19 10 3110 1085.18 4
19 -15 10 3424.29 954.814 2
-15 -4 10 1206.13 900.294 4
-4 19 10 119.122 1174.37 2
19 -15 10 2767.81 935.338 3
19 -15 10 623.835 825.052 1
-15 -4 10 1090.05 851.358 2
-5 19 -6 24912 1002.08 4
19 -14 -6 28068.7 948.442 3
19 -14 -3 40364.1 1954.42 1
-5 19 -3 36623 1291.34 4
19 -14 -3 39362.4 1382.65 3
-5 19 0 5475.86 1012.43 3
19 -14 0 5710.17 668.01 4
19 -14 0 7363.63 819.14 3
-14 -5 0 5668.51 427.332 1
-5 19 0 5936.59 511.842 2
19 -14 0 7005.09 873.05 1
19 -14 3 27358.5 1339.07 1
-5 19 3 26837.7 1490.48 4
-14 -5 3 28835.4 1369.86 1
19 -14 3 25907.5 865.531 4
-5 19 3 27614.5 1347.35 2
-14 -5 3 25244.1 1370.76 4
19 -14 3 24437.9 1408.73 3
19 -14 3 25814 1106.45 2
-14 -5 3 27148.5 1402.38 2
-5 19 6 12830 1167.45 3
-5 19 6 13670.3 1306.61 4
-5 19 6 12546.7 1282.98 2
-14 -5 6 14533.4 1198.24 4
19 -14 6 14089.2 1228.37 3
19 -14 6 14681.4 1135.77 1
-14 -5 6 13389.9 1152.95 2
-5 19 9 13081.2 1512.9 4
-5 19 9 12828.7 1568.81 2
-14 -5 9 11027.3 1228.09 4
19 -14 9 11276.4 1248.42 3
19 -14 9 11356.2 1248.87 1
-14 -5 9 12669.4 1255.26 2
19 -14 9 12892.3 1298.22 2
19 -13 -7 33192.8 818.685 3
-6 19 -4 147444 2307.5 4
19 -13 -4 151652 2495.56 3
19 -13 -4 155703 3872.89 1
-13 -6 -1 16818.2 581.656 1
-6 19 -1 16430.8 539.765 2
19 -13 -1 15608.7 1116.61 1
-6 19 -1 15859.7 504.63 2
-13 -6 2 199155 3498.06 2
-6 19 2 194339 3750.23 3
-6 19 2 199349 3518.45 4
-6 19 2 181834 2860.05 2
19 -13 2 194258 2627.81 4
-13 -6 2 193679 2977.26 1
19 -13 2 179973 3075.95 1
-13 -6 2 199584 3527.17 4
19 -13 2 194429 3554.11 3
19 -13 2 182229 2832.56 2
19 -13 5 689.067 532.387 1
-6 19 5 447.594 698.924 3
-6 19 5 1759.52 783.664 4
-13 -6 5 1086.54 771.785 1
19 -13 5 838.304 159.582 4
-6 19 5 846.383 680.19 2
-13 -6 5 1311.13 678.067 4
19 -13 5 1055.88 734.125 3
-13 -6 5 1110.86 585 2
-13 -6 8 52339.2 2705.83 1
19 -13 8 48487.4 2147.14 2
-6 19 8 47350 2391.55 4
-6 19 8 51553.3 2515.83 2
-13 -6 8 42880.5 2051.8 4
19 -13 8 46209.7 2149 3
19 -13 8 46851.8 1978.41 1
-13 -6 8 51712.8 2151.56 2
-13 -6 11 5921.15 1424.21 1
-6 19 11 3667.17 1285.41 4
19 -13 11 5972.79 1167.25 2
-6 19 11 4739.61 1376.35 2
-13 -6 11 3035.22 1013.24 4
19 -13 11 4530.88 1086.81 3
19 -13 11 4197.66 1098.46 1
-13 -6 11 5929.04 1167.67 2
-7 19 -5 20345.7 809.666 4
19 -12 -5 19354.5 910.027 3
-12 -7 -2 60730.8 1030.04 1
19 -12 -2 64161.4 2187.64 1
19 -12 -2 59537.2 1718.59 3
-7 19 1 18025.8 1102.37 4
19 -12 1 15547.6 883.685 4
-7 19 1 17410.3 836.695 2
-12 -7 1 15059.9 811.467 1
19 -12 1 19687.4 1169.2 3
19 -12 1 15656.2 981.065 1
19 -12 4 28911.2 1286.52 1
-7 19 4 32224.9 1677.51 4
-12 -7 4 32209 1602.8 1
19 -12 4 30024.5 884.821 4
-7 19 4 30279.6 1497.53 2
-12 -7 4 30345.9 1507.96 4
19 -12 4 30479.9 1559.78 3
-12 -7 4 29652 1416.07 2
-12 -7 7 20114.3 1684.68 1
-7 19 7 20592.3 1653.1 4
-7 19 7 16096.1 1449.18 2
-12 -7 7 19406.3 1372 4
19 -12 7 18369.6 1382.44 3
19 -12 7 19009.6 1232.17 1
-12 -7 7 20677.9 1360.12 2
-12 -7 10 19075.7 2015.21 1
19 -12 10 18939 1629.84 2
-7 19 10 21545 1896.55 4
-7 19 10 17178.8 1838.09 2
-12 -7 10 21575.3 1620.99 4
19 -12 10 19405.8 1527.46 1
19 -12 10 21258.4 1636.32 3
-12 -7 10 18998 1546.83 2
-8 19 -6 2335.46 309.003 4
19 -11 -6 3189.35 431.433 3
-8 19 -3 28315.7 1012.53 4
-11 -8 -3 28059.6 866.322 1
-8 19 -3 24926.1 963.893 4
19 -11 -3 29046 1169.99 3
19 -11 -3 27697.4 1574.79 1
-8 19 0 29207.3 1248.59 4
-8 19 0 30416 844.201 2
19 -11 0 28684.6 1252.03 1
19 -11 0 28707.9 1329.4 3
-11 -8 0 29363 987.441 1
-8 19 3 32048.5 1583.22 4
19 -11 3 33948.3 1281 1
-11 -8 3 32522.6 1423.19 1
19 -11 3 31653 1053.36 4
-8 19 3 31703.1 1360.56 2
-11 -8 3 31067.3 1481.76 4
19 -11 3 33136.6 1587.8 3
-11 -8 3 33276.5 1436.02 2
19 -11 6 33944.6 828.81 4
-11 -8 6 37978 1994.58 1
-8 19 6 32940.3 1827.14 4
-8 19 6 37647 1891.93 2
-11 -8 6 37337.6 1727.61 4
19 -11 6 40194.2 1841.8 3
19 -11 6 39853.7 1542.91 1
-11 -8 6 36725.8 1630.05 2
19 -11 9 22454.5 1721.1 2
-11 -8 9 25657.4 2063.29 1
-8 19 9 25793.4 1913.88 4
-8 19 9 22990.3 1905.44 2
-11 -8 9 22494.7 1552.73 4
19 -11 9 25381.9 1564.32 1
19 -11 9 23737.7 1603.42 3
-11 -8 9 23287.4 1535.32 2
19 -10 -7 23671.2 798.109 3
-9 19 -4 51119 1146.79 4
-9 19 -4 50959.3 1142.25 4
19 -10 -4 47433.7 1439.62 3
-10 -9 -1 32867.2 1047.58 1
19 -10 -1 33387.1 1448.33 1
19 -10 -1 33430.5 1363.8 3
-9 19 -1 32405.3 499.578 2
-9 19 -1 33619.5 1223.1 4
-10 -9 2 81075.5 2136.04 2
-9 19 2 81981.4 2252.44 4
19 -10 2 83255.1 1827.61 4
-9 19 2 81616.9 1883.58 2
-10 -9 2 83919.3 2034.57 1
19 -10 2 87583.9 2370.61 3
19 -10 2 82324 1778.54 1
-9 19 5 44879.4 2009.99 4
-10 -9 5 48865.6 2080.37 1
19 -10 5 43187.2 1128.11 4
-10 -9 5 43763.3 1777.49 4
19 -10 5 49247 1938.66 3
19 -10 5 47605.9 1515.76 1
-10 -9 5 46499 1719.1 2
-9 19 5 48970.4 1947.67 2
19 -10 8 37954.8 2026.29 2
-10 -9 8 38272.2 2365.91 1
-9 19 8 40992.6 2260.22 4
-9 19 8 37443.4 2146.91 2
-10 -9 8 38030.5 1826.31 4
19 -10 8 34351.1 1622.69 1
19 -10 8 36971.2 1891 3
-10 -9 8 34383.9 1675.06 2
19 -10 11 -247.173 947.933 2
-9 19 11 1647.14 1167.74 4
-10 -9 11 -788.222 1291.33 1
-9 19 11 1521.94 1072.05 2
-10 -9 11 423.723 784.142 4
19 -10 11 339.406 828.066 3
-10 -9 11 1158.25 830.969 2
-10 19 -5 29765.1 659.586 4
-10 19 -5 29669.3 650.504 4
19 -9 -5 31224.7 1135.33 3
-10 19 -2 100424 1863.72 4
-9 -10 -2 103534 1901.03 1
19 -9 -2 100877 2227.28 3
-10 19 1 27667.4 1281.6 4
19 -9 1 25384.3 1043.78 1
19 -9 1 23937.2 1148.17 4
-10 19 1 27238.9 964.138 2
-9 -10 1 28002 1126.54 1
19 -9 1 26544.1 1364.13 3
19 -9 4 103813 1978.7 1
-10 19 4 102498 2767.43 4
-9 -10 4 101426 2683.66 1
19 -9 4 99467.4 1866.1 4
-10 19 4 97487.8 2493.8 2
-9 -10 4 100464 2556.25 4
19 -9 4 106519 2756.78 3
-9 -10 4 104455 2383.78 2
19 -9 7 34325.9 1046.62 4
-9 -10 7 30238.6 1981.57 1
-10 19 7 34482.5 1974.37 4
-10 19 7 36098.7 1967.85 2
-9 -10 7 35041.4 1685.04 4
19 -9 7 37497.8 1843.36 3
19 -9 7 35387.6 1439.12 1
-9 -10 7 37001.4 1627.82 2
19 -9 10 24944.4 1981.8 2
-10 19 10 28366.9 2114.56 4
-10 19 10 20861.2 1905.16 2
-9 -10 10 25002.6 1665.03 4
19 -9 10 26519 1636.97 1
19 -9 10 31132.2 1889.74 3
-9 -10 10 25081.2 1631.55 2
-9 -10 10 34117.7 2525.65 1
19 -8 -6 19920.4 898.423 3
-11 19 -3 34492.3 971.08 4
-8 -11 -3 34768.6 1246.55 1
19 -8 -3 34087.1 1309.1 3
-11 19 0 63885.1 1716.51 4
-11 19 0 61227.7 1125.7 2
19 -8 0 60505.9 1643.72 1
19 -8 0 63176.6 1911.54 3
-8 -11 0 60241.5 1567.05 1
-8 -11 3 22920.9 1150.73 2
-11 19 3 23518.5 1355.79 4
19 -8 3 22660.1 1006.23 4
-8 -11 3 23253 1280.64 1
-11 19 3 22023.9 1133.17 2
19 -8 3 20637.2 820.103 1
19 -8 3 23677.5 1348.9 3
-11 19 6 14744.5 1335.64 4
-8 -11 6 13179.6 1329.11 1
-11 19 6 13776.5 1257.19 2
19 -8 6 13197.3 755.408 4
-8 -11 6 16397.6 1206.64 4
19 -8 6 14226.3 1207.61 3
19 -8 6 15490.4 932.718 1
-8 -11 6 14295.1 1048.62 2
19 -8 9 36130.4 2197.95 2
-8 -11 9 32376.6 2348.68 1
-11 19 9 35788.2 2242.81 4
-11 19 9 40032.5 2307.5 2
-8 -11 9 34881.6 1799.96 4
19 -8 9 36111.7 1724.03 1
19 -8 9 37471.5 1968.27 3
-8 -11 9 35940.8 1772.97 2
19 -7 -7 14665.6 779.47 3
-12 19 -4 7216.83 342.843 4
-12 19 -4 6435.78 332.395 4
19 -7 -4 7772.54 713.566 3
-7 -12 -4 8146.69 790.059 1
-7 -12 -1 21952.5 1060.61 1
-12 19 -1 23086.1 992.525 4
-12 19 -1 22641.7 547.107 2
-12 19 2 56754.5 1884.32 4
19 -7 2 55108.6 1614.83 4
19 -7 2 54338.6 1183.02 1
-12 19 2 58285.1 1574.11 2
-7 -12 2 61023.7 1851.2 1
19 -7 2 61260.1 2007.72 3
-12 19 5 11576.2 1154.55 4
-7 -12 5 10715.6 1130.08 1
-12 19 5 12753.4 1094.63 2
19 -7 5 10510.9 737.983 4
19 -7 5 12167.8 1131.55 3
-7 -12 5 10883.6 855.872 2
19 -7 5 12416.6 721.221 1
19 -7 8 16210.9 911.111 4
-12 19 8 19492.9 1622.16 4
-7 -12 8 19695.5 1733.95 1
-12 19 8 19491.2 1601.31 2
-7 -12 8 16934.6 1259.82 4
19 -7 8 17098 1105.93 1
19 -7 8 17076 1384.36 3
-7 -12 8 16004.7 1140.23 2
19 -7 11 772.053 1128.72 2
-12 19 11 554.327 968.172 4
-12 19 11 -364.692 1153.95 2
-7 -12 11 2111.65 1410.29 1
-7 -12 11 1505.5 779.527 4
19 -7 11 588.529 802.214 3
-7 -12 11 727.942 712.656 2
19 -6 -5 10423.6 773.45 3
-6 -13 -5 8646.25 936.327 1
-13 19 -2 196785 2410.17 4
19 -6 -2 198807 3188.02 3
-13 19 1 15266.5 999.708 4
-13 19 1 16139.4 766.556 2
19 -6 1 14104.2 1040.79 3
-6 -13 1 16003.7 1003.33 1
-6 -13 4 169853 2846.82 2
-13 19 4 173859 3575.36 4
19 -6 4 155595 1760.06 1
-6 -13 4 171806 3545.31 1
19 -6 4 159943 2682.19 4
-13 19 4 172982 3272.81 2
19 -6 4 178131 3574.62 3
19 -6 7 9093.91 796.529 4
-6 -13 7 9804.22 1329.93 1
-13 19 7 8577.92 1165.54 2
-6 -13 7 7030.24 913.768 4
19 -6 7 8631.14 748.608 1
19 -6 7 9107.63 1062.32 3
-6 -13 7 7793.74 821.976 2
19 -6 10 36093.9 2406.14 2
-6 -13 10 37953.4 2633.73 1
-13 19 10 39392.9 2445.05 4
-13 19 10 33448.4 2329.18 2
-6 -13 10 36319.6 1866.88 4
19 -6 10 37335.8 2036.43 3
-6 -13 10 37697.6 1840.13 2
19 -5 -6 17746.9 970.341 3
-14 19 -3 17355.3 621.199 4
19 -5 -3 17403.7 1016.84 3
-5 -14 -3 16533.8 1083.93 1
-14 19 0 29352.3 1183.4 4
19 -5 0 31685.6 1435.05 3
-14 19 0 30045 901.353 2
-5 -14 0 29170.6 1305.14 1
-14 19 3 53814.7 1936.73 4
-14 19 3 51511 1670.94 2
-5 -14 3 47417.7 1876.54 1
19 -5 3 51496.6 1916.67 3
-14 19 6 8814.45 1176.55 4
-5 -14 6 7053.02 1081.71 1
-14 19 6 8620.54 1058.21 2
19 -5 6 7164.34 967.758 3
19 -5 6 7463.87 554.84 1
-5 -14 6 7142.81 739.74 2
19 -5 9 6907.27 1285.62 2
-5 -14 9 10107.7 1493.91 1
-14 19 9 10529.4 1393.14 2
-14 19 9 8904.01 1362.74 4
-5 -14 9 6685.58 923.621 4
19 -5 9 9456.49 1194.11 3
-5 -14 9 9560.13 969.29 2
19 -4 -7 4738.13 665.39 3
-4 -15 -4 1273.36 676.308 1
19 -4 -4 1817.36 552.779 3
-4 -15 -1 5205.93 759.931 1
-15 19 -1 5899.68 573.277 4
19 -4 -1 5316.8 723.76 3
-15 19 -1 5856.63 437.604 2
-15 19 2 6883.57 810.463 4
-15 19 2 5712.85 638.581 2
-4 -15 2 6605.57 836.407 1
19 -4 2 6333.74 858.751 3
-15 19 5 27603.2 1630.58 4
19 -4 5 22641.1 543.468 1
-4 -15 5 27878.2 1684.95 1
-15 19 5 30060.6 1569.87 2
19 -4 5 28891.7 1576.83 3
-4 -15 5 27307.7 1147.83 2
19 -4 8 2327.15 621.754 4
-15 19 8 1282.55 874.665 4
-4 -15 8 3785.03 1099.77 1
-15 19 8 4056.21 1013.02 2
19 -4 8 3013.9 584.047 1
19 -4 8 3012.86 919.527 3
-4 -15 8 2272.71 583.99 2
19 -4 11 3406.89 1354.33 2
-15 19 11 4263.17 1217.21 4
-4 -15 11 5504 1575.34 1
-15 19 11 5059.02 1378.6 2
19 -4 11 5682.51 1153.17 3
19 -3 -8 88473.7 2129.56 3
-3 -16 -5 2419.45 858.46 1
19 -3 -5 2361.05 593.841 3
-16 19 -2 171811 2203.13 4
19 -3 -2 177452 3165.04 3
-3 -16 1 3478.84 701.453 1
-16 19 1 1855.3 542.748 4
19 -3 1 4602.86 799.319 3
-16 19 1 3242.5 472.527 2
-16 19 4 128985 3152.12 4
-3 -16 4 126492 3195.99 1
-16 19 4 125170 2863.38 2
19 -3 4 130800 3162.99 3
-16 19 7 1901.81 930.58 4
-16 19 7 377.618 767.775 2
19 -3 7 -370.968 752.8 3
19 -3 7 1146.06 368.857 1
-3 -16 7 807.583 480.153 2
19 -3 10 64899.5 3222.93 2
-16 19 10 69143.6 3151.32 4
-3 -16 10 70647.6 3426.81 1
-16 19 10 61882.5 3025.89 2
19 -3 10 67401.3 2677.78 3
-2 -17 -6 5077.55 992.533 1
19 -2 -6 6387.74 776.477 3
-17 19 -3 27559.3 723.432 4
19 -2 -3 29593.3 1364.26 3
-2 -17 -3 26454.5 1505.06 1
-2 -17 0 2890.08 727.766 1
-17 19 0 2987.19 552.435 4
19 -2 0 2288.94 664.534 3
-17 19 0 1903.76 387.958 2
-17 19 3 48520.2 1895.34 4
-17 19 3 53745.5 1753.5 2
-2 -17 3 51847.6 2043.8 1
-17 19 6 9360.81 1183.05 4
-17 19 6 8237.82 1066.19 2
-2 -17 6 7573.13 1157.24 1
19 -2 6 8498.64 1055.42 3
-2 -17 6 7831.53 698.415 2
19 -2 9 -245.315 1002.56 2
19 -2 9 2012.94 711.844 4
-17 19 9 2493.43 962.605 4
-2 -17 9 1466.17 1042.39 1
-17 19 9 1415.1 999.924 2
19 -2 9 1362.96 796.016 3
-2 -17 9 2139.99 605.368 2
19 -1 -7 1904.25 668.73 3
-1 -18 -7 1418.52 855.376 1
19 -1 -4 4322.32 734.097 3
-1 -18 -4 4261.09 909.03 1
-18 19 -1 13263.1 777.851 4
19 -1 -1 12959.9 1068.14 3
-1 -18 -1 11632.1 1117.78 1
-18 19 -1 13027.1 740.837 2
-18 19 2 4074.78 715 4
-18 19 2 5002.11 635.68 2
19 -1 2 4252.92 764.746 3
-1 -18 2 4763.34 814.296 1
-18 19 5 3568.01 808.088 2
-1 -18 5 2183.69 834.003 1
-18 19 5 2794.44 783.846 4
19 -1 5 2985.49 819.656 3
19 -1 8 126.757 649.203 4
-18 19 8 457.34 839.182 4
-1 -18 8 -501.896 1001.82 1
-18 19 8 77.6304 835.692 2
19 -1 8 -484.927 734.256 3
-1 -18 8 696.728 490.192 2
19 0 -8 78137.2 2377.31 3
0 -19 -5 3397.06 960.639 1
19 0 -5 2033.37 732.247 3
-19 19 -2 73245.7 1493.96 4
19 0 -2 75046.5 2229.82 3
-19 19 1 480.843 530.689 4
19 0 1 1585.28 715.407 3
-19 19 1 761.114 480.104 2
-19 19 4 38257.7 1826.66 4
-19 19 4 35044.3 1605.13 2
0 -19 4 36196.9 1877.09 1
19 0 4 40758.7 1890.36 3
0 -19 7 2963.72 516.489 2
-19 19 7 3904.94 1058.15 4
0 -19 7 4152.32 1152.37 1
-19 19 7 2555.1 932.711 2
19 0 7 3048.65 907.05 3
19 0 10 24106.8 2170.54 2
-19 19 10 28305.9 2202.49 4
0 -19 10 26006.6 2308.48 1
-19 19 10 24939.6 2053.83 2
19 0 10 24985.6 1801.19 3
1 -20 -6 14979.4 1498.58 1
19 1 -6 12270.9 1054.39 3
-20 19 -3 8429.63 477.88 4
1 -20 -3 5976.27 1040.55 1
19 1 -3 7390.78 908.182 3
1 -20 0 20121.6 1406.19 1
-20 19 0 21953.1 1098.37 4
19 1 0 20356.7 1321.77 3
-20 19 0 20902.3 1047.06 2
-20 19 3 842.133 648.289 4
-20 19 3 510.817 554.507 2
19 1 3 1069.81 698.37 3
1 -20 3 1056.59 769.242 1
-20 19 6 29228.5 1840.01 4
1 -20 6 23445.6 1758.55 1
-20 19 6 25973.9 1655.17 2
19 1 6 23918.2 1582.93 3
19 1 9 2334.65 1144.77 2
19 1 9 2156.65 826.776 4
-20 19 9 1640.45 968.874 4
1 -20 9 2059.53 1239.32 1
-20 19 9 3840.91 1038.62 2
19 1 9 3393.49 981.603 3
19 2 -7 4007.18 874.795 3
2 -21 -7 5748.39 1267.08 1
2 -21 -4 9344.37 1247.92 1
19 2 -4 7971.98 978.643 3
-21 19 -1 15606.5 944.363 2
2 -21 -1 14710.4 1322.69 1
-21 19 -1 15191.1 870.758 4
19 2 -1 13288.2 1159.19 3
2 -21 2 1992.88 802.386 1
-21 19 2 4108.51 737.404 4
-21 19 2 4837.15 688.462 2
19 2 2 3904.07 845.456 3
-21 19 5 9841.12 1162.17 4
2 -21 5 8395.16 1238.45 1
-21 19 5 9780.56 1083.21 2
19 2 5 9063.71 1108.75 3
19 2 8 13713.7 1269.28 4
-21 19 8 14353 1527.16 4
2 -21 8 17494.7 1755.88 1
-21 19 8 17180.5 1570.68 2
19 2 8 18782.3 1509.76 3
19 3 -8 17485.2 1455.75 3
3 -22 -5 281.693 928.691 1
19 3 -5 1809.49 744.165 3
-22 19 -2 60695.7 1485.13 4
3 -22 -2 58173.3 2404.91 1
19 3 -2 62863.1 2212.66 3
3 -22 1 6646.45 1060.28 1
-22 19 1 4918.83 741.991 4
19 3 1 5477.15 943.51 3
-22 19 1 4591.72 698.825 2
-22 19 4 20014.8 1441.65 4
-22 19 4 18781.4 1297.13 2
3 -22 4 18764.4 1546.97 1
19 3 4 15297.5 1311.26 3
-22 19 7 2665.3 999.485 4
-22 19 7 766.808 882.656 2
3 -22 7 1012.83 972.305 1
19 3 7 721.249 778.261 3
19 3 10 17434.4 1957.27 2
19 3 10 16145.9 1499.31 4
3 -22 10 19890.2 2170.22 1
-22 19 10 19647.7 1993.78 4
-22 19 10 19070.8 1856.15 2
19 3 10 17832.5 1613.88 3
4 -23 -6 30440.1 2147.63 1
19 4 -6 29928.9 1695.04 3
4 -23 -3 3078.28 1021.49 1
-23 19 -3 3738.15 444.024 4
19 4 -3 3457.43 858.625 3
4 -23 0 44316.8 2165.69 1
-23 19 0 46174.9 1620.37 4
19 4 0 46694.9 2019.58 3
-23 19 0 45270.7 1648.69 2
4 -23 3 3258.98 1003.19 1
-23 19 3 3841.3 819.871 4
-23 19 3 3278.74 760.918 2
19 4 3 2474.03 813.062 3
-23 19 6 32525.1 1995.93 4
4 -23 6 30695.3 2039.96 1
-23 19 6 27567.8 1760.22 2
19 4 6 28411.9 1776.87 3
19 4 9 -383.254 1063.23 2
19 4 9 222.061 772.267 4
-23 19 9 400.265 1049.39 4
4 -23 9 481.142 1192.15 1
-23 19 9 1275.11 1050.1 2
19 4 9 656.837 829.86 3
5 -24 -7 13457.6 1786.71 1
19 5 -7 13017.8 1389.89 3
5 -24 -4 2930.22 1004.79 1
19 5 -4 4843.33 943.123 3
-24 19 -1 15019.6 1119.4 2
5 -24 -1 12222.8 1346.12 1
-24 19 -1 16666.6 974.928 4
19 5 -1 15096.4 1327.38 3
-24 19 2 48945.6 1957.65 4
19 5 2 47824.2 2174.25 3
-24 19 2 45442.2 1812.64 2
5 -24 2 45002.8 2205.5 1
-24 19 5 16796.3 1452.87 4
-24 19 5 17165.2 1400.24 2
5 -24 5 16920.7 1576.84 1
19 5 5 14951.2 1418.97 3
19 5 8 7151.93 1136.29 4
-24 19 8 7171.76 1340.23 4
-24 19 8 7634.1 1283.47 2
5 -24 8 6790 1436.52 1
19 5 8 9413.34 1291.5 3
19 6 -8 16760.3 1591.31 3
6 -25 -8 15546.8 2000.45 1
6 -25 -5 -681.638 1059.79 1
19 6 -5 57.8343 757.189 3
6 -25 -2 4812.14 1140.69 1
-25 19 -2 4719.44 586.146 4
19 6 -2 4956.58 993.869 3
6 -25 1 1149.63 966.797 1
-25 19 1 787.549 578.23 4
19 6 1 232.227 771.17 3
-25 19 1 532.542 576.61 2
-25 19 4 11839.4 1227 4
-25 19 4 11442.7 1137.96 2
19 6 4 10633.6 1242.3 3
6 -25 4 11102.5 1383.8 1
-25 19 7 377.86 869.866 4
-25 19 7 -102.965 772.106 2
6 -25 7 2009.03 1214.11 1
19 6 7 -51.6328 834.554 3
7 -26 -6 22607.8 2103.8 1
19 7 -6 22873.4 1697.96 3
-26 19 -3 12582.3 787.188 4
7 -26 -3 12040.3 1484.48 1
19 7 -3 9651.32 1256.41 3
-26 19 0 39632.3 1734.46 2
7 -26 0 35757 2167 1
-26 19 0 37437.7 1574.24 4
19 7 0 38913.6 2000.19 3
7 -26 3 2155.38 1011.44 1
-26 19 3 2567.25 791.198 4
19 7 3 2881.26 916.652 3
-26 19 3 3182.08 847.52 2
-26 19 6 50066.2 2464.36 4
-26 19 6 42626.4 2207.66 2
7 -26 6 46604.3 2530.38 1
19 7 6 50951.8 2450.36 3
19 7 9 1743.58 1372.89 2
19 8 -7 7877.63 1371.33 3
8 -27 -7 9730.13 1755.6 1
8 -27 -4 10948.3 1548.83 1
19 8 -4 13728.3 1401.36 3
-27 19 -1 13540.5 1220.64 2
8 -27 -1 10767.7 1447.3 1
-27 19 -1 14733.3 1035.55 4
19 8 -1 15451.1 1463.38 3
8 -27 2 6612.35 1241.37 1
-27 19 2 5124.88 909.11 4
19 8 2 7886.41 1222.35 3
-27 19 2 7540.29 1013.29 2
8 -27 5 7361.59 1333.71 1
-27 19 5 7241.37 1169.14 4
-27 19 5 7686.14 1129.71 2
19 8 5 8995.95 1231.58 3
-27 19 8 1979.77 1123 4
-27 19 8 2060.62 966.384 2
19 8 8 842.975 884.106 4
8 -27 8 2798.8 1290.97 1
19 8 8 2614.32 1033.61 3
19 9 -8 5156.7 1293.9 3
9 -28 -8 3518.94 1561.3 1
19 9 -5 -586.708 959.713 3
9 -28 -5 516.115 1078.94 1
9 -28 -2 3555.93 1094.45 1
-28 19 -2 4808.81 682.852 4
-28 19 1 8396.09 973.026 4
9 -28 1 7069.25 1305.69 1
19 9 1 6640.63 1193.08 3
-28 19 1 5810.8 968.811 2
9 -28 4 4225.09 1138.56 1
-28 19 4 4253.47 972.997 4
-28 19 4 4624.13 956.327 2
19 9 4 5994.96 1130.48 3
-28 19 7 1321.57 1042.17 4
-28 19 7 286.741 925.46 2
19 9 7 553.643 903.9 3
9 -28 7 -1012.09 1069.12 1
10 -29 -6 18623.7 2155.55 1
19 10 -6 15779.7 1685.85 3
10 -29 -3 5112.1 1313.15 1
-29 19 -3 6440.69 714.54 4
19 10 -3 8610.98 1278.57 3
-29 19 0 36711.6 1904.96 2
10 -29 0 41889.6 2470.89 1
-29 19 0 39441.5 1754.26 4
10 -29 3 1841.96 1154.46 1
-29 19 3 4957.11 1047.93 4
19 10 3 5843.8 1205.48 3
-29 19 3 4944.37 1035.64 2
-29 19 6 21100.5 1809.24 4
-29 19 6 22598.4 1804.83 2
10 -29 6 19022.7 1970.68 1
19 10 6 22007.5 1821.24 3
19 11 -7 6052.67 1421.34 3
11 -30 -7 5809.69 1612.21 1
11 -30 -4 7120.08 1552.41 1
19 11 -4 8259.65 1369.83 3
-30 19 -1 2694.28 653.108 4
11 -30 -1 2812.3 1140.61 1
19 11 -1 3230.43 1064.62 3
-30 19 2 765.879 787.672 2
11 -30 2 935.672 1102.94 1
-30 19 2 3265.46 870.337 4
19 11 2 4287.32 1128.35 3
11 -30 5 3155.55 1219.47 1
-30 19 5 4002.96 1076.26 4
-30 19 5 1522.95 933.468 2
19 11 5 2347.3 1042.15 3
19 12 -5 996.204 1065.42 3
12 -31 -5 711.07 1240.26 1
-31 19 -2 8684.91 901.191 4
19 12 -2 9816.18 1435.35 3
-31 19 1 2012.23 899.087 2
-31 19 1 1417.34 758.002 4
12 -31 1 165.593 1086.16 1
19 12 1 1910.09 1098.37 3
12 -31 4 1141.83 1088.81 1
-31 19 4 1914.71 876.187 4
19 12 4 3061.47 1134.81 3
-31 19 4 2017.61 960.872 2
19 13 -6 13120.6 1777.19 3
13 -32 -6 10475.4 1920.82 1
19 13 -3 1166.29 1124.7 3
13 -32 -3 2715.38 1269.45 1
-32 19 0 17492.3 1566.65 2
13 -32 0 17735 1908.36 1
-32 19 0 19401.6 1403.17 4
19 13 0 23470.3 1977.5 3
13 -32 3 4251.79 1335.34 1
-32 19 3 6336.97 1127.71 4
19 13 3 7282.64 1397.5 3
-32 19 3 7985.89 1233.76 2
13 -32 6 9064 1735.19 1
-32 19 6 10438.4 1503.75 2
19 13 6 10979.3 1612.32 3
19 14 -4 3829.69 1308.25 3
14 -33 -4 4136.06 1478.34 1
14 -33 -1 5149.6 1430.88 1
-33 19 -1 4895.16 880.39 4
19 14 -1 4470.64 1319.7 3
-33 19 2 4019.28 1112.36 2
-33 19 2 5469.15 1028.36 4
14 -33 2 4017.08 1400.61 1
19 14 2 5683.31 1294.74 3
14 -33 5 1710.15 1244.75 1
-33 19 5 741.92 958.753 4
19 14 5 1116.78 1046.78 3
-33 19 5 -242.235 949.097 2
19 15 -2 3258.6 1377.53 3
15 -34 -2 2990.57 1432.83 1
-34 19 -2 2229.82 755.599 4
-34 19 1 1393.13 873.092 2
-34 19 1 136.79 750.804 4
19 15 1 1864.72 1223.91 3
-34 19 4 6734.07 1302.31 2
15 -34 4 4275.06 1481.21 1
-34 19 4 5527.94 1211.61 4
19 15 4 6127.36 1396.92 3
19 16 -3 2236.31 1309.89 3
16 -35 -3 449.156 1314.98 1
-35 19 0 9097.03 1214.99 4
16 -35 0 9281.3 1800.26 1
19 16 0 9226.38 1666.12 3
-35 19 3 -1081.19 1011.18 2
-35 19 3 -405.395 924.977 4
16 -35 3 897.319 1335.83 1
19 16 3 -298.91 1089.2 3
19 17 -1 1467.9 1268.58 3
-36 19 -1 327.842 731.931 4
17 -36 -1 2243.4 1476.69 1
-36 19 2 4209.28 1192.1 2
-36 19 2 5458.39 1164.58 4
17 -36 2 3149.67 1545.49 1
19 17 2 4754.57 1460.78 3
16 20 -1 1479.71 1347.25 3
20 -36 -1 82.1832 1353.73 1
-36 16 -1 115.478 746.741 4
16 20 2 690.994 1318.99 3
-36 16 2 1874.29 1109.56 2
-36 16 2 2322.85 986.44 4
20 -36 2 870.661 1395.04 1
15 20 -2 582.269 1213.23 3
20 -35 -2 -316.679 1405.19 1
15 20 1 3846.96 1444.81 3
-35 15 1 4595.25 1289.88 2
-35 15 1 4657.2 1080.89 4
20 -35 1 4552.31 1495.2 1
14 20 -3 8400.79 1680.05 3
20 -34 -3 2403.19 1371.92 1
20 -34 0 3862.68 1518.67 1
14 20 0 5745.32 1478.46 3
-34 14 0 5901.87 1058.02 4
-34 14 3 7765.28 1394.84 2
-34 14 3 7086.78 1255.01 4
20 -34 3 7080.08 1617.57 1
14 20 3 9129.59 1667.46 3
13 20 -4 2292.86 1485.26 3
20 -33 -4 1466.25 1218.74 1
13 20 -1 3004.05 1345.06 3
20 -33 -1 -329.018 1195.51 1
-33 13 -1 784.168 764.502 4
13 20 2 6730.28 1490.77 3
-33 13 2 4797.78 1157.85 2
-33 13 2 4646.05 1032.57 4
20 -33 2 3757.89 1354.27 1
13 20 5 1523.02 1221.36 3
-33 13 5 801.652 1040.64 2
20 -33 5 1041.25 1282.77 1
-33 13 5 1907.54 1056.64 4
12 20 -5 5893.32 1593.23 3
20 -32 -5 2275.72 1350.05 1
12 20 -2 11495 1754.03 3
20 -32 -2 7557.06 1640.6 1
12 20 1 3519.22 1257.41 3
-32 12 1 355.613 864.269 2
-32 12 1 2709.24 918.717 4
20 -32 1 3593.61 1345.06 1
12 20 4 3523.77 1235.46 3
-32 12 4 2797.76 1043.72 2
20 -32 4 4059.85 1357.02 1
-32 12 4 5506.09 1149.69 4
11 20 -6 5365.54 1671.6 3
20 -31 -6 3247.02 1451.18 1
11 20 -3 9578.25 1694.45 3
20 -31 -3 8846.65 1720.72 1
11 20 0 7286.68 1479.57 3
-31 11 0 9436.7 1149.91 4
20 -31 0 5139.29 1340.69 1
-31 11 3 5554.29 1139.87 2
-31 11 3 6936.77 1170.69 4
20 -31 3 6895.36 1426.49 1
11 20 3 8645.09 1453.41 3
11 20 6 4033.19 1370.57 3
11 20 6 3008.99 1161.43 4
11 20 6 5089 1336.58 2
20 -31 6 5280.61 1387.95 1
-31 11 6 3193.6 1149.41 4
-31 11 6 5586.24 1336.87 2
10 20 -7 -983.401 1324.78 3
20 -30 -7 722.853 1371.05 1
10 20 -4 1488.36 1358.07 3
20 -30 -4 2717.38 1314.55 1
10 20 -1 714.819 1066.47 3
20 -30 -1 1333.17 1122.08 1
-30 10 -1 963.587 720.396 4
10 20 2 4600.9 1305.09 3
-30 10 2 4146.25 1112.91 2
-30 10 2 5184.32 1031.82 4
20 -30 2 5989.45 1392.59 1
10 20 5 1855.41 1142.7 3
20 -30 5 722.413 982.766 1
-30 10 5 -344.039 857.135 4
-30 10 5 1634.63 982.935 2
9 20 -5 12574.6 1801.19 3
20 -29 -5 10026.2 1772.49 1
9 20 -2 20160.2 1934.88 3
20 -29 -2 19277.6 1934.82 1
-29 9 1 9120.78 1195.6 2
20 -29 1 9095.81 1462.35 1
-29 9 1 9337.91 1096.91 4
9 20 1 10077.5 1469.92 3
20 -29 4 22974.6 1962.51 1
-29 9 4 20756.1 1676.21 4
-29 9 4 20679.8 1690.39 2
9 20 4 24169.8 1960.37 3
9 20 7 3288.09 1273.33 3
20 -29 7 5682.29 1431.96 1
9 20 7 6259.97 1407.9 4
9 20 7 5793.53 1405.18 2
-29 9 7 4802.11 1248.19 4
-29 9 7 5137.31 1162.94 2
20 -28 -6 2501.74 1499.04 1
8 20 -6 4681.13 1446.16 3
8 20 -3 20436.9 1978.17 3
20 -28 -3 18842.7 1967.86 1
-28 8 0 10846.4 1131.16 4
20 -28 0 13159.1 1625.18 1
8 20 0 12695.9 1616.93 3
20 -28 3 17045.2 1721.08 1
-28 8 3 14853.7 1422.67 4
8 20 3 16015.9 1688.95 3
-28 8 3 13434.5 1458.78 2
8 20 6 6326.75 1317.48 3
20 -28 6 4488.26 1275.51 1
8 20 6 7072.07 1414.02 2
-28 8 6 8440.45 1325.96 4
8 20 6 5336.3 1164.09 4
-28 8 6 6855.08 1278.58 2
20 -27 -7 6490.38 1633.48 1
7 20 -4 5074.78 1402.14 3
20 -27 -4 3329.38 1234.56 1
7 20 -1 6606.94 1390.21 3
20 -27 -1 6757.02 1260.57 1
-27 7 -1 5560.75 855.914 4
7 20 2 4788.49 1156.04 3
-27 7 2 4972.26 1084.37 2
-27 7 2 5515.31 936.939 4
20 -27 2 4338.83 1186.66 1
7 20 5 5961.89 1194.87 3
20 -27 5 6199.81 1251.51 1
-27 7 5 5522.03 1094.36 4
7 20 5 5454.9 1171.74 2
-27 7 5 6574.08 1161.13 2
7 20 8 1750.31 1147.68 3
20 -27 8 224.859 1066.16 1
7 20 8 2473.49 1176.26 4
7 20 8 3148.08 1260.23 2
-27 7 8 2291.17 1056.61 4
-27 7 8 1585.55 973.035 2
6 20 -5 2640.58 1403.97 3
20 -26 -5 3465.24 1286.2 1
6 20 -2 23803.3 1975.82 3
20 -26 -2 24175.3 1954.35 1
6 20 1 7297 1336.93 3
-26 6 1 5554.27 1097 2
-26 6 1 5689.39 944.835 4
20 -26 1 4211.29 1181.93 1
20 -26 4 18644.4 1713.7 1
-26 6 4 22582.2 1651.1 4
-26 6 4 21034.4 1593.39 2
6 20 4 21217.8 1812.9 3
6 20 7 5145.89 1186.2 3
20 -26 7 5987.32 1319.35 1
6 20 7 5855.07 1232.65 4
6 20 7 6430.6 1414.69 2
-26 6 7 10328.5 1406.04 4
-26 6 7 8365.97 1304.51 2
5 20 -6 7260.27 1500.17 3
20 -25 -6 4160.23 1411.58 1
5 20 -3 24927.1 2017.17 3
20 -25 -3 18489.6 1797.72 1
5 20 0 10934.8 1495.53 3
-25 5 0 9971.32 1077.14 4
20 -25 0 8977.73 1331.69 1
20 -25 3 28666.6 1940.18 1
-25 5 3 29816.1 1763.37 4
-25 5 3 24939.4 1682.83 2
5 20 3 28468.3 1911.91 3
5 20 6 6190.8 1277.7 3
20 -25 6 7295.89 1244.33 1
5 20 6 7761.86 1312.75 2
5 20 6 9620.96 1336.58 4
-25 5 6 6705.73 1184.37 4
-25 5 6 8261.08 1192.06 2
5 20 9 15367.6 1706.47 3
5 20 9 16831 1787.95 4
5 20 9 16648.6 1990.22 2
-25 5 9 17683.1 1828.88 4
20 -25 9 11332.5 1588.95 1
-25 5 9 14190.8 1705.37 2
20 -24 -7 12209 1965.03 1
4 20 -4 15086 1708.16 3
20 -24 -4 12449.8 1613.97 1
4 20 -1 14682.3 1686.19 3
20 -24 -1 16513.8 1559.46 1
4 20 2 6334.49 1253.2 3
-24 4 2 4661.41 913.639 2
-24 4 2 5336.8 938.073 4
20 -24 2 5917.03 1128.51 1
4 20 5 17949.2 1582.98 4
4 20 5 16544 1520.13 2
-24 4 5 13191.5 1430.01 4
-24 4 5 16837.1 1479.45 2
20 -24 5 16671.4 1534.95 1
4 20 5 16837 1599.7 3
4 20 8 6860.26 1251.5 3
4 20 8 8615.55 1392.42 4
4 20 8 8470.63 1550.9 2
-24 4 8 9105.39 1360.46 4
-24 4 8 9344.96 1372.58 2
20 -24 8 6560.73 1291.92 1
3 20 -5 1577.9 1219.1 3
20 -23 -5 3242.54 1273.24 1
3 20 -2 34049 2224.48 3
20 -23 -2 28968.3 1999.89 1
-23 3 1 381.821 438.389 1
3 20 1 919.904 1017.66 3
-23 3 1 -292.11 807.941 2
20 -23 1 -180.188 411.413 2
-23 3 1 1067.4 666.074 4
20 -23 1 634.288 823.632 1
-23 3 4 6018.64 990.559 2
3 20 4 4959.35 1128.04 3
3 20 4 6939.94 1098.47 4
3 20 4 6244.61 1061.49 2
20 -23 4 5520.03 1082.8 1
-23 3 4 5551.35 994.677 4
20 -23 4 3975.65 332.926 2
20 -23 7 -13.5822 910.519 1
3 20 7 745.449 947.401 3
3 20 7 649.072 908.655 4
3 20 7 792.384 1076.91 2
-23 3 7 -16.6195 811.943 4
-23 3 7 1244.33 840.952 2
20 -22 -6 854.992 1117.13 1
20 -22 -6 2993.29 570.083 3
2 20 -3 17769.4 1745.51 3
20 -22 -3 18539.2 1703.83 1
2 20 -3 18241.3 937.197 2
2 20 0 11044.4 1474.42 3
-22 2 0 9640.81 477.076 1
-22 2 0 10479.9 508.072 1
20 -22 0 9313.02 807.267 2
-22 2 0 11054.5 1057.44 4
20 -22 0 11371.8 1286.35 1
2 20 3 12601.2 1387.31 3
2 20 3 12467.8 1213.85 2
20 -22 3 14756 1385.72 1
20 -22 3 10557.2 599.824 2
-22 2 3 14082.6 1232.89 4
-22 2 3 10772.2 1145.74 2
2 20 6 4339.1 1046.99 3
20 -22 6 4794.29 1064.51 1
2 20 6 4115.99 1001.77 4
2 20 6 3479.3 1070.48 2
-22 2 6 4091.09 989.852 4
-22 2 6 4649.02 927.312 2
2 20 9 11399.5 1676.77 2
-22 2 9 10712 1469.41 4
20 -22 9 6834.59 1265.38 3
20 -22 9 7681.09 1383.18 1
2 20 9 7787.05 1440.37 4
-22 2 9 8870.05 1301.08 2
1 20 -4 7590.33 653.11 2
20 -21 -4 9365.76 1409.83 1
1 20 -1 57362.5 1587.62 2
20 -21 -1 58146.6 2445.37 1
-21 1 2 9766.02 1140.62 2
1 20 2 8738.49 1320.39 3
20 -21 2 7423.32 686.783 4
20 -21 2 8736.08 1168.82 1
20 -21 2 6733.43 612.359 2
-21 1 2 7243.7 934.897 4
-21 1 2 7673.8 824.672 1
1 20 5 33482.4 1918.43 3
20 -21 5 30066 1064.72 2
1 20 5 35834.9 2021.79 4
1 20 5 38434.5 2024.78 2
-21 1 5 35788.9 1910.8 4
-21 1 5 34693.8 1868.58 2
20 -21 5 37114.6 2000.4 1
1 20 8 19224.7 1599.73 3
1 20 8 21235.2 1820.31 4
1 20 8 20451.3 1855.79 2
-21 1 8 24420.8 1841.62 4
20 -21 8 22283.8 1761.12 3
20 -21 8 22430.8 1780.88 1
-21 1 8 21920.1 1738.78 2
20 -20 -5 1137.88 1058.57 1
20 -20 -5 1470.83 554.206 3
0 20 -2 24895.9 1865.28 3
20 -20 -2 23017.2 1711.09 1
0 20 -2 20269.4 894.466 2
-20 0 1 2738.72 491.554 1
0 20 1 3106.7 1177.25 3
-20 0 1 1577.72 742.235 2
20 -20 1 1897.99 510.441 4
20 -20 1 2051.65 504.237 2
-20 0 1 1361.02 690.902 4
-20 0 1 2803.12 466.675 1
0 20 4 17425.9 1501.98 3
20 -20 4 15011.2 1329.73 1
0 20 4 16772.5 1400.77 4
-20 0 4 15526.1 1317.17 4
20 -20 4 13681.6 725.884 2
0 20 4 15887.6 1354.65 2
-20 0 4 16671.3 1360.02 2
0 20 7 1417.13 968.036 3
0 20 7 954.454 927.764 4
20 -20 7 552.03 519.534 2
0 20 7 1402.3 1005.85 2
-20 0 7 106.564 756.932 4
20 -20 7 346.203 806.528 3
-20 0 7 932.885 757.323 2
20 -20 7 1143.02 885.608 1
0 20 10 30990.5 2305.92 4
0 20 10 31622.4 2420.61 2
-20 0 10 27597.1 2030.61 4
20 -20 10 31239.1 2108.05 3
20 -20 10 26108.6 2005.9 1
-20 0 10 30955.2 2136.31 2
20 -19 -6 25487.8 1053.33 3
20 -19 -6 29476.6 2214.11 1
-1 20 -3 2758.47 1188.5 3
-1 20 -3 2264.81 365.256 2
20 -19 -3 2528.64 602.729 3
20 -19 -3 3501.32 1031.93 1
-1 20 0 18573 949.245 2
-1 20 0 22058.7 1742.23 3
-19 -1 0 18492.1 591.294 1
20 -19 0 19730.1 1072.78 2
20 -19 0 22487.5 1498.86 1
-19 -1 0 19800.7 635.201 1
-1 20 3 8766.1 1258.1 3
20 -19 3 7754.48 545.004 4
-1 20 3 5786.47 938.592 4
20 -19 3 6326.71 1024.18 1
-1 20 3 9320.13 1053.95 2
-19 -1 3 8094.63 990.762 4
20 -19 3 7312.98 622.684 2
-19 -1 3 7539.78 978.052 2
-1 20 6 15255.3 1381.22 3
20 -19 6 13257.1 938.944 2
-1 20 6 13171.7 1335.19 4
-1 20 6 12422.2 1433.46 2
-19 -1 6 12493.3 1262.58 4
20 -19 6 13065.4 1319.97 3
-19 -1 6 13275 1263.2 2
20 -19 6 12404.8 1230.44 1
-1 20 9 6011.09 1260.02 4
-1 20 9 4712.38 1218.91 2
-19 -1 9 5194.65 1158.48 4
20 -19 9 6438.97 1196.73 3
-19 -1 9 5900.27 1150.6 2
20 -19 9 4479.49 1116.03 1
20 -18 -7 56368.5 1245.05 3
-2 20 -4 8440.27 482.916 2
20 -18 -4 9742.6 1338.02 1
20 -18 -4 10331.4 862.183 3
20 -18 -1 118520 3164.71 1
-2 20 -1 109038 1858.48 2
-18 -2 2 29560.8 1594.47 2
-2 20 2 29249.3 1851.56 3
-18 -2 2 29334.6 1225.84 1
-2 20 2 29454.3 1385.61 2
20 -18 2 27361.2 1051.68 4
-2 20 2 28541 1582.68 4
20 -18 2 28088.9 1587.25 1
-18 -2 2 27918.5 1354.07 1
-18 -2 2 33129 1616.04 4
20 -18 2 24757.8 1063.15 2
-2 20 5 42158.5 2066.49 3
-2 20 5 38816.4 1970.9 4
-2 20 5 43384.8 2043.1 2
-18 -2 5 40888.8 1956.5 4
20 -18 5 43409.5 2030.23 3
20 -18 5 35518.4 1284.85 2
-18 -2 5 39953.2 1902.7 2
20 -18 5 39278.7 1863.3 1
-2 20 8 26005.5 1655.16 3
20 -18 8 25560.3 1439.68 2
-2 20 8 31074.7 2092.9 2
-18 -2 8 21301.3 1654.52 4
20 -18 8 25435.4 1773.04 3
-2 20 8 28455.9 2016.34 4
20 -18 8 25309.4 1702.5 1
-18 -2 8 27522.1 1779.6 2
-3 20 -5 1395.2 233.117 2
20 -17 -5 2078.06 491.719 3
-3 20 -2 5485.84 1219.45 3
20 -17 -2 3843.2 898.133 1
20 -17 -2 4810.59 725.901 3
-3 20 -2 3590.6 330.187 2
-3 20 1 10227.7 1309.06 3
-17 -3 1 9950.16 1011.28 2
-3 20 1 10770.6 812.876 2
20 -17 1 11602.4 824.587 4
-17 -3 1 11484.2 682.258 1
-17 -3 1 11733.6 1033.23 4
20 -17 1 10071.3 787.707 2
20 -17 1 12386.2 1111.38 1
20 -17 4 20546 1383 1
-3 20 4 21757.8 1485.86 4
-3 20 4 22627.3 1581.27 3
-3 20 4 22221.2 1426.64 2
-17 -3 4 21473.2 1390.6 4
20 -17 4 22031.4 1477.81 3
20 -17 4 16097.3 904.995 2
-17 -3 4 18555.9 1336.77 2
-3 20 7 8501.73 1123.52 3
20 -17 7 5467.95 842.681 2
-3 20 7 10182.8 1326.51 4
-3 20 7 9094.88 1306.11 2
-17 -3 7 6336.02 1039.09 4
20 -17 7 6328.73 1051.16 3
20 -17 7 6609.51 1048.49 1
-17 -3 7 8486.45 1067.71 2
-3 20 10 8140.19 1480.53 4
-3 20 10 9753.94 1541.84 2
-17 -3 10 7243.51 1203.95 4
20 -17 10 6730.73 1190.12 3
20 -17 10 8613.58 1269.94 1
-17 -3 10 9853.58 1319.22 2
20 -16 -6 80118.8 1669.85 3
20 -16 -3 1856.16 567.11 3
20 -16 -3 2524.75 919.295 1
-4 20 0 44782.2 2156.6 3
-4 20 0 47991 1298.66 2
20 -16 0 42847.1 1667.95 3
-16 -4 0 44381 970.262 1
20 -16 0 50315.8 1923.42 1
-16 -4 3 350.8 601.736 2
-4 20 3 1489.51 1012.45 3
-4 20 3 650.066 666.945 4
20 -16 3 1247.96 343.982 4
-4 20 3 600.071 600.847 2
20 -16 3 1316.49 669.151 1
-16 -4 3 1285.46 662.059 4
20 -16 3 1323.6 687.306 3
20 -16 3 293.982 388.6 2
-16 -4 3 669.361 556.117 1
-4 20 6 28476.2 1667.12 3
-4 20 6 27352 1832.17 4
-4 20 6 32357.3 1872.36 2
-16 -4 6 26682.1 1606.94 4
20 -16 6 30866.2 1785.46 3
20 -16 6 25978.9 1511.9 1
-16 -4 6 30274.4 1646.26 2
-4 20 9 1608.34 1063.41 4
20 -16 9 3031.07 852.841 2
-4 20 9 2909.27 1127.94 2
-16 -4 9 2324.95 889.82 4
20 -16 9 2310.14 942.396 3
20 -16 9 903.771 815.457 1
-16 -4 9 1696.66 852.565 2
20 -15 -7 64726.7 1221.28 3
20 -15 -4 4200.15 1052.76 1
-5 20 -4 4180.78 587.077 4
20 -15 -4 5336.77 634.849 3
-5 20 -1 65381.4 1187.88 2
-15 -5 -1 61954.9 831.028 1
20 -15 -1 65390.9 1995.85 3
-5 20 -1 64909.1 1127.66 2
-15 -5 2 38448.6 1682.85 2
-5 20 2 34297.8 1827.45 3
-5 20 2 33949.7 1611.65 4
-5 20 2 35000.7 1380.62 2
20 -15 2 33135.2 1145.97 4
-15 -5 2 36502 1345.73 1
20 -15 2 32093.2 1505.41 1
-15 -5 2 39459.5 1713.86 4
20 -15 2 37629.2 1660.83 3
20 -15 2 31071 1240.05 2
-5 20 5 48620.7 2009.45 3
-5 20 5 45855.3 2118.46 4
-15 -5 5 47565.8 2102.41 1
-5 20 5 51036.7 2102.94 2
-15 -5 5 46397.9 1955.45 4
20 -15 5 47445.2 2040.8 3
-15 -5 5 44415.8 1876.78 2
20 -15 5 45409.1 1815.42 1
20 -15 8 28484.9 1659.77 2
-5 20 8 26306.9 1903.33 4
-5 20 8 27913.7 1943.11 2
-15 -5 8 25322 1684.9 4
20 -15 8 25733.3 1721.83 3
20 -15 8 25546 1592.31 1
-15 -5 8 30106.5 1760.61 2
-6 20 -5 18824.8 896.284 4
20 -14 -5 19477.9 937.383 3
20 -14 -2 31301.9 1354.75 3
20 -14 -2 31280.1 1664.98 1
-6 20 1 25303.2 1333.05 4
-6 20 1 23713.8 1015.48 2
20 -14 1 24176.2 1089.47 4
-14 -6 1 24014.3 970.21 1
20 -14 1 25950.9 1399.62 3
20 -14 1 24312.9 1280.03 1
20 -14 4 21673.1 1263.7 1
-6 20 4 24395.8 1541.98 3
-6 20 4 22320.9 1456.29 4
-14 -6 4 22290.5 1386.12 1
20 -14 4 20132.1 702.887 4
-6 20 4 20065.6 1280.31 2
-14 -6 4 20947.8 1337.78 4
20 -14 4 22613.7 1420.09 3
-14 -6 4 19576.3 1247.01 2
-6 20 7 12846 1351.47 4
-6 20 7 15240.1 1474.71 2
-14 -6 7 16180.7 1353.81 4
20 -14 7 14998.1 1362.06 3
20 -14 7 15231.3 1233.42 1
-14 -6 7 15426.8 1566.56 1
-14 -6 7 13030.7 1190.4 2
-14 -6 10 1277.41 1280 1
-6 20 10 -491.699 996.299 4
-6 20 10 1282.37 1094.97 2
-14 -6 10 567.824 781.235 4
20 -14 10 359.901 813.507 3
20 -14 10 548.879 773.13 1
-14 -6 10 558.53 816.171 2
-7 20 -6 16905.2 764.413 4
20 -13 -6 18120.1 831.837 3
20 -13 -3 5472.08 1010.95 1
-7 20 -3 4791.24 577.354 4
20 -13 -3 6109.68 680.772 3
-7 20 0 78747.3 2083.47 4
20 -13 0 76519 2149.63 1
-7 20 0 76704.7 1415.14 2
20 -13 0 74447.9 2123.53 3
-13 -7 0 77448.4 1477.82 1
-13 -7 3 4033.21 741.168 2
-7 20 3 4168.85 785.879 4
-13 -7 3 4424.71 724.295 1
20 -13 3 5111.04 753.465 1
20 -13 3 3961.24 495.804 4
-7 20 3 4400.13 694.919 2
-13 -7 3 3606.03 770.162 4
20 -13 3 4231.65 820.688 3
-7 20 6 22498.8 1611.34 4
-7 20 6 19543.1 1513.83 2
-13 -7 6 18417.5 1327.51 4
20 -13 6 24258 1541.24 3
20 -13 6 22446.1 1274.09 1
-13 -7 6 20640.2 1333.84 2
-13 -7 6 19840.4 1552.65 1
20 -13 9 1357.61 849.338 2
-13 -7 9 725.792 1038.82 1
-7 20 9 425.901 896.905 4
-7 20 9 160.607 934.366 2
-13 -7 9 865.396 718.029 4
20 -13 9 2170.75 892.014 3
20 -13 9 1297.84 741.569 1
-13 -7 9 184.326 691.208 2
20 -12 -7 57190 1200.37 3
-8 20 -4 6757.87 575.785 4
20 -12 -4 8663.53 717.647 3
-8 20 -1 83250.5 951.468 2
-8 20 -1 86477 2023.49 4
-12 -8 -1 89858.2 1550.17 1
-8 20 -1 82949.7 906.161 2
20 -12 -1 90156.4 2223.76 3
20 -12 -1 89827.6 2429.99 1
-12 -8 2 43488.1 1708.8 2
-8 20 2 40216.5 1690.88 4
20 -12 2 39570.7 1311.39 4
-8 20 2 40846.9 1396.41 2
-12 -8 2 42036.3 1444.85 1
20 -12 2 43391.2 1765.6 3
20 -12 2 39573 1418.47 1
-8 20 5 44156.6 2021.97 4
-12 -8 5 39750.5 1917.33 1
20 -12 5 37486.3 950.504 4
-8 20 5 39038.5 1819.88 2
-12 -8 5 38001.8 1729.06 4
20 -12 5 35460.3 1784.03 3
-12 -8 5 38487 1660.15 2
20 -12 5 40185.3 1527.27 1
20 -12 8 639.029 795.192 2
-8 20 8 1957.58 933.593 4
-12 -8 8 3143.52 1145.55 1
-8 20 8 1407.13 999.874 2
-12 -8 8 1798.67 768.509 4
20 -12 8 2367.24 852.047 3
20 -12 8 1489.72 654.824 1
-12 -8 8 3436.34 833.033 2
-12 -8 11 11663.1 1894.07 1
20 -12 11 11852.4 1510.87 2
-8 20 11 13336.2 1660.8 4
-8 20 11 17314.5 1941.98 2
-12 -8 11 14096.8 1478 4
20 -12 11 11898.9 1400.87 3
-12 -8 11 12673.3 1400.51 2
-9 20 -5 63944.9 1233.82 4
-9 20 -5 61465.6 1201.96 4
20 -11 -2 22509.3 1385.04 1
-9 20 -2 20437.6 952.909 4
20 -11 -2 22925.8 1136.41 3
-11 -9 -2 21252.9 808.652 1
20 -11 1 99798.9 2151.04 1
-9 20 1 98440 2396.86 4
20 -11 1 96175.2 2140.97 4
-11 -9 1 101291 2038.06 1
20 -11 1 101030 2508.89 3
20 -11 4 17502.1 985.732 1
-9 20 4 15910.3 1293.32 4
-11 -9 4 14018.8 1163.57 1
20 -11 4 16565.4 791.841 4
-9 20 4 15843.5 1123.7 2
-11 -9 4 19002.3 1237.74 4
20 -11 4 15192.9 1226.37 3
-11 -9 4 16832.9 1135.3 2
-11 -9 7 11460.7 1370.62 1
-9 20 7 11881.9 1342.76 4
-9 20 7 10620.2 1269.59 2
-11 -9 7 9838.81 1044.02 4
20 -11 7 11577.1 1190.93 3
20 -11 7 11039.4 992.035 1
-11 -9 7 13369.5 1131.23 2
20 -11 10 3448.01 1092.35 2
-9 20 10 7809.22 1442.22 4
-11 -9 10 6972.75 1544.13 1
-9 20 10 7439.77 1389.17 2
-11 -9 10 6034.27 1040.76 4
20 -11 10 6202.74 1052.3 1
20 -11 10 5111.02 1062.8 3
-11 -9 10 5096.48 1011.59 2
20 -10 -6 26283.6 1001.22 3
-10 20 -3 11658.3 671.297 4
-10 -10 -3 11357.4 708.957 1
20 -10 -3 12934.2 880.797 3
-10 20 0 18634.8 1051.9 4
-10 20 0 21386.9 690.852 2
20 -10 0 22562 1255.71 3
-10 -10 0 20313.9 929.121 1
20 -10 0 21508.7 1111.87 1
-10 -10 3 74.7549 501.489 2
-10 20 3 193.14 585.447 4
20 -10 3 710.663 376.549 4
-10 20 3 784.63 521.521 2
-10 -10 3 701.397 549.559 1
20 -10 3 703.751 637.934 3
20 -10 3 242.496 418.767 1
-10 20 6 21230.8 1551.11 4
-10 -10 6 26742.2 1759.42 1
-10 20 6 22626.3 1496.01 2
-10 -10 6 22773.6 1404.62 4
20 -10 6 21618.5 1496.91 3
20 -10 6 22054.7 1127.68 1
-10 -10 6 26620.5 1422.5 2
20 -10 9 11927 1426.05 2
-10 20 9 14337.8 1578.62 4
-10 20 9 14729.4 1598.88 2
-10 -10 9 12814.1 1228.64 4
20 -10 9 11601.7 1116 1
20 -10 9 15060.9 1410.02 3
-10 -10 9 13681 1235.9 2
-10 -10 9 14216.7 1710.12 1
20 -9 -7 4279.03 513.197 3
-11 20 -4 17055.3 639.1 4
-9 -11 -4 17665.7 947.812 1
-11 20 -4 16350 637.53 4
20 -9 -4 16650.2 953.073 3
-9 -11 -1 66669.7 1678.47 1
-11 20 -1 67392.3 1700.32 4
20 -9 -1 66832.8 1993.52 1
20 -9 -1 72990.6 2047.66 3
-11 20 -1 60798.6 755.809 2
20 -9 2 11718.9 710.816 1
-11 20 2 14238.5 1077.17 4
20 -9 2 10867.8 804.809 4
-11 20 2 10583.3 789.87 2
-9 -11 2 11707.9 918.449 1
20 -9 2 12127.6 1044.43 3
-11 20 5 41189 1986.57 4
-9 -11 5 42832.6 1983.21 1
20 -9 5 39489.7 1253.85 4
-11 20 5 43202.4 1872.97 2
-9 -11 5 41960.5 1755.29 4
20 -9 5 45742.6 1956.81 3
-9 -11 5 41796 1614.39 2
20 -9 5 44300 1405.05 1
-11 20 8 3296.22 1017.62 4
-9 -11 8 2796.95 1036.02 1
-11 20 8 3362.99 950.952 2
-9 -11 8 4261.57 900.182 4
20 -9 8 5389.26 963.389 3
20 -9 8 3053.87 718.952 1
-9 -11 8 3243.06 760.484 2
20 -9 11 10638.3 1557.7 2
-9 -11 11 9619.53 1703.06 1
-11 20 11 8095.91 1469.24 4
-11 20 11 6573.28 1451.78 2
-9 -11 11 8308.54 1190.96 4
20 -9 11 9874.17 1332.46 3
-9 -11 11 7086.15 1103.33 2
20 -8 -5 59744.2 1608.1 3
-12 20 -2 25711.8 961.135 4
-8 -12 -2 24876.5 1100.83 1
20 -8 -2 26478.9 1243.04 3
20 -8 1 133099 2176.9 1
-12 20 1 134230 2691.13 4
-12 20 1 137662 2093.55 2
-8 -12 1 133859 2560.49 1
-8 -12 4 30668.9 1343.32 2
-12 20 4 31028 1649.17 4
20 -8 4 25807.8 941.428 1
-8 -12 4 26867.8 1494.08 1
20 -8 4 25620.8 1096.64 4
-12 20 4 25770.7 1364.68 2
20 -8 4 28528.6 1533.22 3
20 -8 7 73046.1 1732.91 4
-12 20 7 71607 2775.54 4
-8 -12 7 78441.6 3017.24 1
-12 20 7 80597.2 2796.41 2
-8 -12 7 75669.2 2426.76 4
20 -8 7 76777.7 2611.06 3
20 -8 7 76537.1 1964.61 1
-8 -12 7 71907.6 2222.79 2
20 -8 10 18587.1 1818.19 2
-8 -12 10 16537.7 1970.43 1
-12 20 10 14804.2 1696.37 4
-12 20 10 13929.8 1703.36 2
-8 -12 10 14317.9 1331.81 4
20 -8 10 15585.9 1451.85 3
-8 -12 10 15576.1 1340.75 2
20 -7 -6 15724.4 860.578 3
-7 -13 -3 12643.3 912.504 1
-13 20 -3 10570.5 571.191 4
20 -7 -3 11224.4 867.219 3
-13 20 0 85746 2023.45 4
-13 20 0 90361 1448.79 2
20 -7 0 90846.9 2341.03 3
-7 -13 0 86390.4 2061.5 1
20 -7 3 16059.5 631.123 1
-13 20 3 17830.8 1244.87 4
-13 20 3 19104.3 1087.24 2
-7 -13 3 16849.5 1172.01 1
20 -7 3 19350.5 1300.22 3
-7 -13 6 9737.86 1215.13 1
-13 20 6 10300.8 1244.02 4
-13 20 6 8647.41 1089.37 2
20 -7 6 8760.76 1056.94 3
20 -7 6 9814.23 706.577 1
-7 -13 6 9361.53 877.906 2
20 -7 9 2003.72 1089.08 2
-13 20 9 804.441 923.173 4
-7 -13 9 2184.83 1211.86 1
-13 20 9 1770.15 968.03 2
-7 -13 9 1912.21 763.98 4
20 -7 9 2434.94 877.262 3
-7 -13 9 1226.3 685.352 2
20 -6 -7 12168 835.412 3
-14 20 -4 15543.4 400.126 4
-14 20 -4 16004.4 406.353 4
-6 -14 -4 18328.5 1176.91 1
20 -6 -4 18655.9 1052.51 3
-6 -14 -1 15071.1 989.362 1
-14 20 -1 15207.7 844.696 4
20 -6 -1 15071.4 1047.74 3
-14 20 -1 13673.5 512.854 2
-14 20 2 20504.1 1219.75 4
-14 20 2 21346.5 1025.42 2
-6 -14 2 22959.6 1255.5 1
20 -6 5 8020.86 497.01 1
-14 20 5 9414.56 1110.32 4
-6 -14 5 10976.3 1179.39 1
-14 20 5 9608.61 1014.52 2
20 -6 5 11024.4 1087.39 3
-6 -14 5 9022.18 804.348 2
20 -6 8 2900.7 600.085 4
-14 20 8 3032.76 1063.28 4
-6 -14 8 2716.57 1022.74 1
-14 20 8 2787.46 985.574 2
-6 -14 8 3219.35 769.847 4
20 -6 8 4709.79 967.167 3
20 -6 8 2681.22 569.363 1
-6 -14 8 3925.25 723.431 2
-5 -15 -5 46003.6 1901.75 1
20 -5 -5 44942.3 1539.63 3
-15 20 -2 31230.9 1044.27 4
-5 -15 -2 33562.7 1465 1
20 -5 -2 33207.8 1465.71 3
-15 20 1 69597.1 1976.82 4
-15 20 1 72423.1 1592.65 2
20 -5 1 74265.4 2251.44 3
-5 -15 1 69157.8 2032.2 1
-5 -15 4 22733.9 1121.81 2
-15 20 4 18690.2 1344.75 4
-5 -15 4 17969.8 1311.94 1
-15 20 4 20100.7 1223.83 2
20 -5 4 20552.1 1380.09 3
-15 20 7 64009.3 2690.95 4
-5 -15 7 67948.7 2845.98 1
-15 20 7 59398.3 2463 2
20 -5 7 65867.9 2450.35 3
20 -5 7 58988.4 1469.11 1
-5 -15 7 64560.7 1950.97 2
20 -5 10 11441.3 1656.88 2
-15 20 10 15583.1 1747.08 4
-5 -15 10 15311.5 1847.45 1
-15 20 10 14788.3 1641.92 2
20 -5 10 12031.5 1366.14 3
-5 -15 10 13313.3 1176.33 2
-4 -16 -6 27230.8 1669.1 1
20 -4 -6 22326.9 1161.91 3
-16 20 -3 1513.06 269.699 4
-4 -16 -3 1445.5 686.086 1
20 -4 -3 1061.27 589.217 3
-4 -16 0 47736.4 1756.56 1
-16 20 0 44725.1 1493.41 4
-16 20 0 48704.3 1234.95 2
-16 20 3 18871.5 1282.9 4
-16 20 3 19645.8 1141.86 2
-4 -16 3 16806.3 1234.52 1
20 -4 3 20090.7 1356.67 3
20 -4 6 47703.3 903.875 1
-16 20 6 50118.6 2280.08 4
-4 -16 6 50540.6 2349.65 1
-16 20 6 48306.1 2102.24 2
20 -4 6 54113.2 2217.12 3
-4 -16 6 45921.8 1562.01 2
20 -4 9 8371.05 1417.87 2
-16 20 9 7461.66 1321.88 4
-4 -16 9 10349.2 1501.32 1
-16 20 9 8066.64 1295.08 2
20 -4 9 7232.86 1093.94 3
-4 -16 9 8165.92 874.771 2
20 -3 -7 1386.52 584.536 3
-3 -17 -4 17418.8 1311.68 1
20 -3 -4 17755.7 1119.22 3
-3 -17 -1 9534.18 1001.43 1
-17 20 -1 7866.18 669.924 4
20 -3 -1 7251.7 815.835 3
-17 20 -1 8778.21 570.427 2
-17 20 2 2124.73 634.016 4
-17 20 2 1901.5 481.654 2
20 -3 2 3155.99 761.901 3
-3 -17 2 2414.72 714.575 1
-3 -17 5 1126.89 435.607 2
-17 20 5 1387.31 721.479 4
-17 20 5 1540.95 718.434 2
-3 -17 5 2329.08 860.759 1
20 -3 5 1517.05 713.663 3
20 -3 8 7795.67 916.503 4
-17 20 8 7320.59 1260.88 4
-3 -17 8 11828.8 1508.68 1
-17 20 8 8291.46 1273.9 2
20 -3 8 11840.1 1298.19 3
-3 -17 8 8751.82 849.971 2
20 -2 -8 5571 850.423 3
-2 -18 -5 73114.9 2646.74 1
20 -2 -5 71734.2 2084.59 3
-18 20 -2 30079.2 1010.02 4
-2 -18 -2 28532.1 1552.67 1
20 -2 -2 27704.8 1409.72 3
-18 20 1 137625 2769.13 4
20 -2 1 142466 3200.02 3
-18 20 1 138185 2384.34 2
-18 20 4 20876.4 1436.92 4
-18 20 4 17164.4 1176.27 2
-2 -18 4 15543.3 1319.06 1
20 -2 4 20235.6 1408.07 3
-18 20 7 50574.2 2439.14 4
-2 -18 7 57315.5 2727.85 1
-18 20 7 53822 2380.13 2
20 -2 7 54596 2299.69 3
-2 -18 7 51022.9 1619.73 2
20 -2 10 10797.7 1626.79 2
-18 20 10 12942.2 1655.93 4
-2 -18 10 13349.1 1810.05 1
-18 20 10 13835.6 1671.3 2
20 -2 10 10801.6 1346.77 3
-1 -19 -6 10430.7 1370.36 1
20 -1 -6 9409.72 923.482 3
-19 20 -3 9218.54 474.017 4
20 -1 -3 10942.3 998.584 3
-1 -19 -3 8874.45 1124.47 1
-1 -19 0 3897.28 854.177 1
-19 20 0 4780.64 634.658 4
20 -1 0 3170.54 719.348 3
-19 20 0 4289.67 557.066 2
-19 20 3 1889.82 691.038 4
-19 20 3 2363.1 629.177 2
20 -1 3 3507.85 825.796 3
-1 -19 3 1133.1 779.304 1
-1 -19 6 9288.59 726.49 2
-19 20 6 9373.14 1249.05 4
-1 -19 6 10264.1 1299.68 1
-19 20 6 10419.8 1182.24 2
20 -1 6 11194.2 1248.64 3
20 -1 9 4666.32 901.535 4
-19 20 9 5872.45 1211.27 4
-19 20 9 6604.87 1245.73 2
-1 -19 9 5735.43 1383.99 1
20 -1 9 5469.85 1327.94 2
20 -1 9 5960.05 1059.49 3
20 0 -7 579.418 673.617 3
0 -20 -7 519.883 946.337 1
0 -20 -4 20347.1 1549.17 1
20 0 -4 25013.3 1386.22 3
-20 20 -1 1438.18 447.764 2
-20 20 -1 1968.07 472.17 4
0 -20 -1 1318.88 830.675 1
20 0 -1 2598.21 707.886 3
-20 20 2 16722.9 1155.95 4
-20 20 2 18625.6 1071.37 2
20 0 2 16498.2 1262.35 3
0 -20 2 16751.1 1300.09 1
-20 20 5 987.482 734.466 4
-20 20 5 1394.71 757.664 2
0 -20 5 -572.947 797.845 1
20 0 5 1519.77 774.178 3
20 0 8 22044.6 1467.6 4
-20 20 8 29354.8 2070.98 4
0 -20 8 29228.9 2133.51 1
-20 20 8 28858.1 1990.17 2
20 0 8 29529.5 1873.4 3
20 1 -8 7558.73 1076.53 3
1 -21 -5 42467.5 2295.55 1
20 1 -5 45826.7 1884.69 3
-21 20 -2 7409.06 600.482 4
20 1 -2 7526.96 960.75 3
1 -21 -2 5900.25 1041.22 1
-21 20 1 68728.7 2057.51 4
20 1 1 76096.1 2479.03 3
-21 20 1 71519.5 1934.28 2
1 -21 1 68632.7 2423.23 1
-21 20 4 11107.9 1179.67 4
-21 20 4 11523.6 1068.25 2
1 -21 4 11731.8 1278.22 1
20 1 4 9964.78 1134.54 3
-21 20 7 18654.8 1665.86 4
1 -21 7 21701 1906.26 1
-21 20 7 22486.6 1683.15 2
20 1 7 18831.7 1515.45 3
20 1 10 9348.89 1678.86 2
-21 20 10 8424.48 1482.45 4
1 -21 10 8100.63 1695.19 1
-21 20 10 7111.07 1397.36 2
20 1 10 7678.98 1241.85 3
2 -22 -6 2531.41 1126.8 1
20 2 -6 1739.18 737.526 3
-22 20 -3 13443.8 647.381 4
20 2 -3 13042.2 1136.29 3
-22 20 0 5046.21 667.366 4
2 -22 0 3700.55 987.876 1
20 2 0 5386.53 967.501 3
-22 20 0 4807.62 720.528 2
-22 20 3 16820.5 1297.39 4
-22 20 3 14431 1094.23 2
20 2 3 14589.7 1263.25 3
2 -22 3 13470.6 1380.92 1
-22 20 6 7982.48 1219.45 4
2 -22 6 8048.77 1226.32 1
-22 20 6 5714.55 988.446 2
20 2 6 6770.06 1101.06 3
20 2 9 12184.2 1713.32 2
20 2 9 9827.63 1212.36 4
-22 20 9 9056.69 1452.37 4
2 -22 9 12261.2 1797.42 1
-22 20 9 11951.9 1554.15 2
20 2 9 12336.4 1358.77 3
20 3 -7 1817.29 835.119 3
3 -23 -7 2132.29 1242.09 1
3 -23 -4 2192.55 1010.4 1
20 3 -4 1405.4 683.533 3
-23 20 -1 1916.98 594.128 2
-23 20 -1 2440.53 540.358 4
3 -23 -1 955.692 835.021 1
20 3 -1 2764.09 884.017 3
-23 20 2 30878.4 1561.49 4
-23 20 2 28444.1 1437.9 2
20 3 2 31152.5 1785.37 3
3 -23 2 30784.5 1846.46 1
-23 20 5 1956.16 881.254 4
-23 20 5 2551.6 809.384 2
20 3 5 2046.42 832.908 3
3 -23 5 953.32 903.67 1
20 3 8 6483.66 1068.42 4
-23 20 8 10671.1 1493.48 4
-23 20 8 8803.41 1332.16 2
3 -23 8 8293.41 1530.51 1
20 3 8 7881.38 1175.52 3
20 4 -8 2184.97 925.812 3
4 -24 -8 2798.84 1250.12 1
4 -24 -5 23065.4 1946.77 1
20 4 -5 28895.5 1687.75 3
-24 20 -2 4714.05 569.24 4
20 4 -2 3631.84 894.323 3
4 -24 -2 4507.21 1125.8 1
4 -24 1 18574.7 1587.24 1
-24 20 1 18000.9 1189.19 4
20 4 1 19459.7 1505.15 3
-24 20 1 18634.8 1209.14 2
-24 20 4 9316.57 1136.96 4
-24 20 4 10271.5 1083.9 2
4 -24 4 10761.7 1387.47 1
20 4 4 10382 1227.13 3
-24 20 7 7767.62 1306.03 4
-24 20 7 4057.25 983.497 2
4 -24 7 7305.27 1350.96 1
20 4 7 6367.28 1117 3
20 5 -6 4416.14 1065.64 3
5 -25 -6 3438.86 1221.54 1
-25 20 -3 27071.4 1002.69 4
5 -25 -3 28772.5 1935.77 1
20 5 -3 26625 1702.94 3
5 -25 0 9771.74 1306.94 1
-25 20 0 11951.4 966.382 4
20 5 0 12723.9 1285.07 3
-25 20 0 12292.6 1029.48 2
-25 20 3 26463.5 1597.85 4
-25 20 3 22401.1 1424.43 2
20 5 3 24666.9 1664.17 3
5 -25 3 23247.9 1770.19 1
-25 20 6 4227.25 1106.99 4
-25 20 6 2825.02 919.726 2
20 5 6 4040.73 1029.93 3
5 -25 6 3363.71 1184.81 1
20 5 9 3662.14 993.908 4
20 5 9 4306.5 1457.7 2
-25 20 9 9038.27 1560.77 4
-25 20 9 6716.8 1283.58 2
5 -25 9 6634.64 1492.74 1
20 5 9 6594.21 1264.82 3
20 6 -7 6112.14 1156.08 3
6 -26 -7 8553.91 1663.42 1
6 -26 -4 9462.67 1476.86 1
20 6 -4 15107 1413.33 3
-26 20 -1 14147.7 1154.53 2
6 -26 -1 11533.9 1421.04 1
-26 20 -1 14429.7 983.091 4
20 6 -1 13955.2 1339.71 3
6 -26 2 24793.1 1835.08 1
-26 20 2 26941.1 1544.75 4
20 6 2 28101.9 1802.98 3
-26 20 2 26169.8 1513.38 2
-26 20 5 12544.9 1347.51 4
-26 20 5 8056.07 1092.74 2
6 -26 5 11521.1 1517.29 1
20 6 5 7294.62 1146.5 3
20 6 8 463.571 803.405 4
-26 20 8 3651.14 1122.98 4
-26 20 8 2177.48 1016.73 2
6 -26 8 4261.02 1345.01 1
20 6 8 4016.64 1111.74 3
20 7 -8 791.931 1006.62 3
7 -27 -8 2323.01 1429.8 1
7 -27 -5 6719.63 1416.18 1
20 7 -5 8833.09 1219.74 3
7 -27 -2 2506.19 1067.45 1
-27 20 -2 2116.76 542.926 4
20 7 -2 1926.74 887.151 3
7 -27 1 8532.97 1393.06 1
-27 20 1 5778.88 878.074 4
20 7 1 5276.35 1064.97 3
-27 20 1 5572.31 857.945 2
7 -27 4 1570.82 946.94 1
-27 20 4 2323.51 831.789 4
-27 20 4 1715.23 776.805 2
20 7 4 3366.62 998.377 3
-27 20 7 3242.99 1106.68 4
-27 20 7 3963.78 1148.11 2
20 7 7 3639.31 1113.8 3
7 -27 7 3197.27 1196.42 1
8 -28 -6 2728.9 1406.74 1
20 8 -6 1453.76 1030.28 3
-28 20 -3 8461.47 729.762 4
8 -28 -3 8473.68 1439.08 1
20 8 -3 8763.63 1248.6 3
-28 20 0 11532.1 1141.76 2
8 -28 0 11026.3 1484.59 1
-28 20 0 13103.7 1061.34 4
20 8 0 15454.5 1531.32 3
-28 20 3 21620.8 1597.88 4
20 8 3 21685.2 1714.21 3
-28 20 3 21108.8 1510.67 2
8 -28 3 21577.6 1866.63 1
-28 20 6 7300.29 1256.54 4
-28 20 6 6741.56 1149.58 2
8 -28 6 8044.94 1457.46 1
20 8 6 7842.78 1268.67 3
20 9 -7 7296.88 1418.76 3
9 -29 -7 5389.57 1540.5 1
9 -29 -4 13374.5 1706.37 1
20 9 -4 13906.3 1450.95 3
-29 20 -1 14876.5 1076.9 4
9 -29 -1 15327.6 1751.14 1
20 9 -1 12939.3 1470.71 3
9 -29 2 13475.2 1628.9 1
-29 20 2 12540.2 1223.8 4
20 9 2 15445.3 1549.35 3
-29 20 2 12582.3 1260.98 2
-29 20 5 6220.31 1172.85 4
-29 20 5 6606.78 1117.29 2
9 -29 5 6919.28 1430.44 1
20 9 5 5992.5 1229.84 3
20 10 -5 -466.231 1094.84 3
10 -30 -5 484.167 1151.69 1
10 -30 -2 2486.33 1125.44 1
-30 20 -2 1045.39 544.155 4
20 10 -2 2533.79 1078.52 3
-30 20 1 -105.967 737.044 2
-30 20 1 511.19 647.195 4
10 -30 1 1645.11 1158.1 1
20 10 1 820.512 900.658 3
10 -30 4 -526.183 964.274 1
-30 20 4 -612.641 810.957 4
20 10 4 -528.96 970.52 3
-30 20 4 229.585 760.003 2
10 -30 7 1517.03 1233.17 1
-30 20 7 678.871 916.558 4
-30 20 7 2514.45 1042.54 2
20 10 7 1327.86 1040.46 3
11 -31 -6 1248.94 1484.31 1
20 11 -6 1221.74 1152.02 3
20 11 -3 9703.73 1451.51 3
11 -31 -3 9659.29 1688.84 1
-31 20 0 7296.3 1164.51 2
11 -31 0 9966.27 1654.29 1
-31 20 0 8782.96 1017.48 4
20 11 0 10377.8 1502.18 3
11 -31 3 6030.56 1355.41 1
-31 20 3 7591.95 1155.45 4
20 11 3 5134.36 1282.9 3
-31 20 3 5835.9 1095.66 2
-31 20 6 13417 1597.61 4
-31 20 6 9050.3 1388.64 2
20 11 6 7878.44 1446.19 3
11 -31 6 11403.7 1791.53 1
20 12 -4 3110.06 1195.1 3
12 -32 -4 1926.79 1300.67 1
-32 20 -1 2478.68 730.831 4
20 12 -1 1398.55 993.051 3
12 -32 -1 1179.32 1232.95 1
-32 20 2 4794.3 1095.43 2
-32 20 2 4677.6 1010.46 4
12 -32 2 6800.47 1548.88 1
20 12 2 4626.71 1262.75 3
-32 20 5 4667.16 1205.59 4
12 -32 5 5938.78 1490.81 1
-32 20 5 3391.82 1124.63 2
20 12 5 5839.84 1265.8 3
20 13 -5 -297.006 1136.73 3
13 -33 -5 1582.36 1482.54 1
13 -33 -2 236.04 1255.48 1
20 13 -2 2540.42 1151.28 3
-33 20 1 3130.36 995.026 2
-33 20 1 3380.06 879.694 4
13 -33 1 2356.38 1281.83 1
20 13 1 3754.22 1190.69 3
13 -33 4 1860.91 1311.73 1
-33 20 4 934.153 931.509 4
20 13 4 612.909 1115.27 3
-33 20 4 513.848 917.31 2
20 14 -3 7783.87 1483.1 3
14 -34 -3 6171.89 1543.56 1
-34 20 0 6275.29 1200.54 2
-34 20 0 5626.14 972.582 4
14 -34 0 7167.5 1585.09 1
20 14 0 8190.61 1544.44 3
-34 20 3 1250.12 971.758 2
14 -34 3 1833.34 1392.61 1
-34 20 3 2566.26 992.237 4
20 14 3 2650.04 1261.4 3
15 -35 -1 3300.81 1513.34 1
-35 20 -1 3556.72 895.599 4
20 15 -1 2776.91 1248.52 3
-35 20 2 122.218 875.146 2
-35 20 2 -470.441 850.247 4
15 -35 2 -211.457 1305.53 1
20 15 2 2290.71 1210.4 3
20 16 -2 2419.04 1318.81 3
16 -36 -2 1088 1298.66 1
-36 20 1 2005.37 1078.83 2
-36 20 1 -539.497 843.688 4
16 -36 1 2316.78 1356.14 1
20 16 1 2139.11 1267.03 3
15 21 0 1829.88 1384.8 3
21 -36 0 813.114 1233.23 1
-36 15 0 1362.47 900.567 4
14 21 -1 4866.32 1582.89 3
21 -35 -1 2660.84 1368.53 1
-35 14 -1 2054.5 918.64 4
14 21 2 2058.99 1314.07 3
-35 14 2 3.83473 960.386 2
-35 14 2 382.542 849.056 4
21 -35 2 2024.92 1409.89 1
13 21 -2 9117.74 1726.22 3
21 -34 -2 6928.62 1672.6 1
13 21 1 2075.15 1347.6 3
-34 13 1 727.241 999.422 2
-34 13 1 113.642 799.618 4
21 -34 1 551.166 1219.57 1
13 21 4 5767.05 1514.76 3
-34 13 4 1692.33 1170.4 2
-34 13 4 5564.91 1299.51 4
21 -34 4 5431.87 1551.12 1
12 21 -3 14450.6 1856.53 3
21 -33 -3 16396.7 2032.13 1
12 21 0 1990.04 1321.29 3
21 -33 0 1258.84 1163.46 1
-33 12 0 2552.7 855.304 4
12 21 3 4296.54 1392.4 3
-33 12 3 5744.93 1254.84 2
-33 12 3 7519.62 1263.09 4
21 -33 3 2900.46 1288.4 1
11 21 -4 4662.46 1500.74 3
21 -32 -4 4204.92 1525.65 1
11 21 -1 5104.7 1401.21 3
21 -32 -1 6128.11 1545.29 1
-32 11 -1 3618.19 894.387 4
11 21 2 1511.75 1208.26 3
-32 11 2 3684.62 1176.2 2
-32 11 2 5001.41 1091.55 4
21 -32 2 2124.57 1219.44 1
11 21 5 1441.28 1270.04 3
-32 11 5 -82.8778 880.109 2
21 -32 5 793.021 1178.51 1
-32 11 5 934.391 998.053 4
10 21 -5 10615.5 1729.18 3
21 -31 -5 8951.55 1768.22 1
10 21 -2 8617.57 1626.52 3
21 -31 -2 7120 1597.55 1
-31 10 1 10249.8 1480.94 2
-31 10 1 9773.41 1202.46 4
21 -31 1 6897.2 1416 1
10 21 1 9292.55 1556.93 3
21 -31 4 10012.1 1612.25 1
-31 10 4 9378.2 1380.39 4
-31 10 4 7725.57 1371.48 2
10 21 4 9098.29 1542.57 3
21 -30 -6 1837.98 1405.5 1
9 21 -6 3970.7 1502.41 3
9 21 -3 15820.3 1899.26 3
21 -30 -3 18041 2067.7 1
-30 9 0 10953 1209.92 4
21 -30 0 8112.9 1505.82 1
9 21 0 11463.8 1629.88 3
-30 9 3 22425.9 1687.7 4
9 21 3 24431 2005.89 3
-30 9 3 20142.6 1793.28 2
9 21 6 6906.14 1471.56 3
9 21 6 5194.62 1317.8 4
9 21 6 5621.33 1406.31 2
21 -30 6 5552.58 1407.95 1
-30 9 6 6337.71 1303.55 4
-30 9 6 6677.15 1374.95 2
21 -29 -7 2828.53 1637.39 1
8 21 -7 -311.732 1304.73 3
8 21 -4 3013.69 1384.83 3
21 -29 -4 5665.97 1397.91 1
8 21 -1 1040.37 1148.88 3
21 -29 -1 -138.355 1055.67 1
-29 8 2 3467.49 1098.82 2
-29 8 2 4849.2 986.642 4
21 -29 2 1221.73 1138.46 1
-29 8 5 -520.262 968.436 2
8 21 5 8.26208 1052.94 3
8 21 5 568.257 977.545 2
21 -29 5 378.523 1086.78 1
-29 8 5 -54.5471 831.571 4
21 -28 -8 3560.21 1692.86 1
7 21 -5 10849.2 1709.14 3
21 -28 -5 10942.6 1802.43 1
7 21 -2 4471.48 1300.52 3
21 -28 -2 3741.05 1166.91 1
-28 7 1 13355.7 1459.25 2
21 -28 1 15388.1 1687.14 1
-28 7 1 12655 1259.72 4
7 21 1 15155.2 1664.93 3
7 21 4 4799.6 1269.53 3
-28 7 4 5640.75 1086.1 2
21 -28 4 7531.94 1397.77 1
-28 7 4 6765.86 1136.13 4
7 21 7 7536.68 1425.02 3
7 21 7 5209.68 1270.29 4
7 21 7 6543.79 1378.59 2
-28 7 7 5334.7 1293.99 4
-28 7 7 4764.03 1226.95 2
6 21 -6 16095.5 1881.28 3
21 -27 -6 13759.1 1940.96 1
21 -27 -3 4091.35 1262.88 1
6 21 -3 6780.78 1492.31 3
21 -27 0 3733.8 1110.65 1
6 21 0 5455.19 1315.27 3
-27 6 0 5143.45 938.305 4
-27 6 3 8334.79 1183.95 4
21 -27 3 7573.89 1309.05 1
-27 6 3 6678.24 1174.05 2
6 21 3 10273.5 1429.07 3
6 21 6 4704.61 1222.32 3
6 21 6 3547.92 1140.4 4
6 21 6 4547.1 1284.18 2
-27 6 6 2052.94 986.267 4
21 -27 6 2401.05 1083.27 1
-27 6 6 3262.23 1115.16 2
21 -26 -7 1612.63 1432.14 1
5 21 -4 4442.53 1400.25 3
21 -26 -4 3716.36 1365.92 1
5 21 -1 2718.59 1197.62 3
21 -26 -1 2016.62 1110.26 1
5 21 2 3695.91 1222.92 3
-26 5 2 3750.95 990.073 2
-26 5 2 1025.86 741.456 4
21 -26 2 3350.34 1046.46 1
21 -26 5 15919.8 1620.99 1
5 21 5 15633.8 1570.34 4
5 21 5 15264.1 1515.94 2
-26 5 5 13308.7 1450.33 4
-26 5 5 12955.9 1387.98 2
5 21 5 15658.4 1659.11 3
5 21 8 3571.5 1245.5 3
21 -26 8 804.637 1022.34 1
5 21 8 2176.54 1069.1 4
5 21 8 3503.22 1359.94 2
-26 5 8 2327.25 1095.64 4
-26 5 8 2550.64 1042.26 2
4 21 -5 20770.3 1971.14 3
21 -25 -5 19677.6 2068.7 1
4 21 -2 -1087.46 1275.34 3
21 -25 -2 -1718.83 1135.34 1
4 21 1 34204 2179.58 3
-25 4 1 33659.7 1960.46 2
21 -25 1 34343.9 2080.18 1
-25 4 1 36006.1 1789.63 4
21 -25 4 12285.7 1433.33 1
4 21 4 15502.9 1453.86 2
-25 4 4 17085.9 1483.18 4
-25 4 4 16137.9 1462.77 2
4 21 4 12001.8 1436.52 3
4 21 7 11242.4 1548.91 3
4 21 7 13449.5 1528.81 4
4 21 7 15781.9 1742.94 2
-25 4 7 14630.6 1612.05 4
-25 4 7 14544.4 1529.6 2
21 -25 7 13866.8 1596.37 1
21 -24 -6 12142.9 955.88 3
21 -24 -6 13129.4 1867.12 1
3 21 -3 551.469 1185.34 3
21 -24 -3 284.291 975.283 1
3 21 0 46649 2463.12 3
-24 3 0 35557.1 857.501 1
-24 3 0 43444.2 1910.49 4
21 -24 0 41677.9 2247.74 1
-24 3 0 35342.6 882.997 1
3 21 3 7982.97 1336.21 3
-24 3 3 4347.2 900.137 2
3 21 3 5524.56 997.61 2
21 -24 3 5419.06 1091.45 1
-24 3 3 7766.23 1080.39 4
3 21 6 17988.2 1654.19 3
3 21 6 14533.2 1500.38 4
3 21 6 18196.4 1693.39 2
-24 3 6 13134 1411.32 4
-24 3 6 15207.8 1503.96 2
21 -24 6 15313.8 1533.72 1
3 21 9 6430.91 1428.72 4
3 21 9 6990.26 1497.88 2
-24 3 9 7943.98 1413.29 4
21 -24 9 6808.8 1385.21 3
-24 3 9 4080.5 1241.26 2
21 -24 9 7566.44 1415.23 1
21 -23 -7 9436.18 1793.06 1
2 21 -4 14452.6 1624.82 3
21 -23 -4 13112.4 1616.06 1
2 21 -1 29575.2 2085.79 3
21 -23 -1 28645.9 1917.88 1
2 21 2 14527.3 1558.72 3
-23 2 2 11379.1 1222.02 2
21 -23 2 10498.3 1297.15 1
-23 2 2 10026.3 1125.18 4
21 -23 5 25725.5 1804.59 1
2 21 5 22335.1 1750.86 3
2 21 5 22746.7 1685.4 4
2 21 5 27444.9 1825.08 2
-23 2 5 24939.1 1711.62 4
-23 2 5 26537.8 1730.82 2
21 -23 8 330.523 950.296 1
2 21 8 732.39 1086.64 3
2 21 8 320.747 998.83 4
2 21 8 1375.66 1121.46 2
-23 2 8 710.765 960.543 4
21 -23 8 1472.01 1034.11 3
-23 2 8 105.986 926.431 2
21 -22 -5 25988.4 2133.97 1
21 -22 -5 30656.7 1385.43 3
1 21 -2 12287.1 1571.22 3
21 -22 -2 10317.7 1338.93 1
1 21 -2 10330 731.483 2
1 21 1 34794.1 2103.27 3
-22 1 1 35235 1851.83 2
-22 1 1 33447.3 1128.82 1
21 -22 1 32346.5 1262.2 2
21 -22 1 32866 1923.43 1
-22 1 1 35447.9 1184.91 1
-22 1 4 1409.61 736.144 2
1 21 4 1804.97 1015.07 3
1 21 4 1212.55 871.813 4
1 21 4 1231.9 836.083 2
21 -22 4 1090.82 849.469 1
-22 1 4 2802.16 825.319 4
1 21 7 19811.6 1661.18 3
1 21 7 21318.3 1752.91 4
1 21 7 18461.6 1772.46 2
-22 1 7 17236.5 1548.24 4
-22 1 7 20431.3 1673.42 2
21 -22 7 20111.3 1702.5 1
21 -21 -6 13753.8 1739.16 1
21 -21 -6 13543.2 887.195 3
0 21 -3 1200.57 1167.95 3
21 -21 -3 -117.378 864.862 1
0 21 -3 382.526 334.041 2
-21 0 0 58346.3 952.748 1
-21 0 0 60055.3 1050.01 1
21 -21 0 59364.3 2437.23 1
-21 0 3 1108.62 686.588 2
0 21 3 1061.01 1051.56 3
0 21 3 605.442 763.767 4
0 21 3 1346.42 763.848 2
21 -21 3 68.3554 786.682 1
-21 0 3 362.123 647.988 4
21 -21 3 -9.19892 350.476 2
0 21 6 23622.3 1741.02 3
21 -21 6 22862.6 1072.42 2
0 21 6 21705.6 1662.6 4
0 21 6 21905.5 1697.82 2
-21 0 6 20725.8 1613.84 4
-21 0 6 23027.1 1596.31 2
21 -21 6 21209.7 1625.41 1
0 21 9 941.161 973.591 4
0 21 9 -2758.77 1389.02 2
-21 0 9 455.335 937.053 4
21 -21 9 989.539 974.751 3
-21 0 9 196.293 933.115 2
21 -21 9 1399.72 1045.56 1
21 -20 -4 11697.5 1508.84 1
-1 21 -4 10034.4 584.03 2
21 -20 -4 13455.6 1000.38 3
21 -20 -1 59845.9 2436.5 1
-1 21 -1 58807.1 2671.51 3
-1 21 -1 54359.3 1435.67 2
-1 21 2 5248.55 1241.58 3
-20 -1 2 5176.17 929.896 2
-20 -1 2 4667.62 645.816 1
21 -20 2 5242.15 614.294 4
-1 21 2 7235.77 868.088 2
-20 -1 2 6662.79 781.261 1
21 -20 2 5859.43 623.332 2
-20 -1 2 4943.74 894.738 4
21 -20 2 5456.97 1030.16 1
-1 21 5 42554.6 2195.72 3
-1 21 5 43227.3 2105.26 2
-20 -1 5 41929.9 2053.09 4
-1 21 5 42998.1 2116.78 4
-20 -1 5 39230.1 1966.64 2
21 -20 5 40412.8 1999.29 1
-1 21 8 11590.6 1379.81 3
-1 21 8 7854.77 1380.27 4
-1 21 8 12165.6 1571.74 2
-20 -1 8 10404.5 1350.96 4
21 -20 8 11485.5 1398.02 3
21 -20 8 8236.14 1232.21 1
-20 -1 8 9345.05 1240.86 2
21 -19 -5 7529.83 1324.75 1
21 -19 -5 7989.9 741.2 3
-2 21 -2 4645.99 1247.56 3
21 -19 -2 5590.45 1039.32 1
21 -19 -2 6203.55 802.143 3
-2 21 -2 4914.01 448.374 2
-2 21 1 15104.6 1574.25 3
-19 -2 1 16480.5 1338.18 2
-19 -2 1 15215.2 866.984 1
-2 21 1 15809.4 1010.13 2
21 -19 1 13300.1 926.747 4
-19 -2 1 16579.5 804.635 1
21 -19 1 12957.3 900.564 2
-19 -2 1 16851.1 1236.67 4
21 -19 1 17556.1 1332.85 1
-2 21 4 9072.69 1310.82 3
21 -19 4 7310.11 1028.49 1
-2 21 4 10401.4 1175.22 4
-2 21 4 10809.1 1202.3 2
-19 -2 4 9591.91 1062.08 4
21 -19 4 9642.99 726.375 2
-19 -2 4 10246.2 1096.91 2
21 -19 7 4562.49 1034.66 1
-2 21 7 5344.82 1132.75 3
21 -19 7 6179.2 805.791 2
-2 21 7 5828.06 1175.62 4
-2 21 7 3423.13 1124.93 2
-19 -2 7 4443.9 973.033 4
21 -19 7 7351.45 1160.81 3
-19 -2 7 5602.78 1018.45 2
-2 21 10 9163.77 1556.92 4
-2 21 10 10905.4 1697.24 2
-19 -2 10 9251.98 1406.21 4
21 -19 10 5200.43 1194.84 3
21 -19 10 7531.62 1331.01 1
-19 -2 10 5886.04 1171.15 2
21 -18 -6 30508 1135.66 3
-3 21 -3 14824.8 514.499 2
21 -18 -3 16578.1 1071.78 3
21 -18 -3 15768.9 1525.08 1
-3 21 0 15714 840.437 2
-3 21 0 19099.7 1689.5 3
-3 21 0 15743.3 900.877 2
21 -18 0 15780.4 1159.14 3
-18 -3 0 17615.3 596.977 1
-18 -3 0 17559.8 651.854 1
21 -18 0 17593.5 1329 1
-3 21 3 10480.6 1322.19 3
-3 21 3 8665.27 1055.87 4
-18 -3 3 7550 869.438 1
21 -18 3 8438.77 575.369 4
-3 21 3 8659.23 976.826 2
21 -18 3 10973.3 1146.49 1
-18 -3 3 9139.95 1048.34 4
21 -18 3 10424.1 1102.66 3
21 -18 3 7440.28 686.537 2
-18 -3 3 7496.57 981 2
-3 21 6 18046.3 1472.12 3
-3 21 6 19744.4 1588.58 2
-3 21 6 19319.1 1582.73 4
-18 -3 6 15886.3 1389.2 4
21 -18 6 20359.6 1557.36 3
-18 -3 6 21197.7 1488.94 2
21 -18 6 18091.3 1377.84 1
-3 21 9 8725.03 1482.73 4
-3 21 9 8543.6 1505.19 2
-18 -3 9 5261.02 1132.01 4
21 -18 9 6613.35 1169.55 3
-18 -3 9 7294.33 1194.02 2
21 -18 9 6967.7 1170.56 1
21 -17 -4 45773.7 1541.11 3
21 -17 -4 42691.3 2303.7 1
-4 21 -1 73161.1 2758.63 3
-4 21 -1 67545.2 1364.56 2
21 -17 -1 66509.9 2366.24 1
21 -17 -1 72064.9 2148.11 3
-4 21 -1 64408.3 1271.16 2
-17 -4 2 19582 1333.87 2
-4 21 2 24353.1 1715.53 3
-4 21 2 24064.6 1452.17 4
-4 21 2 21974.8 1212.32 2
-17 -4 2 23313 1094.97 1
21 -17 2 22688.5 1396.76 1
-17 -4 2 22800.4 1407.24 4
21 -17 2 21974.4 1390.49 3
21 -17 2 22762.2 1000.35 4
-4 21 5 51887.6 2209.7 3
-17 -4 5 52437.7 2214.79 1
-4 21 5 50639.5 2298.38 4
-4 21 5 49418.7 2138.12 2
-17 -4 5 45945.5 2052.82 4
21 -17 5 52183.4 2200.76 3
-17 -4 5 49057.1 2069.48 2
21 -17 5 48498.3 1990.97 1
-4 21 8 9295.39 1154.88 3
21 -17 8 10712.2 1105.24 2
-4 21 8 9692.6 1363.21 4
-4 21 8 9305.9 1407.12 2
-17 -4 8 11474.2 1340.09 4
21 -17 8 9251.82 1211.81 3
21 -17 8 10967.1 1228.59 1
-17 -4 8 10424.6 1268.75 2
21 -16 -5 1158.95 488.553 3
21 -16 -2 74888.9 2080.41 3
21 -16 -2 78889.8 2626.46 1
-5 21 1 1525.46 1002.61 3
21 -16 1 1609.2 715.172 1
-5 21 1 -433.993 572.578 4
21 -16 1 330.863 423.46 4
-5 21 1 545.915 443.033 2
-16 -5 1 455.681 355.263 1
21 -16 1 -906.193 680.355 3
-5 21 4 16259.6 1418.06 3
21 -16 4 15498.2 1165.41 1
-5 21 4 14689.2 1324.06 4
-16 -5 4 15778.5 1210.71 1
21 -16 4 13593.4 581.781 4
-5 21 4 11634 1128.83 2
-16 -5 4 17528.5 1308.82 4
21 -16 4 15398.3 1272.43 3
-16 -5 4 15239.4 1194.28 2
-5 21 7 808.529 770.999 3
21 -16 7 277.151 656.39 2
-16 -5 7 511.156 887.335 1
-5 21 7 76.7364 857.267 4
-5 21 7 -124.429 885.629 2
-16 -5 7 -475.601 780.678 4
21 -16 7 -7.10628 753.949 3
-16 -5 7 592.864 773.907 2
21 -16 7 -102.382 650.125 1
-16 -5 10 3073.06 1317.79 1
-5 21 10 5062.08 1325.27 4
-5 21 10 4123.83 1286.9 2
-16 -5 10 4124.43 1086.98 4
21 -16 10 5502.65 1155.29 3
21 -16 10 5251.03 1082.36 1
-16 -5 10 4334.64 1055.33 2
21 -15 -6 14890.5 814.975 3
21 -15 -3 25507.3 1223.82 3
21 -15 -3 25707.6 1690.63 1
21 -15 0 30272.4 1518.41 1
-6 21 0 36189 1544.65 4
-6 21 0 35283.1 1051.11 2
21 -15 0 29988.7 1499.83 3
-15 -6 0 35487.2 989.863 1
-15 -6 3 12905.9 1117.46 2
-6 21 3 12746.3 1337.69 3
-6 21 3 14341 1215.74 4
21 -15 3 15168.3 769.926 4
-15 -6 3 14115.2 1029.04 1
-6 21 3 14402.1 1060.42 2
21 -15 3 13772.7 1067.26 1
-15 -6 3 14606.3 1180.56 4
21 -15 3 13315.4 1181.96 3
-15 -6 6 16829.5 1501.88 1
-6 21 6 15736.8 1482.16 4
-6 21 6 16306.6 1432.41 2
-15 -6 6 14872.3 1268.82 4
21 -15 6 16587.4 1380.03 3
-15 -6 6 16198.2 1287.6 2
21 -15 6 14437.1 1183.16 1
-15 -6 9 14306.5 1769.74 1
21 -15 9 13196.1 1358.94 2
-6 21 9 13948.4 1606.58 4
-6 21 9 14833.3 1677.1 2
-15 -6 9 13637.3 1365.57 4
21 -15 9 12471.4 1371.14 3
21 -15 9 12143 1299.58 1
-15 -6 9 11289.4 1277.98 2
21 -14 -7 7234.32 514.639 3
-7 21 -4 8832.01 712.502 4
21 -14 -4 11256 825.407 3
-7 21 -1 40129.3 1497.53 4
-14 -7 -1 40249.7 938.472 1
-7 21 -1 36291 742.584 2
21 -14 -1 38757.5 1562.18 3
21 -14 -1 35906.8 1678.89 1
-7 21 -1 34592.5 755.776 2
-14 -7 2 26135.7 1411.94 2
-7 21 2 29440.9 1508.14 4
21 -14 2 28965.4 1152.87 4
-7 21 2 27758.3 1228.22 2
-14 -7 2 27037.1 1186.54 1
21 -14 2 30361.6 1396.52 1
21 -14 2 29446.1 1536.97 3
-7 21 5 51392.4 2262.67 4
-14 -7 5 55167.6 2216.83 1
-7 21 5 54749.9 2146.33 2
-14 -7 5 51284.7 2085.49 4
21 -14 5 55017 2233.35 3
-14 -7 5 53674.2 2046.04 2
21 -14 5 52060.1 1874.8 1
21 -14 8 12926.1 1309.66 2
-14 -7 8 12213.3 1524.68 1
-7 21 8 14068.4 1508.5 4
-7 21 8 11849.4 1411.32 2
-14 -7 8 13090.3 1301.92 4
21 -14 8 11433.1 1291.95 3
21 -14 8 14318.2 1251.78 1
-14 -7 8 11713.3 1205.48 2
-8 21 -5 9071.09 610.604 4
21 -13 -5 10444 777.466 3
-13 -8 -2 105407 1444.19 1
-8 21 -2 110094 2247.83 4
-8 21 1 22944.1 1263.52 4
21 -13 1 20992.5 1087.7 4
-8 21 1 24176.8 991.426 2
-13 -8 1 26594.2 1097.58 1
21 -13 1 24300.2 1363.87 3
21 -13 1 22468.8 1186.81 1
21 -13 4 26648.7 1305.26 1
-8 21 4 27561 1615.47 4
-13 -8 4 25269.4 1470.93 1
21 -13 4 24736.8 912.787 4
-8 21 4 25517.4 1406.97 2
-13 -8 4 24507.4 1460.95 4
21 -13 4 27623.7 1568.2 3
-13 -8 4 23847.8 1375.26 2
-13 -8 7 12740.7 1445.91 1
-8 21 7 13706.9 1482.95 4
-8 21 7 11747.8 1345.75 2
-13 -8 7 10806.2 1146.78 4
21 -13 7 12830 1280.4 3
21 -13 7 11849.1 1069.56 1
-13 -8 7 11359.2 1100.92 2
-8 21 10 8528.67 1368.66 4
21 -13 10 8080.1 1275.38 2
-13 -8 10 6492.68 1497.57 1
-8 21 10 9897.21 1577.22 2
-13 -8 10 8756.13 1253.32 4
21 -13 10 7443.18 1199.38 3
21 -13 10 10381 1238.03 1
-13 -8 10 7799.68 1169.11 2
-9 21 -6 13400.6 575.927 4
21 -12 -6 13419.5 751.533 3
-9 21 -3 29777.4 1102.65 4
-12 -9 -3 29731.7 922.761 1
21 -12 -3 29029.6 1290.23 3
-9 21 0 2880.66 636.007 4
-9 21 0 3647.69 379.604 2
21 -12 0 3799.51 706.764 1
21 -12 0 3452.94 705.076 3
-12 -9 0 3265.47 473.174 1
-12 -9 3 48908.3 1814.76 2
-9 21 3 55121 2060.63 4
21 -12 3 51502.5 1445.08 4
-9 21 3 50429 1712.46 2
-12 -9 3 51653.3 1803.6 1
21 -12 3 56019.2 1671.01 1
21 -12 3 50450.4 1966.31 3
-9 21 6 6368.14 1085.5 4
-12 -9 6 6683.38 1105.39 1
-9 21 6 4863.91 973.785 2
-12 -9 6 6143.83 907.424 4
21 -12 6 8129.68 1091.14 3
21 -12 6 6088.83 753.853 1
-12 -9 6 5872.33 870.085 2
21 -12 9 21265.6 1748.76 2
-9 21 9 20348.8 1853.43 4
-9 21 9 22014.3 1846.94 2
-12 -9 9 20030.5 1522.7 4
-12 -9 9 20547.7 1936.32 1
21 -12 9 20857.4 1653.18 3
21 -12 9 20531.6 1416.68 1
-12 -9 9 19974.2 1489.8 2
21 -11 -7 9080.27 610.891 3
-10 21 -4 24706 894.591 4
-10 21 -4 22536.6 840.523 4
21 -11 -4 23603.4 1129.48 3
-10 21 -1 19188.4 1030.05 4
-11 -10 -1 20018.9 918.56 1
21 -11 -1 20025.8 1242.23 1
21 -11 -1 19345.1 1158.13 3
-10 21 2 24560.4 1380.99 4
21 -11 2 24087.5 1115.88 4
-10 21 2 21297.5 1036.16 2
-11 -10 2 26066.7 1237.53 1
21 -11 2 25774.1 1430.58 3
21 -11 2 24568.3 1099.34 1
21 -11 5 16583.1 1047.74 1
-10 21 5 17972.3 1436.86 4
-11 -10 5 17025 1414.38 1
21 -11 5 14895.6 759.048 4
-10 21 5 19409.2 1356.82 2
-11 -10 5 17672.7 1285.27 4
21 -11 5 17194.5 1327.45 3
-11 -10 5 19850.5 1235.63 2
-11 -10 8 31517.2 2124.99 1
-10 21 8 30368.2 1998.3 2
-10 21 8 35435.6 2183.51 4
-11 -10 8 27758.4 1663.88 4
21 -11 8 32241.9 1877 3
21 -11 8 26849.5 1483.42 1
-11 -10 8 30044.7 1646.42 2
-11 21 -5 26160.6 679.347 4
-11 21 -5 24286.5 659.061 4
21 -10 -5 26724.1 1155.55 3
-11 21 -2 32053.3 1179.59 4
-10 -11 -2 34606.2 1190.14 1
-11 21 1 33671.2 1485.12 4
-11 21 1 34545.8 1100.99 2
21 -10 1 32147.1 1236.67 1
21 -10 1 36852.7 1633.07 3
-10 -11 1 32832.6 1276.99 1
-10 -11 4 22229.7 1238.95 2
-11 21 4 26501.5 1604.06 4
21 -10 4 22383.4 1045.88 1
-10 -11 4 25072 1464.74 1
21 -10 4 22005.4 998.233 4
-11 21 4 24384.6 1350.44 2
21 -10 4 23800.3 1488.64 3
21 -10 7 19889.8 829.339 4
-11 21 7 23365 1755.74 4
-10 -11 7 22509.2 1816.38 1
-11 21 7 22292.6 1644.69 2
-10 -11 7 22849.5 1445.7 4
21 -10 7 21941.7 1562.91 3
21 -10 7 22346.5 1226.38 1
-10 -11 7 19919.6 1328.55 2
21 -10 10 3589.11 1092.67 2
-11 21 10 4780.52 1247.16 4
-10 -11 10 5082.45 1424.57 1
-11 21 10 7690.47 1431.57 2
-10 -11 10 3888.88 954.65 4
21 -10 10 6030.29 1139.12 3
-10 -11 10 5165.44 990.081 2
21 -9 -6 4633.73 590.978 3
-12 21 -3 42234.9 1141.57 4
-9 -12 -3 39330.9 1392.68 1
21 -9 -3 39592.4 1487.55 3
-12 21 0 14547.6 946.992 4
-12 21 0 17566.9 641.179 2
21 -9 0 16454.9 1135.79 3
-9 -12 0 15107 915.95 1
21 -9 0 16476.9 993.115 1
-9 -12 3 31679.2 1431.23 2
-12 21 3 34755.9 1667.71 4
21 -9 3 30503.1 1250.94 4
-12 21 3 30544.8 1363.62 2
-9 -12 3 34080 1560.44 1
21 -9 3 32800.2 1667.46 3
21 -9 3 31602.9 1035.88 1
-12 21 6 19760.6 1545.18 4
-9 -12 6 18695.1 1523.22 1
-12 21 6 22447.1 1540.45 2
-9 -12 6 18737.4 1306.66 4
21 -9 6 18459.5 1420.17 3
21 -9 6 21590.6 1053.43 1
-9 -12 6 20940.9 1260.2 2
-12 21 9 11799.8 1553.72 4
-9 -12 9 12505.1 1648.29 1
-12 21 9 14479.4 1546.82 2
-9 -12 9 11926.3 1257.12 4
21 -9 9 11790.9 1483.25 2
21 -9 9 12712.7 1389.1 3
-9 -12 9 11533.8 1156.75 2
21 -8 -7 8446.46 688.034 3
-13 21 -4 29039.1 737.508 4
21 -8 -4 29465.7 1292.3 3
-8 -13 -4 31954.4 1382.59 1
-13 21 -1 12326.6 806.054 4
-13 21 -1 11557 401.289 2
-13 21 2 101065 2579.87 4
-13 21 2 95217.9 2047.25 2
-8 -13 2 98600.8 2401.83 1
21 -8 2 99746.7 2668 3
21 -8 2 93652.5 1671.7 1
21 -8 5 15524.6 793.055 1
-13 21 5 16953.3 1387.03 4
-8 -13 5 15963.8 1373.5 1
21 -8 5 14070.6 891.14 4
-13 21 5 12981 1159.2 2
21 -8 5 13232.2 1214.1 3
-8 -13 5 16338 1086.84 2
-13 21 8 15842 1577.52 4
-8 -13 8 17062.6 1688.09 1
-13 21 8 15062.2 1537.8 2
-8 -13 8 15564.9 1285.79 4
21 -8 8 16958.5 1456.38 3
21 -8 8 14814.9 1063.42 1
-8 -13 8 13919.8 1149.77 2
21 -7 -5 39547.2 1437.49 3
-7 -14 -5 43165.9 1798.79 1
-14 21 -2 46135.7 1311.23 4
21 -7 -2 49605.3 1730.44 3
-14 21 1 62158.2 1929.33 4
-14 21 1 61678.7 1457.52 2
21 -7 1 64391.1 2123 3
-7 -14 1 61424.4 1881.47 1
-7 -14 4 10211.1 877.071 2
-14 21 4 10941.8 1141.92 4
-7 -14 4 10072.2 1077.77 1
-14 21 4 11788.9 1003.08 2
21 -7 4 10415.1 492.448 1
-14 21 7 26444.7 1833.72 4
-7 -14 7 23967.6 1834.69 1
-14 21 7 25002.8 1700.6 2
21 -7 7 25295.7 1639.55 3
21 -7 7 22344.1 1026.55 1
-7 -14 7 23853.8 1322.48 2
21 -7 10 1564.28 1276.24 2
-14 21 10 -104.859 1023.98 4
-7 -14 10 4373.48 1347.44 1
-14 21 10 2707.6 1138.34 2
-7 -14 10 2438.37 849.834 4
21 -7 10 2303.69 996.165 3
-7 -14 10 2696.4 773.465 2
21 -6 -6 12505.2 894.196 3
-15 21 -3 31473 906.486 4
21 -6 -3 32766.1 1411.9 3
-6 -15 -3 30911 1454.19 1
-15 21 0 43170.9 1503.77 4
21 -6 0 46933.8 1841.23 3
-15 21 0 42971.8 1099.84 2
-6 -15 0 42249.3 1594.41 1
-15 21 3 28837.6 1504.5 4
-15 21 3 27548.6 1283.31 2
-6 -15 3 26970.1 1496.67 1
21 -6 3 27335.9 1548.57 3
21 -6 6 29765.9 915.807 1
-15 21 6 33999.3 1961.32 4
-6 -15 6 33184.7 1942.76 1
-15 21 6 32408.1 1779.18 2
21 -6 6 29825.4 1741.04 3
-6 -15 6 30242.8 1386.05 2
21 -6 9 3151.37 1144.2 2
-15 21 9 5886.61 1224.94 4
-6 -15 9 5843.63 1367.55 1
-15 21 9 6084 1204.14 2
21 -6 9 4434.49 1017.15 3
-6 -15 9 4929.55 847.154 2
21 -5 -7 2602.16 611.159 3
-5 -16 -4 12149.2 1116.97 1
21 -5 -4 11794 942.072 3
-16 21 -1 945.45 274.981 2
-16 21 -1 594.983 398.503 4
-5 -16 -1 1466.25 619.052 1
21 -5 -1 1648.92 612.015 3
-16 21 2 59720.1 2025.09 4
-16 21 2 60061.2 1665.25 2
21 -5 2 64724.8 2226.14 3
-5 -16 2 58588 2039.15 1
-5 -16 5 385.371 460.05 2
-16 21 5 -894.257 800.644 4
-16 21 5 643.801 626.746 2
-5 -16 5 1169.2 915.855 1
21 -5 5 683.175 709.82 3
21 -5 8 10349.3 950.969 4
-16 21 8 10595.5 1409.71 4
-5 -16 8 12503 1504.15 1
-16 21 8 13681.5 1460.75 2
21 -5 8 12950.2 1304.86 3
-5 -16 8 11130.6 1007.02 2
21 -4 -5 29877.4 1378.02 3
-4 -17 -5 34252.7 1798.44 1
-17 21 -2 15509.6 777.358 4
-4 -17 -2 18462.3 1226.91 1
21 -4 -2 19376.2 1215.73 3
-17 21 1 95240.2 2367.44 4
-17 21 1 92463.2 1896.05 2
21 -4 1 94739.9 2626.61 3
-4 -17 1 96281 2521.14 1
-17 21 4 24038.2 1544.86 4
-17 21 4 25328.6 1390.04 2
-4 -17 4 24477.6 1595.08 1
21 -4 4 24298.5 1529.31 3
-17 21 7 46484.8 2342.26 4
-4 -17 7 48196.5 2473.03 1
-17 21 7 47017.7 2243.37 2
21 -4 7 42112.6 2084.5 3
-4 -17 7 39074.9 1523.86 2
21 -4 10 6448.78 1447.78 2
-17 21 10 8328.8 1500.47 4
-4 -17 10 8143.88 1612.11 1
-17 21 10 7647.66 1429.31 2
21 -4 10 7645.76 1172.06 3
-3 -18 -6 17376.3 1513.34 1
21 -3 -6 13606.1 1050.18 3
-3 -18 -3 1812.38 771.204 1
-18 21 -3 2512.98 318.097 4
21 -3 -3 2385.32 675.88 3
-3 -18 0 27501 1499.95 1
-18 21 0 29774.2 1283.41 4
21 -3 0 30180.9 1550.08 3
-18 21 0 28418.4 1053.71 2
-18 21 3 5006.08 857.578 4
-3 -18 3 5052.37 933.404 1
-18 21 3 3337.39 644.457 2
21 -3 3 3984.1 852.472 3
-3 -18 6 79646.4 1988.4 2
-18 21 6 82696.1 2968.92 4
-3 -18 6 85230.1 3041.5 1
-18 21 6 81236.5 2742.27 2
21 -3 6 85303.7 2827.52 3
21 -3 9 3181.79 1190.89 2
-18 21 9 3903.34 1134.13 4
-3 -18 9 2645.9 1186.52 1
-18 21 9 1445.74 1037.61 2
21 -3 9 1271.99 833.082 3
-2 -19 -7 10151 1344.08 1
21 -2 -7 10716.9 991.521 3
21 -2 -4 3197.14 755.686 3
-2 -19 -4 4150.78 927.462 1
-19 21 -1 13052.9 772.257 2
-2 -19 -1 12632.2 1206.33 1
-19 21 -1 15264.7 884.648 4
21 -2 -1 14092.1 1145.35 3
-19 21 2 4133.55 764.304 4
-19 21 2 5601.4 717.628 2
21 -2 2 6113.97 952.07 3
-2 -19 2 5062.81 920.012 1
-19 21 5 4467.79 958.414 4
-19 21 5 5115.15 866.485 2
-2 -19 5 2983.56 924.39 1
21 -2 5 4666.59 941.951 3
21 -2 8 12101.8 1094.64 4
-19 21 8 11366.1 1432.47 4
-2 -19 8 12935.3 1605.07 1
-19 21 8 12320.5 1414.2 2
21 -2 8 12404 1296.25 3
-1 -20 -5 37078.5 2055.47 1
21 -1 -5 35044.4 1619.76 3
-20 21 -2 9319.4 647.121 4
-1 -20 -2 8653.3 1105.82 1
21 -1 -2 8909.18 995.491 3
-20 21 1 73626.3 2161.76 4
21 -1 1 69986.8 2385.59 3
-20 21 1 77680.4 1937.9 2
-1 -20 1 74607.4 2485.13 1
-20 21 4 8788.88 1087.62 4
-20 21 4 7058.18 899.278 2
-1 -20 4 7608.05 1100.97 1
21 -1 4 9204.36 1143.23 3
-20 21 7 29350.7 1965.7 4
-1 -20 7 29981.6 2116.65 1
-20 21 7 28692 1822.62 2
21 -1 7 27989.7 1813.3 3
21 -1 10 4162.41 1343.91 2
-20 21 10 3040.72 1198.27 4
-1 -20 10 3505.52 1375.35 1
-20 21 10 3439.85 1265.7 2
21 -1 10 1963.58 952.186 3
0 -21 -6 16346.2 1625.97 1
21 0 -6 17434.6 1273.14 3
0 -21 -3 1457.83 847.847 1
-21 21 -3 -154.593 266.228 4
21 0 -3 454.086 629.235 3
0 -21 0 64437.4 2371.46 1
-21 21 0 68751.3 1939.9 4
21 0 0 67094.7 2334.33 3
-21 21 0 65124.2 1780.67 2
-21 21 3 -184.854 598.32 4
-21 21 3 615.356 574.413 2
21 0 3 1173.52 756.996 3
0 -21 3 743.161 779.704 1
-21 21 6 19777.7 1613.14 4
0 -21 6 22564.9 1793.22 1
-21 21 6 19922.6 1501.74 2
21 0 6 19924 1565.34 3
21 0 9 493.495 671.627 4
-21 21 9 985.041 1099.48 4
0 -21 9 1946.83 1257.55 1
-21 21 9 953.703 991.106 2
21 0 9 1863.14 955.214 3
21 1 -7 21599.6 1489.62 3
1 -22 -7 20919.6 1919.07 1
1 -22 -4 -998.485 913.662 1
21 1 -4 -331.008 762.924 3
-22 21 -1 35438.7 1367.2 2
1 -22 -1 36435.3 1962.88 1
-22 21 -1 37328.9 1337.86 4
21 1 -1 38222.4 1830.16 3
-22 21 2 13456.6 1130.22 4
-22 21 2 12618.8 981.621 2
1 -22 2 11104.2 1241.62 1
-22 21 5 24395.9 1693.64 4
-22 21 5 21678.6 1501.34 2
1 -22 5 20873.6 1693.26 1
21 1 5 24483.6 1693.06 3
21 1 8 3890.34 906.468 4
-22 21 8 5569.78 1221.43 4
-22 21 8 4228.95 1166.63 2
1 -22 8 5445.97 1415.16 1
21 1 8 6204.69 1135.12 3
21 2 -8 3629.01 987.597 3
2 -23 -5 18215.4 1736.15 1
21 2 -5 13640.5 1237.68 3
-23 21 -2 12422.7 758.614 4
2 -23 -2 9718.46 1258.52 1
2 -23 1 31457.2 1853.15 1
-23 21 1 30203.7 1470.24 4
21 2 1 31198 1742.09 3
-23 21 1 31182.1 1416.5 2
-23 21 4 4329.13 930.121 4
-23 21 4 4639.03 832.279 2
21 2 4 4535.87 972.043 3
2 -23 4 2402.59 997.782 1
-23 21 7 24205.5 1913.22 4
2 -23 7 23753.1 2005.18 1
-23 21 7 20540.9 1640.86 2
21 2 7 23581.5 1731.54 3
21 3 -6 12469.3 1214.48 3
3 -24 -6 15472.4 1797.32 1
-24 21 -3 8974.18 614.499 4
21 3 -3 11111.3 1208.28 3
3 -24 0 48158.2 2328.63 1
-24 21 0 58459 1868.01 4
21 3 0 56905.9 2345.08 3
-24 21 0 50233.4 1785.46 2
3 -24 3 4558.58 1061.08 1
-24 21 3 4695.03 877.208 4
21 3 3 4121.1 960.144 3
-24 21 3 3874.5 753.706 2
-24 21 6 11155.4 1360.38 4
-24 21 6 9833.29 1244.22 2
3 -24 6 11217 1539.25 1
21 3 6 9608.86 1253.27 3
21 3 9 1207.8 802.762 4
-24 21 9 2115.8 1157.08 4
-24 21 9 1653.91 1062.13 2
3 -24 9 1418.82 1147.73 1
21 3 9 584.512 926.839 3
4 -25 -7 21351 2129.38 1
21 4 -7 22891.7 1661.75 3
4 -25 -4 6741.65 1298.79 1
21 4 -4 8646.88 1128.14 3
-25 21 -1 40546.7 1653.04 2
4 -25 -1 35816.2 2128.28 1
-25 21 -1 39629.4 1469.55 4
21 4 -1 39307.1 1986.57 3
4 -25 2 944.835 889.239 1
-25 21 2 816.729 669.716 4
21 4 2 533.27 760.301 3
-25 21 2 -1159.86 643.511 2
-25 21 5 18025.5 1538.5 4
-25 21 5 17688.6 1412.12 2
4 -25 5 15883.2 1647.68 1
21 4 5 16677.2 1479.76 3
-25 21 8 6410.3 1353.69 4
-25 21 8 4199.67 1088.83 2
4 -25 8 3218.32 1219.66 1
21 4 8 3930.49 1087.14 3
21 5 -8 4357.34 1138.07 3
5 -26 -8 5504.2 1532.57 1
5 -26 -5 9256.92 1528.37 1
21 5 -5 12488.9 1280.63 3
5 -26 -2 3052.04 1111.16 1
-26 21 -2 1399.39 474.884 4
21 5 -2 2032.52 910.513 3
-26 21 1 2098.41 696.908 2
5 -26 1 1113.47 938.605 1
-26 21 1 746.158 609.943 4
21 5 1 965.137 835.613 3
5 -26 4 2021.52 1022.14 1
-26 21 4 2708.97 855.761 4
-26 21 4 3758.05 829.042 2
21 5 4 4372.72 1048.4 3
-26 21 7 919.633 894.204 4
-26 21 7 -67.9781 828.006 2
5 -26 7 149.686 1021.98 1
21 5 7 1349.08 960.393 3
6 -27 -6 4964.29 1317.77 1
21 6 -6 7047.87 1256.19 3
-27 21 -3 6471.25 613.563 4
6 -27 -3 8142.22 1356.97 1
21 6 -3 7086.57 1155.99 3
-27 21 0 6370.14 908.389 2
-27 21 0 6237.2 797.728 4
6 -27 0 4287.45 1137.4 1
-27 21 3 14638.9 1319.43 4
-27 21 3 9148.86 1082.13 2
21 6 3 12659.1 1349.17 3
6 -27 3 9595.43 1480.88 1
-27 21 6 12238.6 1477.34 4
-27 21 6 7961.8 1174.94 2
6 -27 6 8684.53 1442.66 1
21 6 6 8297.14 1270.56 3
21 7 -7 6600.35 1308.99 3
7 -28 -7 7351.45 1676.53 1
7 -28 -4 6123.23 1367.67 1
21 7 -4 7941.2 1255.22 3
-28 21 -1 17020.8 1114.38 4
7 -28 -1 16463.4 1731.44 1
7 -28 2 2844.8 1173.13 1
-28 21 2 5435.91 937.097 4
21 7 2 5393.55 1118.39 3
-28 21 2 5899.68 962.991 2
-28 21 5 14316.6 1481.56 4
-28 21 5 11970.9 1321.84 2
21 7 5 14016.5 1527.92 3
7 -28 5 13313.9 1636.06 1
-28 21 8 2976.62 1138.1 2
21 7 8 1406.09 1001.55 3
7 -28 8 3427.66 1491.6 1
21 8 -5 276.931 960.76 3
8 -29 -5 472.258 1121.17 1
8 -29 -2 5055.55 1254.3 1
-29 21 -2 3510.17 616.117 4
21 8 -2 4045.98 1080.82 3
-29 21 1 911.333 726.767 2
-29 21 1 1760.05 680.907 4
8 -29 1 1975.18 1072.78 1
21 8 1 1006.37 878.149 3
8 -29 4 1508.22 1040.22 1
-29 21 4 611.675 764.762 4
21 8 4 1048.76 936.346 3
-29 21 4 895.394 818.146 2
-29 21 7 -297.714 945.767 4
-29 21 7 569.124 874.04 2
21 8 7 2559.82 1070.66 3
8 -29 7 759.324 1156.37 1
9 -30 -6 9681.55 1882.26 1
21 9 -6 9847.1 1504.66 3
9 -30 -3 23345.6 2147.95 1
21 9 -3 28602.8 2007.78 3
-30 21 0 12026.3 1281.68 2
9 -30 0 11573.1 1617.35 1
-30 21 0 10853.9 1042.27 4
21 9 0 13415 1512.48 3
9 -30 3 19354.3 1861.18 1
-30 21 3 22242.3 1632.72 4
-30 21 3 22965.4 1663.96 2
9 -30 6 4576.27 1393.57 1
-30 21 6 4878.65 1177.64 4
-30 21 6 3482.19 1061.8 2
21 9 6 2494.11 1130.54 3
10 -31 -4 5211.9 1532.09 1
21 10 -4 6490.62 1353.58 3
-31 21 -1 10003.1 1013.82 4
10 -31 -1 10318.4 1546.42 1
21 10 -1 11724.8 1519.38 3
10 -31 2 4990.2 1256.67 1
-31 21 2 5345.89 1029.59 4
21 10 2 3914.29 1195.16 3
-31 21 2 6152.25 1053.73 2
10 -31 5 4886.56 1296.99 1
-31 21 5 7720.01 1330.97 4
-31 21 5 5485.66 1165.03 2
21 10 5 5444.18 1266.86 3
21 11 -5 1029.18 1125.17 3
11 -32 -5 -4.90203 1246.9 1
11 -32 -2 2716.48 1388.64 1
-32 21 -2 1506.8 625.858 4
21 11 -2 1402.24 1060.48 3
-32 21 1 2110.9 910.96 2
-32 21 1 3634.14 896.426 4
11 -32 1 4357.85 1393.78 1
21 11 1 2413.44 1093.81 3
11 -32 4 2069.5 1291.6 1
-32 21 4 2333.63 954.299 4
21 11 4 2157.33 1118.18 3
-32 21 4 653.732 894.783 2
12 -33 -3 4313.32 1430.47 1
21 12 -3 8607.64 1498.02 3
-33 21 0 1979.46 908.777 2
-33 21 0 2153.82 833.883 4
12 -33 0 1780.75 1228.85 1
21 12 0 5035.25 1294.18 3
12 -33 3 12283.1 1781.32 1
-33 21 3 16529.9 1578.93 4
-33 21 3 15076.7 1564.09 2
21 13 -4 3727.99 1353.02 3
13 -34 -4 3245.96 1438.62 1
13 -34 -1 -467.434 1143.75 1
-34 21 -1 194.181 611.586 4
21 13 -1 1270.17 1096.9 3
-34 21 2 10833.2 1301.18 4
13 -34 2 7297.51 1633.29 1
21 13 2 8528.5 1563.28 3
-34 21 2 7716.94 1279.3 2
14 -35 -2 2216.63 1374.42 1
21 14 -2 1786.07 1301.25 3
-35 21 1 2468.08 1081.75 2
-35 21 1 4345.84 1028.81 4
14 -35 1 5633.8 1511.59 1
21 14 1 2528.95 1266.59 3
-36 21 0 1373.25 860.624 4
15 -36 0 691.009 1359.91 1
21 15 0 1826.12 1277.35 3
14 22 1 6572.82 1719.26 3
-36 14 1 6962.57 1270.92 4
22 -36 1 4100.38 1465.2 1
13 22 -3 1237.58 1358.61 3
22 -35 -3 362.264 1345.65 1
13 22 0 4079.74 1582.43 3
22 -35 0 6211.88 1633.74 1
-35 13 0 5215.29 1130.69 4
13 22 3 1500.56 1325.28 3
-35 13 3 747.88 1080.28 2
-35 13 3 1180.62 975.916 4
22 -35 3 386.613 1201.18 1
12 22 -4 1815.87 1511.58 3
22 -34 -4 -1503 1437.22 1
12 22 -1 -1073.17 1380.6 3
22 -34 -1 5119.09 1539.35 1
12 22 2 367.439 1152.32 3
-34 12 2 3095.49 1163.29 2
-34 12 2 963.429 899.171 4
22 -34 2 906.159 1212.08 1
11 22 -5 7881.39 1798.89 3
22 -33 -5 2241.96 1414.35 1
11 22 -2 1898.17 1476.32 3
22 -33 -2 2791.1 1413.77 1
-33 11 1 7094.7 1376.88 2
-33 11 1 9812.76 1272.46 4
22 -33 1 10841.7 1712.73 1
11 22 1 12162.7 1823.93 3
11 22 4 390.051 1179.03 3
-33 11 4 22.6369 1023.87 2
-33 11 4 571.669 978.245 4
22 -33 4 -729.804 1211.05 1
10 22 -3 1975.23 1337.94 3
22 -32 -3 1799.89 1212.7 1
10 22 0 10521.5 1698.47 3
-32 10 0 10182.4 1252.38 4
22 -32 0 9640.5 1577.81 1
10 22 3 4710.29 1405.41 3
-32 10 3 5241.82 1251.23 2
-32 10 3 4068.41 1109.83 4
22 -32 3 4367 1434.36 1
9 22 -4 76.2765 1373.39 3
22 -31 -4 1434.97 1218.25 1
9 22 -1 653.217 1284.63 3
22 -31 -1 2626.3 1267.61 1
9 22 2 2373.83 1306.59 3
-31 9 2 1522.57 924.043 2
-31 9 2 2029.55 938.739 4
22 -31 2 -584.736 1057.87 1
-31 9 5 1375.11 1056.91 2
9 22 5 584.99 1151.28 3
9 22 5 -882.932 1120.43 2
22 -31 5 1012.12 1135.99 1
-31 9 5 -360.509 931.138 4
8 22 -5 11500.4 1843.51 3
22 -30 -5 7018.65 1635.22 1
8 22 -2 8638.49 1681.5 3
22 -30 -2 7276.02 1638.12 1
8 22 1 16588.3 1852.81 3
-30 8 1 14382.7 1580.69 2
22 -30 1 14362.8 1739.96 1
-30 8 1 17615 1441.02 4
8 22 4 2058.98 1212.06 3
-30 8 4 2051.03 945.624 2
22 -30 4 371.802 1017.99 1
-30 8 4 2758.28 1051.49 4
8 22 7 8074.17 1563.45 3
8 22 7 5363.85 1323.89 4
22 -30 7 7309.1 1509.05 1
8 22 7 7389.22 1553.06 2
-30 8 7 7360.01 1385.85 2
7 22 -6 3104.83 1408.24 3
22 -29 -6 3796.82 1548.02 1
22 -29 -3 7252.64 1454.21 1
7 22 -3 9481.75 1703.6 3
7 22 0 7995 1425.08 3
22 -29 0 5966.13 1283.14 1
-29 7 0 8412.6 1100.6 4
-29 7 3 8245.28 1339.45 2
22 -29 3 9784.41 1560.73 1
-29 7 3 9711.48 1251.23 4
7 22 3 9418.39 1564.77 3
22 -29 6 8745.72 1539.4 1
7 22 6 10408.5 1507.37 2
7 22 6 7228.21 1323.61 4
-29 7 6 8738.61 1365.48 4
-29 7 6 8382.63 1371.74 2
7 22 6 11128.3 1624.47 3
22 -28 -7 1674.57 1483.95 1
6 22 -4 6601.09 1581.15 3
22 -28 -4 4449.09 1409 1
6 22 -1 8594.38 1564.89 3
22 -28 -1 3704.78 1197.45 1
6 22 2 2876.71 1185.23 3
-28 6 2 1903.66 937.941 2
-28 6 2 4123.37 977.458 4
22 -28 2 2591.82 1091.25 1
-28 6 5 457.785 828.593 2
6 22 5 1404.66 1123.6 3
6 22 5 1602.36 953.414 4
6 22 5 2617.44 1080.11 2
22 -28 5 1091.14 1086.58 1
-28 6 5 1068.32 856.612 4
22 -27 -5 11117.4 1740.46 1
5 22 -5 12882.7 1798.42 3
5 22 -2 26566.5 2217.8 3
22 -27 -2 24943.9 2082.4 1
5 22 1 27456.7 2075.34 3
-27 5 1 29806.3 1897.9 2
22 -27 1 25904.4 1949.18 1
-27 5 1 28772 1704.86 4
-27 5 4 5357.12 1073.77 2
5 22 4 6555.28 1371.71 3
5 22 4 6753.9 1194.17 2
22 -27 4 5336.55 1220.6 1
-27 5 4 6324.46 1103.83 4
5 22 7 9273.29 1519.27 3
5 22 7 8433.04 1376.98 4
5 22 7 10845.8 1592.25 2
-27 5 7 9550.4 1464.57 4
-27 5 7 10224.8 1495.84 2
22 -27 7 11774.1 1621.95 1
22 -26 -6 2423.15 722.155 3
22 -26 -6 1940.88 1416.45 1
4 22 -3 17224.7 1884.52 3
22 -26 -3 13032.5 1703.35 1
4 22 0 13941.9 1658.65 3
-26 4 0 10520.9 475.796 1
-26 4 0 13839 1233.6 4
22 -26 0 11608.5 1503.99 1
4 22 3 8413.88 1430.57 3
-26 4 3 5172.7 1074.22 2
-26 4 3 6336.54 1078.17 4
22 -26 3 4454.74 1210.51 1
4 22 6 9593.17 1431.87 3
4 22 6 9730.4 1355.24 4
4 22 6 11056.9 1465.9 2
22 -26 6 8288 1318.68 1
-26 4 6 8276.57 1284.47 4
-26 4 6 8765.22 1359.64 2
22 -25 -7 2826.09 1530.52 1
3 22 -4 15131.2 1826.46 3
22 -25 -4 18193.4 1970.78 1
3 22 -1 13236.6 1688.09 3
22 -25 -1 13502.6 1581.94 1
3 22 2 10255.2 1487.3 3
-25 3 2 7950.25 1168.96 2
22 -25 2 8293.66 1333.33 1
-25 3 2 9417.93 1141.89 4
-25 3 5 2636.62 926.013 2
3 22 5 3436.08 1158.17 3
3 22 5 2459.3 1024.2 4
3 22 5 2124.2 897.063 2
22 -25 5 3026.59 1082.54 1
-25 3 5 3703.53 988.828 4
3 22 8 16308.6 1755.36 3
3 22 8 12185.1 1574.41 4
3 22 8 16412.9 1908.09 2
-25 3 8 11065.8 1572.42 4
-25 3 8 13723.5 1568.09 2
22 -25 8 13197.7 1635.21 1
22 -24 -5 14152.5 1835.05 1
22 -24 -5 14644.5 1144.38 3
2 22 -2 6906.38 1426.87 3
22 -24 -2 6757.22 1248.36 1
-24 2 1 32557.6 1886.73 2
-24 2 1 33914 1166.84 1
22 -24 1 32141.4 1997.92 1
-24 2 1 34155.9 1785.75 4
-24 2 4 3402.5 993.362 2
2 22 4 1823.48 1116.96 3
2 22 4 3110.78 951.393 2
2 22 4 2654.17 985.235 4
22 -24 4 2730.82 989.274 1
-24 2 4 2269.8 856.656 4
2 22 7 27893.9 2038.21 3
2 22 7 29264 2096.15 4
-24 2 7 33003.5 2128.22 4
2 22 7 30256.6 2172.96 2
-24 2 7 27504.6 1998.3 2
22 -24 7 26374.5 2002.67 1
22 -23 -6 5260.02 1476.95 1
22 -23 -6 3815.24 651.416 3
1 22 -3 20659.9 1903.96 3
22 -23 -3 17248.4 1656.77 1
-23 1 0 14730.1 487.871 1
-23 1 0 15862.9 475.417 1
22 -23 0 16751.7 1543.06 1
1 22 3 10127.2 1416.75 3
1 22 3 11392.8 1170.76 2
-23 1 3 13937 1307.24 4
22 -23 3 11502.1 1372.85 1
-23 1 3 12051 1287.24 2
1 22 6 4859.16 1236.19 3
22 -23 6 5789.03 1120.73 1
1 22 6 4797.94 1117 4
1 22 6 6420.13 1316.06 2
-23 1 6 6617.03 1151.91 4
-23 1 6 4392.49 974.126 2
22 -23 9 3045.6 1156.75 1
1 22 9 5015.16 1312.57 4
-23 1 9 4748.05 1246.78 4
22 -23 9 4249.31 1192.36 3
1 22 9 3583.37 1329.73 2
-23 1 9 2678.5 1097.73 2
22 -22 -4 28974.5 2128.91 1
0 22 -4 31252.9 2247.96 3
22 -22 -4 32949.7 1533.4 3
0 22 -1 326.453 1096.99 3
22 -22 -1 488.426 875.433 1
0 22 -1 896.169 423.852 2
-22 0 2 21877.1 1561.89 2
0 22 2 22128.6 1830.46 3
22 -22 2 18859.6 1040.22 4
0 22 2 20403.9 1323.15 2
22 -22 2 19779.4 1561.17 1
22 -22 2 17356.5 952.449 2
-22 0 2 19731.7 1404.79 4
-22 0 2 19923 1152.61 1
0 22 5 -89.4958 1025.18 3
0 22 5 883.659 871.02 4
22 -22 5 250.828 853.318 1
0 22 5 1445.93 879.981 2
-22 0 5 334.487 736.775 4
-22 0 5 1066.39 775.169 2
0 22 8 27617.8 1938.32 3
0 22 8 22049.2 1876.94 4
0 22 8 25151.3 2038.17 2
-22 0 8 26618.8 1987.99 4
22 -22 8 27490.3 1954.19 3
-22 0 8 26190.3 1876.59 2
22 -22 8 28082.6 1940.12 1
22 -21 -5 23587 1232.15 3
22 -21 -5 23114.9 2026.9 1
-1 22 -2 17543.7 1731.18 3
22 -21 -2 14995.7 1451.1 1
-1 22 -2 11810.7 701.835 2
-1 22 1 41278.9 2299.46 3
-21 -1 1 40127.3 1990.99 2
-21 -1 1 42152.1 1204.89 1
-21 -1 1 41931.8 1279.53 1
-21 -1 1 43433.1 1919.12 4
22 -21 1 40040.9 2057.81 1
-1 22 1 42410.6 1624.87 2
-21 -1 4 551.013 776.28 2
-1 22 4 352.6 1092.82 3
-1 22 4 110.753 757.769 4
-1 22 4 -117.539 749.411 2
22 -21 4 -826.356 816.976 1
-21 -1 4 165.924 738.438 4
-1 22 7 26890.8 1882.62 3
-1 22 7 25580.6 1987.58 4
-1 22 7 25690.3 1901.67 2
-21 -1 7 25522.6 1824.92 4
22 -21 7 29664.1 1937.05 3
-21 -1 7 23956.2 1741.06 2
22 -21 7 27118 1859.4 1
22 -20 -6 5863.94 653.394 3
22 -20 -6 5763.82 1417.52 1
-2 22 -3 14940.6 651.115 2
22 -20 -3 19987.3 1225.93 3
22 -20 -3 18720.2 1645.18 1
-2 22 0 4460.94 593.53 2
-2 22 0 4903.21 1309.93 3
-2 22 0 5039.02 668.865 2
22 -20 0 5131.49 1012.74 1
-20 -2 0 5075.25 321.461 1
-20 -2 0 4881.08 357.803 1
-2 22 3 12364.6 1458.55 3
22 -20 3 12681.6 721.113 4
-2 22 3 13998.6 1285.2 4
-2 22 3 14274 1211.04 2
22 -20 3 11621.7 1185.91 1
-20 -2 3 17191.2 1378.02 4
22 -20 3 11707 807.135 2
-20 -2 3 17105.3 1177.47 1
-20 -2 3 17622.6 1354.64 2
-2 22 6 4388.37 1130.19 3
22 -20 6 2786.71 931.89 1
-2 22 6 1561.7 901.695 4
-2 22 6 3476.95 1027.68 2
-20 -2 6 2910.6 908.548 4
22 -20 6 3090.48 899.108 3
-20 -2 6 3024.1 898.642 2
-2 22 9 10354.9 1542.96 4
-2 22 9 12811.6 1696.22 2
-20 -2 9 10827.5 1447.21 4
22 -20 9 13481.9 1588.83 3
22 -20 9 12663.4 1475.19 1
-20 -2 9 10702.1 1375.17 2
22 -19 -4 24772.2 1917.54 1
22 -19 -4 26296.7 1283.52 3
-3 22 -1 3402.48 1232.56 3
-3 22 -1 5359.9 563.828 2
22 -19 -1 7190.71 1087.1 1
22 -19 -1 6062.87 881.833 3
-3 22 -1 4727.76 480.473 2
-19 -3 2 63575.9 2337.37 2
-3 22 2 69460.9 2751.75 3
-3 22 2 61204.7 2289.31 4
22 -19 2 54677.2 1582.33 4
-3 22 2 61068 1946.08 2
-19 -3 2 66312.6 1787.06 1
22 -19 2 57742.6 2230.64 1
-19 -3 2 56426.4 1880.76 1
-19 -3 2 62311.3 2246.19 4
22 -19 2 56071.6 2176.34 3
-3 22 5 1775.03 984.666 3
-3 22 5 -142.196 896.135 4
-3 22 5 1314.75 890.14 2
22 -19 5 1449.96 816.497 1
-19 -3 5 1187.57 711.774 4
22 -19 5 818.152 771.763 3
-19 -3 5 553.371 691.442 2
-3 22 8 18473.1 1524.84 3
-3 22 8 21682.1 1822.38 4
-3 22 8 18462.6 1769.42 2
-19 -3 8 19611.3 1659.27 4
22 -19 8 20683.2 1732.42 3
22 -19 8 20407.9 1615.88 1
-19 -3 8 20782.2 1614.9 2
22 -18 -5 15686.5 1654.21 1
22 -18 -5 19075.6 1032.31 3
-4 22 -2 10610.8 501.439 2
22 -18 -2 11664.1 979.679 3
22 -18 -2 10580.7 1228.19 1
-4 22 -2 10490.1 470.122 2
-4 22 1 13149.9 1514.09 3
-4 22 1 12908.5 1156.51 4
-4 22 1 10798.2 836.622 2
-18 -4 1 12323.4 713.104 1
22 -18 1 11663.4 1078.02 3
22 -18 1 8892.18 1064.74 1
-18 -4 4 2703.74 823.741 2
-4 22 4 1905.74 1008.69 3
22 -18 4 1584.35 278.192 4
-4 22 4 2414.54 909.135 4
-18 -4 4 1654.92 731.118 1
-4 22 4 1724.92 735.686 2
22 -18 4 1234.38 719.979 1
-18 -4 4 2412.67 807.387 4
22 -18 4 909.002 838.131 3
-4 22 7 7806.41 1162.53 3
22 -18 7 9413.15 1031.16 2
-4 22 7 6837.69 1177.65 4
-4 22 7 8380.19 1295.5 2
-18 -4 7 8785.97 1182.59 4
22 -18 7 6961.2 1146.81 3
-18 -4 7 7978.34 1121.84 2
22 -18 7 8202.75 1097.03 1
-18 -4 10 4116.54 1443.64 1
-4 22 10 2517.18 1135.17 4
-4 22 10 2506.05 1340.72 2
-18 -4 10 2013.15 1057.61 4
22 -18 10 729.208 943.018 3
-18 -4 10 2217.75 1011.58 2
22 -18 10 991.675 1024.25 1
22 -17 -6 2478.67 493.179 3
22 -17 -3 9122.43 1241.9 1
22 -17 -3 10757.1 925.353 3
22 -17 0 17376.9 1336.83 1
-5 22 0 17241.2 1207.78 4
-5 22 0 17332 852.142 2
22 -17 0 15481.8 1151.17 3
-17 -5 0 14949.1 626.479 1
-17 -5 3 26404 1572.28 2
-5 22 3 28148.4 1812.18 3
-5 22 3 27480.4 1614.73 4
22 -17 3 26146.1 974.207 4
-17 -5 3 26775.5 1369.83 1
-5 22 3 26924.8 1418.2 2
22 -17 3 28908.9 1582.34 1
-17 -5 3 25753.8 1536.74 4
22 -17 3 25422.8 1527.22 3
-5 22 6 10970.2 1258.09 3
-17 -5 6 12334 1355.36 1
-5 22 6 10455 1290.99 4
-5 22 6 10801.4 1290.04 2
-17 -5 6 10484.9 1175.87 4
22 -17 6 11964.5 1306.4 3
-17 -5 6 8882.33 1084.63 2
22 -17 6 13412.2 1222.23 1
-17 -5 9 19050.2 1981.52 1
22 -17 9 18259.8 1494.45 2
-5 22 9 21937.6 1897.36 4
-5 22 9 21724.5 1896.24 2
-17 -5 9 16632.7 1560.34 4
22 -17 9 19189.3 1676.57 3
22 -17 9 17033.6 1518.63 1
-17 -5 9 20132.2 1634.48 2
22 -16 -4 14224.6 1479.51 1
22 -16 -4 14301.7 946.011 3
-6 22 -1 6557.96 426.733 2
-16 -6 -1 7025.86 331.947 1
22 -16 -1 6655.39 965.458 1
22 -16 -1 7819.92 874.584 3
-6 22 -1 6557.83 396.366 2
-16 -6 2 46396.1 1967.52 2
-6 22 2 46407 2158.8 3
-6 22 2 46609 1919.62 4
22 -16 2 45681.5 1431.76 4
-6 22 2 50857 1656.64 2
-16 -6 2 49651.1 1562.82 1
22 -16 2 44714.9 1807.3 1
22 -16 2 47741.8 1968.78 3
-16 -6 5 4095.68 826.344 2
-6 22 5 4954.31 1001.29 3
-6 22 5 3596.57 983.623 4
22 -16 5 3852.94 840.451 1
-16 -6 5 4281.91 914.958 1
-6 22 5 2565.13 833.575 2
-16 -6 5 4708.66 912.097 4
22 -16 5 3978.09 957.422 3
22 -16 8 49406.7 2162.99 2
-16 -6 8 47794.5 2620.01 1
-6 22 8 53584 2696.77 4
-6 22 8 55301.6 2696.24 2
-16 -6 8 46528.4 2281.33 4
22 -16 8 52287.8 2388.98 3
22 -16 8 52178.9 2211.72 1
-16 -6 8 45996.8 2204.76 2
22 -15 -5 17315.9 973.893 3
22 -15 -2 32049.3 1738.64 1
-7 22 -2 29566.1 1303.77 4
22 -15 -2 33313.8 1472.82 3
-7 22 1 2535.2 711.948 4
-7 22 1 1679.29 483.409 2
22 -15 1 2344.03 667.635 1
22 -15 1 2141 736.258 3
-15 -7 1 702.94 380.559 1
-15 -7 4 2818.15 761.752 2
-7 22 4 3606.81 945.572 4
22 -15 4 2891.2 407.845 4
-15 -7 4 2912.84 774.769 1
-7 22 4 3951.4 819.186 2
22 -15 4 2415.27 691.204 1
-15 -7 4 4376.04 852.099 4
22 -15 4 2965.58 832.752 3
-7 22 7 5075.11 1092.22 4
-7 22 7 5972.37 1100.32 2
-15 -7 7 4390.33 968.182 4
22 -15 7 5659.93 1034.37 3
-15 -7 7 6643.03 1178.54 1
22 -15 7 7726.9 993.497 1
-15 -7 7 6470.58 1014.11 2
-7 22 10 -301.728 1054.82 4
22 -15 10 351.916 847.23 2
-15 -7 10 836.714 1264.21 1
-7 22 10 1321.41 1167.45 2
-15 -7 10 1920.34 876.666 4
22 -15 10 1046.69 934.473 3
22 -15 10 1695.04 848.673 1
-15 -7 10 286.893 823.519 2
22 -14 -6 18077.5 921.466 3
-8 22 -3 50850.1 1536.48 4
22 -14 -3 53334.2 2294.25 1
22 -14 -3 49777.4 1681.16 3
-8 22 0 28375.9 910.15 2
22 -14 0 32284.1 1517.9 1
22 -14 0 28780.1 1447.29 3
-8 22 0 29269.3 1395.55 4
-14 -8 0 28133.2 979.896 1
-14 -8 3 56987.6 2059.45 2
-8 22 3 58303.7 2224.32 4
22 -14 3 50937.7 1452.16 4
-8 22 3 57219.6 1887.8 2
-14 -8 3 59467.4 1941.94 1
22 -14 3 58353.5 1885.42 1
22 -14 3 56061.9 2153.34 3
-14 -8 6 6152.33 1103.49 1
-8 22 6 5773.56 1075.13 4
-8 22 6 4237.4 918.63 2
-14 -8 6 6295.79 983.619 4
22 -14 6 6141.16 1021.28 3
-14 -8 6 5138.98 910.558 2
22 -14 6 6406.8 863.123 1
22 -14 9 23211.9 1748.66 2
-14 -8 9 25599.3 2152.01 1
-8 22 9 24482.6 1991.35 4
-8 22 9 29387.1 2160.33 2
-14 -8 9 22597.6 1693.29 4
22 -14 9 24354.2 1816.27 3
22 -14 9 25164.6 1618 1
-14 -8 9 22927.2 1660.56 2
22 -13 -7 9943.88 645.998 3
-9 22 -4 32667.4 1137.74 4
22 -13 -4 34888.2 1358.55 3
22 -13 -1 17051.7 1207.3 1
-9 22 -1 14971.4 973.439 4
-13 -9 -1 13643.7 721.895 1
-9 22 -1 11941.3 328.104 2
22 -13 -1 17203.5 1146.77 3
-9 22 -1 11748 346.429 2
-9 22 2 76042.8 2365.59 4
22 -13 2 72608.8 1860.9 4
-9 22 2 74839.3 1901.78 2
-13 -9 2 80008.2 2048.04 1
22 -13 2 76521.1 2434.83 3
22 -13 2 72497.8 1987.38 1
22 -13 5 4224.78 724.717 1
-9 22 5 4733.26 971.743 4
-13 -9 5 5203.75 991.723 1
-9 22 5 4403.91 906.121 2
-13 -9 5 3592.6 845.244 4
22 -13 5 4020.28 910.951 3
-13 -9 5 5685.74 838.257 2
22 -13 8 25528.7 1722.08 2
-13 -9 8 28788.3 2115.36 1
-9 22 8 28803.3 2001.46 4
-9 22 8 27930.9 1922.99 2
-13 -9 8 29098.1 1788.65 4
22 -13 8 25916.4 1777.27 3
22 -13 8 25856.5 1508.1 1
-13 -9 8 22448.3 1552.42 2
-10 22 -5 25169.4 833.959 4
-10 22 -5 24322 845.568 4
22 -12 -5 25572.7 1169.17 3
-10 22 -2 33566.3 1265.81 4
22 -12 -2 33737.6 1729.3 1
22 -12 -2 37574.6 1538.77 3
-12 -10 -2 37911.6 1110 1
-10 22 1 22292.4 1286.05 4
22 -12 1 21951.5 1150.4 1
-10 22 1 23680 953.992 2
22 -12 1 23914.6 1384.7 3
-12 -10 1 21546.7 1049.02 1
-12 -10 4 14494.1 1115.39 2
-10 22 4 16584.3 1334.59 4
22 -12 4 15898.8 1000.31 1
22 -12 4 15488.9 841.017 4
-12 -10 4 14720.3 1178.25 1
-10 22 4 17664.7 1218.19 2
22 -12 4 13755.9 1230.88 3
22 -12 7 206.296 548.424 1
-10 22 7 771.647 837.889 4
-12 -10 7 619.323 864.344 1
-10 22 7 693.697 862.298 2
-12 -10 7 401.786 703.011 4
22 -12 7 909.034 814.062 3
-12 -10 7 -117.198 645.135 2
22 -12 10 12073.4 1544.56 2
-12 -10 10 12287.1 1712.99 1
-10 22 10 12141.6 1648.7 4
-10 22 10 9773.76 1531.33 2
-12 -10 10 10661.3 1308.42 4
22 -12 10 10310 1399.21 3
-12 -10 10 11662.8 1319.13 2
22 -11 -6 13921 843.632 3
-11 22 -3 52187.4 1395.71 4
-11 -11 -3 55774.9 1460.12 1
22 -11 -3 54904.2 1747.89 3
-11 -11 0 1439.22 497.159 1
-11 22 0 2167.33 612.704 4
-11 22 0 1650.81 297.779 2
22 -11 0 2322.31 687.891 3
22 -11 0 1477.07 572.112 1
-11 -11 3 64995.7 2103.39 2
-11 22 3 68321.6 2293.93 4
22 -11 3 57903.6 1672.81 4
-11 22 3 64982.6 1935.95 2
-11 -11 3 62055.1 2038.04 1
22 -11 3 57047.3 2175.79 3
22 -11 3 60108.2 1607.37 1
-11 22 6 8754.89 1219.98 4
-11 -11 6 8847.69 1211.88 1
-11 22 6 7817.84 1029.85 2
-11 -11 6 7420.15 1012.62 4
22 -11 6 9288.82 1122.37 3
-11 -11 6 6039.7 840.582 2
22 -11 6 7840.63 806.355 1
22 -11 9 46165.7 2458.88 2
-11 -11 9 52343.2 2910.99 1
-11 22 9 53407.2 2804.66 4
-11 22 9 49976.9 2663.34 2
-11 -11 9 48772.9 2229.09 4
22 -11 9 52067.7 2464.91 3
-11 -11 9 45078 2091.23 2
22 -10 -7 1928.41 472.897 3
-12 22 -4 20019.3 767.848 4
-10 -12 -4 19284.9 1050.96 1
-12 22 -4 18430.9 730.662 4
22 -10 -4 20124 1110.76 3
-12 22 -1 28438.1 1217.47 4
-10 -12 -1 27025.3 1150.32 1
22 -10 -1 27911.2 1398.34 3
-12 22 -1 23800.6 425.699 2
-12 22 2 29746.4 1513 4
22 -10 2 26100.3 1066.12 1
-12 22 2 26025.1 1143.12 2
-10 -12 2 29851.2 1390.1 1
22 -10 2 26971.6 1490.82 3
22 -10 5 11817 834.728 1
-12 22 5 12142.2 1306.76 4
-10 -12 5 10042.3 1132.8 1
22 -10 5 10166.3 758.341 4
-12 22 5 12137.9 1138.6 2
22 -10 5 12269.3 1231.93 3
-10 -12 5 10622.9 990.693 2
-12 22 8 5365.72 1148.2 4
-10 -12 8 4739.78 1272.86 1
-12 22 8 5147.11 1127.26 2
-10 -12 8 3699.46 871.193 4
22 -10 8 5486.64 1026.69 3
22 -10 8 5423.03 799.395 1
-10 -12 8 3374.07 795.541 2
-9 -13 -5 -576.123 557.578 1
22 -9 -5 -90.6883 485.032 3
-13 22 -2 89400.3 1898.18 4
-9 -13 -2 86295.8 2071.74 1
22 -9 -2 92652.6 2342.17 3
-13 22 1 19789.7 1173.52 4
22 -9 1 19390.9 973.301 1
-13 22 1 20748.8 889.145 2
22 -9 1 22044.2 1371.2 3
-9 -13 1 17989.7 1085.64 1
-9 -13 4 40512.1 1657.08 2
-13 22 4 44538.4 2044.11 4
22 -9 4 35992.5 1385.02 4
-9 -13 4 39164.3 1835.01 1
-13 22 4 43386.2 1739.19 2
22 -9 4 40532.9 1154.23 1
22 -9 4 42966.5 1932.81 3
22 -9 7 6144.91 650.36 4
-13 22 7 6123.16 1175.03 4
-9 -13 7 8374.06 1268.7 1
-13 22 7 6862.97 1110.97 2
-9 -13 7 7185.9 1016.72 4
22 -9 7 8747.53 1141.34 3
22 -9 7 7184.12 739.024 1
-9 -13 7 8963.54 942.503 2
22 -9 10 16808 1783.31 2
-13 22 10 18073.2 1873.85 4
-9 -13 10 20056.7 2069.46 1
-13 22 10 17196.6 1781.91 2
-9 -13 10 14541.3 1394.11 4
22 -9 10 19848.2 1693.05 3
-9 -13 10 16852.8 1372.33 2
22 -8 -6 5946.47 662.564 3
-8 -14 -3 74636.5 2035.83 1
-14 22 -3 77098 1511.21 4
22 -8 -3 76629.8 2109.15 3
-14 22 0 23449.3 1187.94 4
22 -8 0 23272.1 1344.09 3
-14 22 0 25031.3 808.264 2
-14 22 3 47029.9 1952.69 4
-14 22 3 47537.2 1666.19 2
-8 -14 3 44967.8 1839.58 1
22 -8 3 48121.6 2008.06 3
22 -8 6 17816.9 880.662 1
-14 22 6 18898.2 1592.59 4
-8 -14 6 18298.3 1546.16 1
-14 22 6 16871.6 1373.35 2
22 -8 6 19217.3 1492.35 3
-8 -14 6 16346.6 1109.26 2
22 -8 9 22003.4 1881.8 2
-14 22 9 26272.8 2038.29 4
-8 -14 9 22793.2 2080.32 1
-14 22 9 23271.4 1898.08 2
-8 -14 9 24467.1 1664.47 4
22 -8 9 21874.9 1702.33 3
-8 -14 9 21458.9 1463.67 2
22 -7 -7 5692.26 702.013 3
-15 22 -4 2359.45 232.963 4
-15 22 -4 2031.93 228.082 4
22 -7 -4 1818.56 566.576 3
-15 22 -1 354.718 194.74 2
-15 22 -1 769.554 421.004 4
-7 -15 -1 214.409 555.291 1
22 -7 -1 427.302 586.263 3
-15 22 2 34402.3 1605.69 4
-15 22 2 37016.9 1342.56 2
-7 -15 2 37119.8 1634.49 1
22 -7 2 37732.4 1786.26 3
-7 -15 5 10932.4 910.573 2
-15 22 5 12937.2 1276.07 4
-7 -15 5 10577.2 1184.87 1
-15 22 5 13395 1154.51 2
22 -7 5 9512.97 464.738 1
22 -7 5 12131.2 1198.97 3
-15 22 8 7394 1297.48 4
-7 -15 8 7592.23 1368.8 1
-15 22 8 6293.03 1158.31 2
22 -7 8 5230.88 1034.01 3
-7 -15 8 7389.43 907.513 2
-6 -16 -5 2503.9 778.323 1
22 -6 -5 2805.74 647.296 3
-16 22 -2 49304.9 1363.15 4
-6 -16 -2 45520.9 1755.21 1
22 -6 -2 49898.9 1822.52 3
-6 -16 1 2119.38 692.671 1
-16 22 1 2923.45 677.846 4
-16 22 1 3451.53 503.122 2
22 -6 1 2601.27 728.104 3
-16 22 4 22120.5 1519.25 4
-16 22 4 19376.8 1256.01 2
-6 -16 4 23404.5 1555.07 1
22 -6 4 21099.5 1473.05 3
-16 22 7 10700.8 1335.93 4
-6 -16 7 10357 1389.15 1
-16 22 7 10192.7 1196.72 2
22 -6 7 12844.8 1319.61 3
-6 -16 7 9169.66 899.338 2
22 -6 10 15311.7 1807.42 2
-16 22 10 18048.1 1952.88 4
-6 -16 10 17251.1 1933.96 1
-16 22 10 20536 1903.32 2
22 -6 10 16144 1592.34 3
-5 -17 -6 14056.3 1356.49 1
22 -5 -6 16416.4 1073.87 3
-17 22 -3 29182.4 871.205 4
22 -5 -3 27711.8 1430.33 3
-5 -17 0 13069.7 1105.09 1
-17 22 0 11850 883.602 4
22 -5 0 10524.9 1055.64 3
-17 22 0 14490.8 728.037 2
-17 22 3 11269.7 1078.5 4
-17 22 3 13054 950.444 2
-5 -17 3 14091.5 1192.16 1
22 -5 3 11505.1 1191.59 3
-5 -17 6 5811.55 762.991 2
-17 22 6 4687.07 1007.61 4
-17 22 6 5618.45 984.854 2
22 -5 6 4207.63 1025.8 3
-17 22 9 11054.8 1526.93 4
-5 -17 9 9738.96 1500.8 1
-17 22 9 11442.7 1517.1 2
22 -5 9 11467.3 1340.99 3
22 -4 -7 8924.85 911.411 3
-4 -18 -4 3532.89 861.104 1
22 -4 -4 6162.69 814.421 3
-18 22 -1 4977.48 622.088 4
-4 -18 -1 3655.99 800.613 1
22 -4 -1 3617.04 753.791 3
-18 22 -1 5648.88 490.038 2
-18 22 2 8179.24 936.955 4
-18 22 2 9761.21 805.478 2
22 -4 2 8661.08 1016.86 3
-4 -18 2 7922.7 967.404 1
-18 22 5 10153 1230.09 4
-4 -18 5 9163.76 1224.43 1
-18 22 5 9832.25 1078.35 2
22 -4 5 9338.87 1154.56 3
-4 -18 8 474.436 527.972 2
22 -4 8 931.258 625.341 4
-18 22 8 873.461 1005.89 4
-4 -18 8 1552.13 946.78 1
-18 22 8 1066.38 830.345 2
22 -4 8 615.186 811.335 3
22 -3 -5 3945.31 783.254 3
-3 -19 -5 1639.21 916.566 1
-19 22 -2 65160.9 1515.83 4
22 -3 -2 69468 2206.84 3
-3 -19 1 3521.16 802.769 1
-19 22 1 4132.06 748.46 4
22 -3 1 5065.87 915.076 3
-19 22 1 3942.77 563.164 2
-19 22 4 29686.3 1700.42 4
-19 22 4 27046.4 1482.15 2
-3 -19 4 28413.1 1754.38 1
22 -3 4 31169.7 1752.93 3
-3 -19 7 1718.99 546.092 2
-19 22 7 2773.16 953.37 4
-3 -19 7 3456.88 1129.24 1
-19 22 7 3082.82 948.748 2
22 -3 7 3818.74 951.771 3
22 -3 10 14306.9 1853.68 2
-19 22 10 19741.6 1925.66 4
-3 -19 10 17113.4 1980.19 1
-19 22 10 18125.7 1832.08 2
22 -3 10 19884 1725.69 3
-2 -20 -6 4954.18 1140.45 1
22 -2 -6 4038.67 756.755 3
-20 22 -3 10005 549.535 4
22 -2 -3 10591.7 1025.67 3
-2 -20 -3 9622.35 1167.56 1
-2 -20 0 11291 1143.82 1
-20 22 0 11656.6 898.273 4
22 -2 0 10038.8 1083.87 3
-20 22 0 11266 773.763 2
-20 22 3 18185.8 1347.62 4
-20 22 3 19267.4 1187.57 2
-2 -20 3 15396.4 1367.1 1
22 -2 3 17256.1 1404.17 3
-20 22 6 4778.8 1086.99 4
-2 -20 6 6689.56 1209.7 1
-20 22 6 6908.18 1062.71 2
22 -2 6 6522.9 1071.72 3
-20 22 9 5268.26 1284.2 4
-2 -20 9 5926.01 1479.47 1
-20 22 9 5666.15 1204 2
22 -2 9 5826.64 1124.42 3
-1 -21 -7 18128.2 1765.72 1
22 -1 -7 18723 1292.7 3
-1 -21 -4 3701.87 1021.62 1
22 -1 -4 4372.8 805.018 3
-21 22 -1 26728.7 1098.81 2
-1 -21 -1 25370.8 1630.33 1
-21 22 -1 31495.7 1241.63 4
22 -1 -1 32586.6 1660.8 3
-21 22 2 11168 1068.44 4
-21 22 2 11246 911.274 2
22 -1 2 12639.2 1233.19 3
-1 -21 2 12926.9 1263.07 1
-21 22 5 28853.1 1820.2 4
-21 22 5 25884.9 1579.25 2
-1 -21 5 23855.5 1762.5 1
22 -1 5 29322.9 1797.13 3
22 -1 8 1349.09 729.317 4
-21 22 8 1857.07 1032.63 4
-1 -21 8 2350.2 1200.56 1
-21 22 8 1429.72 985.28 2
22 -1 8 1177.52 869.05 3
0 -22 -5 415.16 899.885 1
22 0 -5 1922.27 747.513 3
-22 22 -2 29959.4 1092.66 4
0 -22 -2 25402.6 1740.3 1
22 0 -2 28227 1569.35 3
0 -22 1 488.332 812.433 1
-22 22 1 842.166 612.969 4
22 0 1 2912.35 876.812 3
-22 22 1 1380.22 524.007 2
-22 22 4 33986.2 1858 4
-22 22 4 34079.1 1682.42 2
0 -22 4 34885.2 2030.63 1
22 0 4 36716.5 1994.81 3
-22 22 7 697.916 853.101 4
-22 22 7 884.493 830.845 2
0 -22 7 -420.996 1078.5 1
22 0 7 421.295 788.791 3
1 -23 -6 4177.61 1171.23 1
22 1 -6 3197.57 865.615 3
-23 22 -3 10673.8 606.975 4
1 -23 -3 9854.93 1293.37 1
22 1 -3 9235.86 1065.68 3
1 -23 0 30324.5 1840.34 1
-23 22 0 29086.6 1385.89 4
22 1 0 32619.8 1760.02 3
-23 22 0 28775.9 1322.11 2
-23 22 3 14063.7 1229.78 4
-23 22 3 13729.2 1099.73 2
22 1 3 13877.5 1378.54 3
1 -23 3 12087.8 1315.42 1
-23 22 6 9003.83 1241.75 4
1 -23 6 7389.68 1346.53 1
-23 22 6 8526.85 1156.21 2
22 1 6 7126.16 1163.06 3
22 1 9 2110.76 838.592 4
-23 22 9 4193.79 1271.72 4
-23 22 9 3084.2 1162.27 2
22 1 9 3459.68 1055.72 3
2 -24 -7 21567.6 2037.99 1
22 2 -7 16441 1418.09 3
2 -24 -4 7585.38 1257.12 1
22 2 -4 6520.51 1048.39 3
-24 22 -1 26635.4 1290.85 2
2 -24 -1 27503.4 1818.61 1
-24 22 -1 29967.7 1280.46 4
22 2 -1 28276.3 1720.47 3
-24 22 2 11914.5 1142.14 4
22 2 2 12370.9 1286.43 3
-24 22 2 11037.9 1006.25 2
2 -24 2 10255.8 1289.37 1
-24 22 5 16757.4 1483.25 4
-24 22 5 15378.8 1314.16 2
2 -24 5 17490.2 1655.74 1
22 2 5 14817.4 1447.97 3
-24 22 8 4538.99 1188.82 4
-24 22 8 4033.34 1134.72 2
2 -24 8 4147.86 1253.61 1
22 2 8 6118.75 1184.31 3
3 -25 -8 5429.97 1591.24 1
3 -25 -5 2137.22 1094.71 1
22 3 -5 2495.6 881.518 3
-25 22 -2 6560.27 661.161 4
3 -25 -2 7371.46 1268.03 1
22 3 -2 5896.73 995.422 3
3 -25 1 4061.05 1118 1
-25 22 1 3055.08 722.144 4
22 3 1 3211.75 899.401 3
-25 22 1 2645.53 663.086 2
-25 22 4 9985.67 1239.03 4
-25 22 4 9169.01 1088.15 2
22 3 4 10789.7 1307.46 3
3 -25 4 7983.07 1246.82 1
-25 22 7 473.946 956.986 4
-25 22 7 474.955 827.513 2
3 -25 7 -242.481 1002.85 1
22 3 7 -795.169 969.324 3
4 -26 -6 5200.76 1378.1 1
22 4 -6 9272.84 1238.57 3
4 -26 -3 2782.67 1050.13 1
-26 22 -3 3585.09 484.024 4
22 4 -3 3892.34 975.003 3
4 -26 0 16200 1619.04 1
-26 22 0 20362.4 1236.68 4
22 4 0 20082.8 1543.27 3
-26 22 0 16612.9 1175.57 2
4 -26 3 5772.02 1231.07 1
-26 22 3 6517.1 1022.98 4
-26 22 3 6801.86 956.771 2
22 4 3 6387.57 1129.49 3
-26 22 6 5919.75 1149.51 4
-26 22 6 4124.43 973.597 2
22 4 6 4930.77 1099.17 3
4 -26 6 5211.91 1250.73 1
5 -27 -7 2824.15 1405.33 1
22 5 -7 7222.3 1213.38 3
5 -27 -4 10961.6 1539.1 1
22 5 -4 10433.6 1289.26 3
-27 22 -1 19228.1 1288.94 2
-27 22 -1 25301.1 1265.01 4
5 -27 -1 20410.3 1827.72 1
22 5 -1 22642.5 1681.51 3
5 -27 2 16991.1 1620.78 1
-27 22 2 17871 1368.13 4
22 5 2 19990.4 1622.15 3
-27 22 2 17693.7 1319.25 2
-27 22 5 16668.1 1567.88 4
-27 22 5 12844.1 1327.52 2
22 5 5 13112.8 1497.37 3
5 -27 5 12860.8 1537.12 1
-27 22 8 8613.66 1484.23 4
-27 22 8 7363.26 1356.94 2
22 5 8 7320.55 1344.45 3
5 -27 8 6943.31 1629.77 1
6 -28 -5 1250.17 1138.11 1
22 6 -5 3231.06 986.606 3
6 -28 -2 4274.48 1222.17 1
-28 22 -2 3814.78 621.348 4
22 6 -2 3224.76 986.406 3
-28 22 1 6497.95 926.039 4
6 -28 1 7071.59 1319.22 1
22 6 1 5277.41 1032.67 3
-28 22 1 5241.65 876.015 2
6 -28 4 5165.16 1278.43 1
-28 22 4 5337.54 1017.32 4
22 6 4 4031.98 1048.58 3
-28 22 4 2871.48 879.745 2
-28 22 7 4625.39 1164.06 4
-28 22 7 5819.89 1258.32 2
22 6 7 4546.41 1136.05 3
6 -28 7 3665.64 1211.36 1
7 -29 -6 11181.4 1824.32 1
22 7 -6 12268.6 1476.73 3
7 -29 -3 9073.59 1518.58 1
22 7 -3 8711.31 1339.81 3
-29 22 0 7864.8 1059.34 2
-29 22 0 12971.2 1086.6 4
7 -29 0 8683.8 1381.69 1
22 7 0 11635.5 1422.96 3
7 -29 3 7115.81 1438.08 1
-29 22 3 7590.33 1128.5 4
22 7 3 6286.58 1230.22 3
-29 22 3 5225.72 981.219 2
7 -29 6 7269.33 1510.81 1
-29 22 6 9387.08 1400.26 4
-29 22 6 8459.63 1271.67 2
22 7 6 8377.32 1343.26 3
22 8 -7 2027.64 1198.61 3
8 -30 -7 7031.2 1715.12 1
8 -30 -4 4683.71 1368.16 1
22 8 -4 5049.97 1160.66 3
-30 22 -1 17555.6 1173.75 4
22 8 -1 17833.7 1712.82 3
8 -30 2 10126 1493.04 1
-30 22 2 9731.48 1155.2 4
22 8 2 8660.08 1301.8 3
-30 22 2 8344.49 1108.85 2
8 -30 5 8819.84 1491.19 1
-30 22 5 9372.74 1345.42 4
-30 22 5 7712.01 1237.04 2
22 8 5 8657.57 1356.61 3
22 9 -5 1780.75 1089.18 3
9 -31 -5 -375.438 1120.25 1
9 -31 -2 -217.255 1136.65 1
-31 22 -2 860.352 572.053 4
22 9 -2 702.375 969.774 3
-31 22 1 2815.36 878.736 2
-31 22 1 3469.11 818.805 4
9 -31 1 2344.15 1042.9 1
22 9 1 3062.3 1113.94 3
9 -31 4 1576.07 1214.51 1
-31 22 4 784.794 875.787 4
22 9 4 1006.74 981.319 3
-31 22 4 -152.82 799.096 2
10 -32 -3 4510.7 1475.58 1
22 10 -3 4278.26 1233.89 3
-32 22 0 12552.2 1310.03 2
10 -32 0 9416.2 1586.17 1
-32 22 0 13178.6 1190.53 4
22 10 0 11800.6 1572.57 3
10 -32 3 4014.82 1353.28 1
-32 22 3 4358.93 1050.12 4
22 10 3 3418.92 1153.98 3
-32 22 3 3838.31 1012.56 2
22 11 -4 811.247 1126.71 3
11 -33 -4 -97.1957 1258.19 1
-33 22 -1 10050.3 1064.3 4
22 11 -1 10985.3 1590.14 3
11 -33 -1 7782.57 1568.39 1
-33 22 2 4247.65 1045.81 2
-33 22 2 4473.18 1027.26 4
11 -33 2 4718.9 1404.37 1
22 11 2 7624.73 1365.8 3
11 -33 5 1927.8 1451.38 1
-33 22 5 1653.19 1002.64 4
22 11 5 2607.25 1191.36 3
-33 22 5 1417.47 966.223 2
12 -34 -2 1142.69 1336.79 1
22 12 -2 1893.8 1098.62 3
-34 22 1 4239.38 1124.14 2
-34 22 1 3103.12 885.112 4
12 -34 1 4392.19 1518.98 1
22 12 1 5480.47 1418.82 3
12 -34 4 1173.46 1199.52 1
-34 22 4 1086.34 986.078 4
22 12 4 307.864 1158.83 3
-34 22 4 -216.6 906.756 2
22 13 -3 2821.73 1312.76 3
13 -35 -3 2308.21 1319.69 1
-35 22 0 9958.78 1167.44 4
13 -35 0 8340.24 1619.83 1
22 13 0 12981.7 1716.12 3
-35 22 3 1362.42 955.121 2
13 -35 3 3454.03 1428.96 1
-35 22 3 2602.97 1011.8 4
22 13 3 -83.449 1160.1 3
14 -36 -1 6140.32 1660.21 1
-36 22 -1 5013.96 933.298 4
22 14 -1 7404.13 1539.1 3
13 23 -1 -1391.03 1405.47 3
23 -36 -1 -1003 1260.51 1
12 23 -2 1658.13 1477.02 3
23 -35 -2 829.368 1351.33 1
12 23 1 5089.09 1577.79 3
-35 12 1 8655.5 1243.94 4
23 -35 1 6856.75 1679.33 1
11 23 -3 2878.94 1563.69 3
23 -34 -3 7601.38 1806.61 1
11 23 0 2020.97 1392.04 3
23 -34 0 -223.904 1281.92 1
-34 11 0 1460.72 880.097 4
11 23 3 2875.23 1395.39 3
-34 11 3 2715.75 1197.88 2
-34 11 3 2792.08 1112.69 4
10 23 -4 -528.986 1447.2 3
23 -33 -4 -295.63 1388.14 1
10 23 -1 3553.19 1329.72 3
23 -33 -1 2121.03 1319.83 1
10 23 2 1522.64 1297.64 3
-33 10 2 3941.33 1165.4 2
-33 10 2 2667.12 943.536 4
23 -33 2 3877.25 1383.58 1
10 23 5 2211.42 1364.51 3
-33 10 5 1194.34 1030.01 2
10 23 5 -258.134 1207.57 2
23 -33 5 3900.68 1464.87 1
-33 10 5 700.152 1032.16 4
9 23 -5 5311.53 1703.36 3
23 -32 -5 1480.86 1341.82 1
9 23 -2 6559.78 1547.72 3
23 -32 -2 2900.92 1285.92 1
9 23 1 6417.84 1558.93 3
-32 9 1 4609.56 1224.26 2
-32 9 1 6140.55 1088.29 4
23 -32 1 2529.87 1322.8 1
9 23 4 4529.39 1439.27 3
-32 9 4 5476.82 1288.47 2
-32 9 4 7396.99 1282.87 4
23 -32 4 4953.01 1404.38 1
8 23 -6 6515.89 1622.54 3
23 -31 -6 4142.97 1633.87 1
23 -31 -3 5770.36 1513.4 1
8 23 -3 7013.94 1710.69 3
8 23 0 4111.08 1413.34 3
23 -31 0 1838.35 1093.47 1
-31 8 0 1568.49 854.534 4
8 23 3 6402.65 1456.96 3
-31 8 3 4783.45 1220.14 2
-31 8 3 7222.98 1244.11 4
23 -31 3 6717.28 1446.78 1
-31 8 6 1104.85 976.831 2
8 23 6 685.391 1242.23 3
8 23 6 2898.5 1218.72 4
8 23 6 2304.46 1183.68 2
23 -31 6 2578.21 1289.76 1
-31 8 6 3728.35 1295.54 4
7 23 -4 611.961 1288.75 3
23 -30 -4 800.66 1238.47 1
7 23 -1 1138.86 1227.9 3
23 -30 -1 3449.2 1213.57 1
7 23 2 -162.449 1174.18 3
-30 7 2 -711.402 856.407 2
-30 7 2 662.37 784.266 4
23 -30 2 -83.5399 1027.05 1
-30 7 5 1578.74 1036.33 2
7 23 5 -620.486 1155.66 3
23 -30 5 -264.242 1044.94 1
-30 7 5 1943.52 1061.63 4
7 23 5 -560.098 1053.11 2
7 23 5 640.363 1013.74 4
6 23 -5 1335.02 1393.23 3
23 -29 -5 1046.29 1361.74 1
6 23 -2 23441.8 2216.69 3
23 -29 -2 23088.1 2086.38 1
6 23 1 2051.19 1253.06 3
-29 6 1 5184.32 1170.04 2
-29 6 1 1992.55 796.285 4
23 -29 1 2617.33 1242.38 1
6 23 4 14232.1 1791.04 3
6 23 4 15984 1625.02 2
23 -29 4 16343.7 1749.97 1
-29 6 4 14240.4 1509.07 4
-29 6 4 12071.3 1426.47 2
6 23 7 1930.14 1306.06 3
6 23 7 60.5819 1055.06 4
23 -29 7 1399.45 1239.51 1
6 23 7 1909.7 1177.67 2
-29 6 7 1523.3 986.374 4
-29 6 7 533.504 1001.07 2
23 -28 -6 1140.7 1229.2 1
5 23 -3 16851.5 1947.8 3
23 -28 -3 16032.5 1893.58 1
5 23 0 4171.81 1322.74 3
23 -28 0 2277.53 1071.71 1
-28 5 0 2597.68 845.516 4
5 23 3 19523.2 1876.71 3
-28 5 3 18941.6 1690.04 2
23 -28 3 18425.5 1821.47 1
-28 5 3 18863.3 1623.07 4
5 23 6 3334.82 1273.98 3
5 23 6 1432.33 1068.48 4
5 23 6 120.772 1032.48 2
23 -28 6 2484.6 1177.37 1
-28 5 6 4503.61 1189.19 4
-28 5 6 2682.39 1079.79 2
23 -27 -7 4077.88 1641.52 1
4 23 -4 4987.24 1490.3 3
23 -27 -4 25.7084 1068.43 1
4 23 -1 13130.1 1720.9 3
23 -27 -1 11808.1 1514.55 1
4 23 2 1683.59 1107.95 3
-27 4 2 3687.36 1062.32 2
-27 4 2 2487.41 872.299 4
23 -27 2 1992.66 1025.71 1
4 23 5 6180.12 1360.17 3
4 23 5 6651.69 1303.52 4
4 23 5 6167.4 1208.39 2
23 -27 5 7304.74 1357.41 1
-27 4 5 6601.6 1212.69 4
-27 4 5 6110.43 1213.26 2
4 23 8 176.693 1215.33 3
23 -27 8 1659.96 1172.35 1
4 23 8 1659.35 1101.79 4
4 23 8 -1040.52 1161.56 2
-27 4 8 2979.91 1175.16 4
-27 4 8 1267.44 1001.8 2
23 -26 -5 -1052.33 1071.99 1
3 23 -5 2799.47 1383 3
3 23 -2 29981.7 2247.65 3
23 -26 -2 26085.9 2107.3 1
3 23 1 -657.944 1185.57 3
-26 3 1 1662.62 836.827 2
-26 3 1 1613.71 435.203 1
-26 3 1 1314.92 828.35 4
23 -26 1 -337.792 963.789 1
3 23 4 17818.1 1768.02 3
3 23 4 18876.5 1653.06 4
23 -26 4 18940.2 1738.7 1
-26 3 4 17964.2 1556.52 4
3 23 4 19678.5 1608.24 2
-26 3 4 17619.5 1583.33 2
3 23 7 4005.74 1357.82 3
23 -26 7 3075.85 1185.04 1
3 23 7 1522.26 1038.81 4
3 23 7 4548.2 1244.43 2
-26 3 7 2962.08 1075.81 4
-26 3 7 3250.28 1108.43 2
23 -25 -6 5938.96 1576.85 1
23 -25 -6 3867.35 742.778 3
2 23 -3 13801.5 1754.62 3
23 -25 -3 8154.65 1495.05 1
2 23 0 2767.26 1259.41 3
23 -25 0 3619.51 1152.78 1
-25 2 3 21679 1636.95 2
2 23 3 21966.3 1545.85 2
23 -25 3 21704.7 1783.23 1
-25 2 3 24617.9 1646.87 4
2 23 6 1614.77 1096.68 3
2 23 6 769.524 968.182 4
23 -25 6 559.429 969.246 1
2 23 6 1711.58 1115.71 2
-25 2 6 448.298 914.106 4
-25 2 6 1361.49 882.737 2
1 23 -4 9268.42 1637.21 3
23 -24 -4 8622.95 989.476 3
1 23 -1 24905.9 2043.02 3
23 -24 -1 19740.3 1744.41 1
1 23 2 4671.48 1304.3 3
-24 1 2 4880.84 1038.19 2
1 23 2 4759.94 889.561 2
-24 1 2 4223.83 891.851 4
23 -24 2 3064.52 1031.7 1
1 23 5 23990 1945.86 3
23 -24 5 21360.5 1754.2 1
1 23 5 21321.3 1700.1 4
1 23 5 24527.5 1803.2 2
-24 1 5 21429.7 1635.04 4
-24 1 5 23479.5 1721.67 2
1 23 8 9749.28 1489.46 3
1 23 8 10707.4 1590.15 4
1 23 8 10311.7 1582.92 2
-24 1 8 9453.49 1395.8 4
23 -24 8 9236.76 1439.28 3
-24 1 8 8900.28 1364.04 2
23 -24 8 10315.5 1468.78 1
23 -23 -5 736.92 1043.42 1
23 -23 -5 910.277 599.515 3
0 23 -2 18782.9 1817.28 3
23 -23 -2 16627.2 1652.52 1
23 -23 1 1477.23 923.497 1
0 23 1 -164.867 1112.4 3
-23 0 1 205.427 779.733 2
0 23 1 -471.16 642.699 2
-23 0 1 594.983 351.569 1
-23 0 1 -151.807 671.301 4
0 23 4 22492.5 1849.77 3
0 23 4 24667.6 1744.52 4
0 23 4 23355.7 1627.26 2
23 -23 4 25684.6 1812.8 1
-23 0 4 21749.4 1578.26 4
-23 0 4 22501.3 1617.66 2
0 23 7 1222.14 1156.03 3
23 -23 7 95.7832 913.012 1
0 23 7 1126.27 910.904 4
0 23 7 1155.19 1101.7 2
-23 0 7 767.078 987.001 4
23 -23 7 75.0462 893.994 3
-23 0 7 1069.97 912.111 2
23 -22 -6 7073.49 1449.37 1
23 -22 -6 7665.28 782.848 3
-1 23 -3 15675 1736.81 3
23 -22 -3 14118 1149.37 3
23 -22 -3 13364.3 1521.58 1
-1 23 0 31718.8 2137.99 3
-1 23 0 31529.5 1356.56 2
23 -22 0 29579.9 1860.73 1
-22 -1 3 10062.4 1209.5 2
-22 -1 3 12598.4 1054.07 1
-1 23 3 10399.8 1251.15 4
-1 23 3 12750.2 1211.82 2
23 -22 3 13643.2 1358.72 1
-22 -1 3 12226.7 1291.11 4
-1 23 6 4626.31 1171.02 3
-1 23 6 3272.56 1042.89 4
23 -22 6 2881.29 1005.2 1
-1 23 6 3222.12 1068.8 2
-22 -1 6 2099.8 943.239 4
23 -22 6 3893.84 1022.95 3
-22 -1 6 3146.96 961.982 2
23 -22 9 6791.36 1302.12 1
-1 23 9 7742.99 1461.19 4
-1 23 9 9216.27 1667 2
-22 -1 9 8004.26 1367.57 4
23 -22 9 8270.81 1384.41 3
-22 -1 9 5729.78 1186.2 2
23 -21 -4 3716.66 1231.02 1
23 -21 -4 4476.84 778.705 3
23 -21 -1 26438.2 1798.55 1
-2 23 -1 29476.2 1148.5 2
23 -21 -1 30758.6 1620.6 3
-2 23 -1 25630.2 1020.86 2
-21 -2 2 15520.1 1380.39 2
-2 23 2 14419 1585.17 3
-2 23 2 16531.5 1371.36 4
-2 23 2 13233.4 1092.29 2
-21 -2 2 13970.5 1049.63 1
-21 -2 2 13639 897.945 1
23 -21 2 14196.8 1331.71 1
-21 -2 2 16588.4 1381.07 4
-2 23 5 17203 1655.22 3
23 -21 5 15708.6 1455.27 1
-2 23 5 15527.1 1528.44 4
-2 23 5 21933.3 1629.87 2
-21 -2 5 17762 1481.15 4
23 -21 5 19232 1576.52 3
-21 -2 5 17074.9 1458.62 2
23 -21 8 2938.87 1016.59 1
-2 23 8 3603.09 1157.78 3
-2 23 8 3071.38 1186.74 4
-2 23 8 5505.04 1352.85 2
-21 -2 8 5044.81 1137.84 4
23 -21 8 2483.17 1052.88 3
-21 -2 8 2801.49 984.401 2
23 -20 -5 1686.71 1112.78 1
23 -20 -5 3174.86 646.006 3
-3 23 -2 33383.4 2170 3
-3 23 -2 29095.8 916.408 2
23 -20 -2 27533.8 1831.49 1
23 -20 -2 32324.3 1569.24 3
-3 23 -2 26853.2 844.175 2
23 -20 1 1922.08 835.209 1
-3 23 1 1482.93 1131.4 3
-3 23 1 2450.4 667.826 2
-20 -3 1 1709.89 408.055 1
23 -20 1 1655.64 771.817 3
-20 -3 1 2486.73 514.792 1
-20 -3 4 3501.92 889.549 2
-3 23 4 3472.23 1113.04 3
-3 23 4 3351.16 945.526 4
-20 -3 4 3920.94 806.355 1
-3 23 4 3139.85 903.184 2
23 -20 4 1559.46 840.685 1
-20 -3 4 2922.95 855.673 4
23 -20 4 5048.21 991.344 3
23 -20 7 -286.678 895.089 1
-3 23 7 3017.74 1059.7 3
23 -20 7 1880.61 679.573 2
-3 23 7 2125.14 1026.97 4
-3 23 7 2087.24 1024.93 2
-20 -3 7 3465.02 978.595 4
23 -20 7 3674.99 1073.3 3
-20 -3 7 1857.23 865.914 2
23 -19 -6 32744 1258.53 3
23 -19 -3 2338.48 665.896 3
23 -19 -3 3457.73 1078.17 1
-4 23 0 38708.3 1268.25 2
-4 23 0 40741.7 2267.85 3
-4 23 0 46248.6 1416.05 2
23 -19 0 43713.6 1865.22 3
-19 -4 0 40620.2 978.534 1
-19 -4 0 42451 905.829 1
23 -19 0 43203.4 2032.16 1
-19 -4 3 3913.57 873.366 2
-4 23 3 5219.55 1183.67 3
-4 23 3 6405.18 1026.76 4
-19 -4 3 6017.84 819.071 1
-4 23 3 6035.7 900.984 2
-19 -4 3 4744.23 939.347 4
23 -19 3 6644.57 1012.13 3
23 -19 3 3706.73 883.557 1
-4 23 6 30408.9 1915.44 3
-19 -4 6 31018.3 1951.55 1
-4 23 6 31004.4 2063.23 4
-4 23 6 30871.2 1932.68 2
-19 -4 6 27452.3 1770.65 4
23 -19 6 29454.4 1893.39 3
-19 -4 6 25595 1682.53 2
23 -19 6 29666.7 1772.03 1
-19 -4 9 528.111 1122.14 1
-4 23 9 1135.3 1002.12 4
-4 23 9 2504.35 1277.83 2
-19 -4 9 2204.5 1027.48 4
23 -19 9 1762.61 994.139 3
-19 -4 9 1094.39 871.702 2
23 -19 9 3006.21 989.238 1
23 -18 -4 1670.42 979.059 1
23 -18 -4 1077.09 533.357 3
-5 23 -1 34442.5 977.43 2
23 -18 -1 33472.9 1844.13 1
23 -18 -1 36743.7 1672.59 3
-5 23 -1 31149 890.787 2
-18 -5 2 18213.8 1369.42 2
-5 23 2 17791.2 1629.87 3
-5 23 2 19657.5 1430.64 4
23 -18 2 15605.3 934.431 4
-5 23 2 16763.2 1077.19 2
-18 -5 2 19706.7 1045.12 1
-18 -5 2 16205.2 1297.7 4
23 -18 2 15429 1272.86 1
23 -18 2 14342.3 1277.21 3
23 -18 5 25768.5 1593.94 1
-5 23 5 23946.1 1695.24 3
-18 -5 5 24568.1 1624.02 1
-5 23 5 28067.8 1840.83 4
-5 23 5 26729.2 1681.72 2
-18 -5 5 25817.7 1686.56 4
23 -18 5 27857.3 1741.31 3
-18 -5 5 24184.5 1597.49 2
23 -18 8 3114.96 970.298 1
23 -18 8 1761.68 817.93 2
-5 23 8 2562.08 1045.63 4
-18 -5 8 3528.83 1235.65 1
-5 23 8 2109.23 1106.85 2
-18 -5 8 2966.43 943.665 4
23 -18 8 2185.34 970.945 3
-18 -5 8 3410.93 944.271 2
23 -17 -5 7181.19 744.063 3
23 -17 -2 4415.27 954.659 1
23 -17 -2 3119.21 704.372 3
-6 23 1 5383.68 891.059 4
-6 23 1 4423.71 609.526 2
-17 -6 1 4719.48 529.367 1
23 -17 1 6854.92 967.722 3
23 -17 1 5485.39 894.513 1
-6 23 4 6975 944.988 2
-6 23 4 6675.6 1143.94 3
-6 23 4 5837.15 1019.17 4
-17 -6 4 6807.18 929.146 1
23 -17 4 4041.71 875.942 1
-17 -6 4 6261.17 986.591 4
23 -17 4 5581.61 943.026 3
-17 -6 4 5515.75 909.518 2
-17 -6 7 11062.1 1448.35 1
-6 23 7 7405.7 1271.3 4
-6 23 7 8862.91 1331.63 2
-17 -6 7 8963.51 1167.27 4
23 -17 7 8206.28 1185.23 3
-17 -6 7 10332.9 1224.45 2
23 -17 7 7411.35 1045.65 1
-6 23 10 2861.2 1294.53 4
-17 -6 10 3950.03 1360.6 1
-6 23 10 3326.55 1292.54 2
-17 -6 10 2529.68 975.551 4
23 -17 10 2706.59 1062.67 3
-17 -6 10 2731.38 1054.07 2
23 -17 10 4491.47 1141.63 1
23 -16 -6 66837 1726.86 3
23 -16 -3 5160.74 741.91 3
23 -16 -3 4035.2 1029.69 1
23 -16 0 80031.4 2454.48 1
-7 23 0 82995.4 1601.6 2
23 -16 0 78292.9 2392.65 3
-16 -7 0 83342.9 1510.16 1
-16 -7 3 1086.45 686.716 2
-7 23 3 715.834 735.444 4
23 -16 3 1263.75 454.657 4
-7 23 3 1379.45 644.943 2
-16 -7 3 433.645 520.668 1
-16 -7 3 847.056 718.862 4
23 -16 3 688.813 672.048 3
23 -16 3 1489.23 734.379 1
-16 -7 6 38520.7 2083.86 1
-7 23 6 36952 2107.43 4
-7 23 6 37181.4 2034.09 2
-16 -7 6 35340.9 1895.8 4
23 -16 6 38144.4 2007.26 3
-16 -7 6 37898.3 1895.68 2
23 -16 6 35832 1755.18 1
23 -16 9 2243.63 949.645 2
-7 23 9 1737.6 1112.06 4
-16 -7 9 5606.59 1400.34 1
-7 23 9 689.841 1096.94 2
-16 -7 9 924.433 862.602 4
23 -16 9 1928.12 964.022 3
-16 -7 9 2504.18 945.507 2
23 -16 9 2592.6 900.235 1
23 -15 -4 15008.6 1010.26 3
-8 23 -1 66851.7 1999.55 4
-15 -8 -1 61574.4 1227.48 1
-8 23 -1 60155.6 879.633 2
23 -15 -1 68401.7 2170.76 3
23 -15 -1 65232.3 2295.8 1
-8 23 -1 62173 885.794 2
23 -15 2 1637.78 674.697 1
-8 23 2 1705.37 726.016 4
-8 23 2 2211.96 557.122 2
23 -15 2 1531.79 529.881 4
-15 -8 2 1795.44 590.283 1
23 -15 2 2445.2 792.106 3
23 -15 5 28209.3 1471.84 1
-8 23 5 30681.2 1862.59 4
-15 -8 5 27022.1 1642.39 1
-8 23 5 28022.2 1668.37 2
-15 -8 5 26718.3 1626.07 4
23 -15 5 31655 1804.57 3
-15 -8 5 27968.5 1602.57 2
23 -15 8 10176.1 1268.91 2
-15 -8 8 9980.63 1512.08 1
-8 23 8 11354.6 1493.25 4
-8 23 8 10091.2 1385.16 2
-15 -8 8 9108.16 1219.51 4
23 -15 8 10422.8 1325.12 3
23 -15 8 10386.7 1105.35 1
-15 -8 8 11229.5 1230.71 2
-9 23 -5 3100.29 495.607 4
23 -14 -5 3172.23 601.501 3
-14 -9 -2 9818.89 515.343 1
-9 23 -2 10078.2 814.952 4
23 -14 -2 11059.7 963.846 3
23 -14 1 26382.3 1348.4 1
-9 23 1 27639 1468.01 4
-9 23 1 27330.5 1057.6 2
23 -14 1 25535.4 1464.5 3
-14 -9 1 26181.7 1119.35 1
-14 -9 4 2493.39 735.408 2
-9 23 4 1900.53 841.197 4
23 -14 4 3008.49 486.184 4
-9 23 4 3621.06 784.862 2
-14 -9 4 1040.45 623.721 1
-14 -9 4 1905.24 750.026 4
23 -14 4 2948.21 705.038 1
23 -14 4 2418.84 841.645 3
-9 23 7 13352.2 1453.35 4
-14 -9 7 17509.5 1659.23 1
-9 23 7 16592.7 1539.02 2
-14 -9 7 14202.2 1319.18 4
23 -14 7 14627.3 1410.47 3
-14 -9 7 13902.4 1265.46 2
23 -14 7 13221.1 1152.62 1
23 -14 10 -497.515 1054.85 2
-9 23 10 1813.26 1202.11 4
-14 -9 10 -299.352 1090.72 1
-9 23 10 1.35636 1037.15 2
-14 -9 10 818.718 908.769 4
23 -14 10 1216.42 929.153 3
-14 -9 10 846.753 847.91 2
-10 23 -6 33908.3 883.943 4
23 -13 -6 45026.3 1433.3 3
-10 23 -3 11251 792.103 4
-13 -10 -3 12947.4 652.103 1
23 -13 -3 13639.3 1000.63 3
-10 23 0 41074.3 1609.81 4
-10 23 0 39758.7 982.826 2
23 -13 0 39355.3 1696.04 3
23 -13 0 34695.4 1555.78 1
-13 -10 0 36305.1 1232.41 1
-13 -10 3 10341.5 1053.9 2
-10 23 3 12369.3 1214.57 4
23 -13 3 10317.6 797.958 4
-10 23 3 12723.9 971.752 2
-13 -10 3 14065.5 1113.96 1
23 -13 3 14240.1 1221 3
23 -13 3 11134.9 897.626 1
23 -13 6 23953.8 1319.97 1
-10 23 6 29159.8 1910.55 4
-13 -10 6 26021.2 1771.26 1
-10 23 6 27319.8 1728.31 2
-13 -10 6 27938.8 1661.55 4
23 -13 6 28135.4 1749.26 3
-13 -10 6 25985.4 1535.4 2
23 -13 9 2601.68 1089.29 2
-10 23 9 2434.07 1066.53 4
-13 -10 9 3422 1235.11 1
-10 23 9 4048.29 1259.61 2
-13 -10 9 5054.05 1038.58 4
23 -13 9 4090.33 1028.89 3
-13 -10 9 2696.66 872.835 2
23 -12 -7 20813.8 957.76 3
-11 23 -4 9279.19 640.206 4
23 -12 -4 9625.91 840.417 3
-11 23 -1 25584.7 1229.81 4
-12 -11 -1 26464.8 1114.1 1
23 -12 -1 27332.7 1423.04 3
23 -12 -1 23837.2 1403.6 1
23 -12 2 26704.8 1209.54 1
-11 23 2 27417.7 1499.29 4
-11 23 2 27253.7 1170.22 2
-12 -11 2 29406.1 1366.24 1
23 -12 2 28520.9 1594.37 3
23 -12 5 22978.7 1214.37 1
-11 23 5 28448.1 1769.78 4
-12 -11 5 24050.2 1569.3 1
-11 23 5 21506 1432.37 2
23 -12 5 24555.8 1627.54 3
-12 -11 5 24255.3 1437.11 2
23 -12 8 -56.5462 613.135 1
-11 23 8 850.434 984.277 4
-12 -11 8 337.066 992.491 1
-11 23 8 -76.2666 881.644 2
-12 -11 8 -140.621 752.647 4
23 -12 8 453.987 792.446 3
-12 -11 8 -159.13 696.706 2
-12 23 -5 21660.5 670.864 4
23 -11 -5 23329.5 1178.07 3
-12 23 -2 41055.4 1399.33 4
23 -11 -2 45706.9 1717.3 3
-11 -12 -2 41743.2 1364.1 1
-12 23 1 45046.3 1774.25 4
-12 23 1 43208.8 1241.98 2
23 -11 1 48155.3 1945.73 3
-11 -12 1 44296.2 1530.97 1
23 -11 1 42500.9 1511.38 1
-11 -12 4 12684.5 1085.35 2
-12 23 4 13755.9 1277.62 4
23 -11 4 10001.4 795.619 4
-11 -12 4 14078.3 1197.96 1
-12 23 4 13683.4 1098.36 2
23 -11 4 10675.7 803.975 1
23 -11 4 14518.9 1312.1 3
-12 23 7 31079.2 2043.74 4
-11 -12 7 32411.1 2096.17 1
-12 23 7 34020.3 2042.87 2
-11 -12 7 29649.5 1737.78 4
23 -11 7 32107.5 1918.48 3
-11 -12 7 29488.2 1628.44 2
23 -11 7 27921.2 1351.31 1
23 -11 10 4653.38 1200.22 2
-12 23 10 8016.92 1491.65 4
-11 -12 10 4524.24 1399.46 1
-12 23 10 8159.68 1469.35 2
-11 -12 10 5987.19 1132.63 4
23 -11 10 4796.69 1107.08 3
-11 -12 10 7218.35 1093.24 2
23 -10 -6 28129.7 1213 3
-13 23 -3 2171.09 424.662 4
23 -10 -3 2316.81 620.39 3
-10 -13 -3 1924.92 558.165 1
-13 23 0 41602 1578.86 4
23 -10 0 40563.2 1555.14 1
-13 23 0 41245.9 984.052 2
23 -10 0 42993.3 1780.04 3
-10 -13 0 39696.8 1454.48 1
23 -10 3 22662.7 963.052 1
-13 23 3 22301.1 1445.04 4
-13 23 3 23281.1 1229.2 2
-10 -13 3 25677.8 1438.12 1
23 -10 6 33283.9 1286.85 1
-10 -13 6 38711.1 2114.8 1
-13 23 6 37090.3 1944.09 2
23 -10 6 36810 1954.54 3
-10 -13 6 35157.2 1650.52 2
23 -10 9 5623.74 1252.21 2
-13 23 9 11030.2 1599.12 4
-10 -13 9 8142.16 1577.06 1
-13 23 9 7889.23 1421.68 2
-10 -13 9 7189.21 1113.45 4
23 -10 9 9589.76 1334.15 3
-10 -13 9 6893.09 1073.91 2
23 -9 -7 11876.8 858.253 3
-14 23 -4 8850.42 496.433 4
-14 23 -4 7792.85 485.438 4
23 -9 -4 8430.23 821.211 3
-9 -14 -4 9213.94 869.143 1
-14 23 -1 14214.5 920.003 4
-9 -14 -1 16647.8 1039.85 1
23 -9 -1 16049.1 1165.23 3
-14 23 -1 13029.9 392.175 2
23 -9 2 11325.5 705.068 1
-14 23 2 14650.7 1168.06 4
-14 23 2 9323.54 771.684 2
-9 -14 2 10362.9 967.026 1
23 -9 2 13557.9 1202.78 3
-9 -14 5 5936.71 802.904 2
-14 23 5 6199.2 1067.64 4
23 -9 5 3891.43 486.69 1
-14 23 5 5840.41 921.201 2
-9 -14 5 3969.02 962.733 1
23 -9 5 5526.39 982.592 3
-14 23 8 1730.19 1010.19 4
-9 -14 8 1941.4 991.533 1
-14 23 8 1722.2 895.2 2
23 -9 8 751.909 790.077 3
-9 -14 8 1976.84 738.884 2
-8 -15 -5 40253.9 1769.06 1
23 -8 -5 39035.6 1501.15 3
-15 23 -2 5303.96 586.15 4
23 -8 -2 6720.31 848.641 3
-15 23 1 80014.1 2258.67 4
-15 23 1 76117.3 1650.75 2
23 -8 1 79264.3 2475.88 3
-8 -15 1 78772.2 2191.27 1
-15 23 4 28811 1719 4
-15 23 4 29255.3 1472.58 2
-8 -15 4 29253.4 1688.6 1
23 -8 4 30225.3 1736.13 3
-15 23 7 14926 1495.93 4
-8 -15 7 16974 1632.68 1
-15 23 7 16317.2 1470.39 2
23 -8 7 19203.6 1553.65 3
-8 -15 7 14755.8 1134.67 2
23 -8 10 6604.46 1443.82 2
-15 23 10 4774.85 1383.62 4
-8 -15 10 4482.65 1437.26 1
-15 23 10 5275.15 1281.81 2
23 -8 10 4356.53 1157.81 3
23 -7 -6 34632.1 1409.46 3
-16 23 -3 217.133 331.145 4
-7 -16 -3 -476.244 594.665 1
23 -7 -3 -190.958 610.173 3
-7 -16 0 73482.7 2158.21 1
-16 23 0 74496.5 2035.83 4
23 -7 0 78094 2400.53 3
-16 23 0 76254.1 1462.42 2
-16 23 3 480.76 656.945 4
-16 23 3 939.307 527.075 2
23 -7 3 1590.83 766.255 3
-7 -16 3 2811.92 809.659 1
-7 -16 6 49091.7 1842.2 2
-16 23 6 56863.9 2518.77 4
-7 -16 6 54078.3 2482.1 1
-16 23 6 57075.7 2320.1 2
23 -7 6 54125.9 2351.42 3
-16 23 9 8338.91 1461.08 4
-7 -16 9 9126.4 1560.24 1
-16 23 9 6790.72 1270.84 2
23 -7 9 8618.19 1303.49 3
-7 -16 9 8027.03 1037.37 2
23 -6 -7 2356.52 659.711 3
-17 23 -4 11468.5 379.917 4
-6 -17 -4 14986.8 1233.72 1
-17 23 -4 10489.1 375.586 4
23 -6 -4 13528.3 1024.74 3
-17 23 -1 711.886 268.555 2
-17 23 -1 1543.22 492.245 4
-6 -17 -1 271.136 650.083 1
23 -6 -1 51.7389 595.876 3
-17 23 2 6192.49 870.458 4
-17 23 2 6060.88 642.568 2
23 -6 2 7142.25 1014.1 3
-6 -17 2 6088.93 909.674 1
-17 23 5 8021.31 1134.09 4
-6 -17 5 7552.43 1073.8 1
-17 23 5 8755.69 1039.59 2
23 -6 5 6373.83 1012.6 3
-6 -17 8 1190.83 595.497 2
-17 23 8 620.63 885.562 4
-6 -17 8 1349.94 1069.63 1
-17 23 8 2492.91 957.015 2
23 -6 8 1237.27 869.922 3
23 -5 -5 31414.4 1539.7 3
-5 -18 -5 29466.9 1792.31 1
-18 23 -2 14231.2 799.776 4
-5 -18 -2 13104.9 1158.24 1
23 -5 -2 13464.4 1106.27 3
-18 23 1 31399.5 1484.59 4
-18 23 1 33568 1208.33 2
23 -5 1 33206.1 1713.75 3
-5 -18 1 32633.6 1635.95 1
-18 23 4 4441.08 888.028 4
-18 23 4 4205.61 787.591 2
23 -5 4 5502.46 1017.88 3
-5 -18 4 4511.96 935.65 1
-5 -18 7 13929.8 1043.12 2
-18 23 7 14010.7 1516.54 4
-5 -18 7 17405.9 1701.76 1
-18 23 7 16657.6 1509.89 2
23 -5 7 17114.8 1513.05 3
-4 -19 -6 27163.5 1851.13 1
23 -4 -6 26159.6 1410.28 3
-19 23 -3 5102.99 441.969 4
-4 -19 -3 4412.71 900.479 1
23 -4 -3 5788.51 852.723 3
-4 -19 0 48267.1 1988.55 1
-19 23 0 48692.4 1683.26 4
23 -4 0 53583.9 2086.94 3
-19 23 0 51486.1 1401.27 2
-19 23 3 11055.9 1127.47 4
-19 23 3 9798.66 888.903 2
-4 -19 3 7815.2 1053.98 1
23 -4 3 7854.51 1082.7 3
-19 23 6 16265 1560.72 4
-4 -19 6 15101.6 1566.64 1
-19 23 6 14857.7 1354.89 2
23 -4 6 16094.2 1454.98 3
-19 23 9 5587.94 1245.92 4
-4 -19 9 6488.83 1336.43 1
-19 23 9 5214.35 1261.84 2
23 -4 9 3648.78 1089.17 3
23 -3 -7 1196.54 668.222 3
-3 -20 -7 829.323 994.896 1
23 -3 -4 6476.54 850.948 3
-3 -20 -4 4132.92 989.48 1
-20 23 -1 639.155 377.274 2
-20 23 -1 -127.35 442.214 4
-3 -20 -1 1554.06 832.742 1
23 -3 -1 1425.64 762.159 3
-20 23 2 34246.2 1672.94 4
-20 23 2 33613 1377.98 2
23 -3 2 37084.4 1873.61 3
-3 -20 2 33281.1 1748.8 1
-20 23 5 1945.64 842.965 4
-20 23 5 1245.2 726.983 2
-3 -20 5 2994.5 978.76 1
23 -3 5 460.702 779.511 3
23 -3 8 4548.86 824.576 4
-20 23 8 7668.98 1379.83 4
-20 23 8 8155.05 1279.75 2
-3 -20 8 7493.98 1379.19 1
23 -3 8 6975.04 1165.91 3
-2 -21 -5 22536.9 1744.41 1
23 -2 -5 26728.9 1506.79 3
-21 23 -2 10459.7 711.903 4
-2 -21 -2 11323.7 1203.07 1
23 -2 -2 10195.8 1085.78 3
-21 23 1 31135.2 1497.76 4
23 -2 1 34521.4 1796.61 3
-21 23 1 29602.8 1255.28 2
-2 -21 1 29327.6 1720.76 1
-21 23 4 15360.5 1360.79 4
-21 23 4 13558.2 1144.28 2
-2 -21 4 11591.4 1280.64 1
23 -2 4 13434.9 1331.59 3
-21 23 7 11090.8 1403.64 4
-2 -21 7 13315.1 1669.14 1
-21 23 7 10751.3 1274.99 2
23 -2 7 9266.87 1265.48 3
-1 -22 -6 4167.03 1250.24 1
23 -1 -6 4204.13 830.984 3
-22 23 -3 11976.6 624.4 4
23 -1 -3 10568.4 1162.07 3
-1 -22 -3 10830.3 1240.31 1
-1 -22 0 15375.7 1385.46 1
-22 23 0 17648.4 1120.51 4
-22 23 0 17448.2 1009.3 2
-22 23 3 21889.1 1482.07 4
-22 23 3 19289.3 1230.27 2
23 -1 3 20468.4 1581.51 3
-1 -22 3 17297.1 1472.51 1
-22 23 6 2915.37 1002.24 4
-22 23 6 2101.91 785.315 2
-1 -22 6 3165.09 1090.17 1
23 -1 6 5179.22 1084.26 3
-22 23 9 8790.44 1504.42 4
-22 23 9 9090.42 1464.1 2
-1 -22 9 6614.79 1574.22 1
23 -1 9 8879.11 1351.34 3
0 -23 -7 2977.53 1163 1
23 0 -7 830.495 762.377 3
0 -23 -4 21513.7 1757.15 1
23 0 -4 20451.8 1416.77 3
-23 23 -1 849.561 481.806 2
-23 23 -1 803.65 477.278 4
0 -23 -1 -301.277 880.82 1
23 0 -1 1605.86 846.359 3
-23 23 2 17579.7 1308.52 4
23 0 2 17910.8 1465.98 3
-23 23 2 19907.9 1191.85 2
0 -23 2 17765.1 1480.17 1
-23 23 5 1006.06 807.61 4
-23 23 5 770.299 731.599 2
23 0 5 -169.477 830.542 3
0 -23 5 1779.27 1030.74 1
-23 23 8 34171.1 2347.5 4
0 -23 8 29277.9 2369.94 1
-23 23 8 35931.2 2233.75 2
23 0 8 34139.9 2163.22 3
1 -24 -5 26041.6 1993.11 1
23 1 -5 29039.3 1704.47 3
-24 23 -2 8102.93 682.235 4
1 -24 -2 8109.04 1233.54 1
23 1 -2 6219.49 1070.17 3
1 -24 1 19003.6 1576.84 1
-24 23 1 15543.8 1201.79 4
23 1 1 19848.6 1525.59 3
-24 23 1 20082.7 1178.14 2
-24 23 4 5201.27 968.993 4
-24 23 4 6353.35 906.251 2
23 1 4 6824.23 1140.24 3
1 -24 4 5979.38 1186.87 1
-24 23 7 8962.02 1388.76 4
1 -24 7 9738.91 1489.93 1
-24 23 7 9549.49 1296.94 2
23 1 7 11817.9 1392.68 3
2 -25 -6 2170.99 1166.86 1
23 2 -6 2049.06 823.723 3
-25 23 -3 17330.7 816.312 4
2 -25 -3 17171.2 1612.76 1
23 2 -3 19497.1 1461.24 3
-25 23 0 5960.47 783.381 4
2 -25 0 4884.85 1103.68 1
23 2 0 7957.93 1121.28 3
-25 23 0 5768.46 769.7 2
-25 23 3 14307.7 1163.95 2
23 2 3 12325.8 1327.21 3
2 -25 3 14958.2 1504.24 1
-25 23 6 1842.39 882.474 4
-25 23 6 3139.49 953.125 2
23 2 6 4085.08 1047.14 3
2 -25 6 4297.42 1218.6 1
23 3 -7 1289.6 900.747 3
3 -26 -7 3735.72 1406.15 1
3 -26 -4 18919 1802.88 1
23 3 -4 21133.2 1591.3 3
-26 23 -1 2978.54 747.642 2
-26 23 -1 5427.44 702.478 4
3 -26 -1 3060.84 1093.62 1
23 3 -1 4100.23 1007.81 3
3 -26 2 27800.2 1939.18 1
-26 23 2 29548.2 1635.04 4
23 3 2 32005.3 1988.02 3
-26 23 2 27719.8 1510.92 2
-26 23 5 4079.23 1031.84 4
-26 23 5 3473.4 875.821 2
23 3 5 1969.65 938.919 3
3 -26 5 1324.95 1058 1
-26 23 8 16754.5 1822.38 4
3 -26 8 16487.1 1997.8 1
-26 23 8 13989.4 1541.38 2
23 3 8 15488.3 1661.75 3
4 -27 -8 1707.67 1332.21 1
4 -27 -5 7218.26 1415.48 1
23 4 -5 5694.86 1057.31 3
4 -27 -2 2630.45 1110.99 1
-27 23 -2 4305.58 601.443 4
23 4 -2 2699.3 960.813 3
4 -27 1 10512.9 1444.76 1
-27 23 1 10328.5 1053.48 4
23 4 1 10632.4 1297.24 3
-27 23 1 7730.91 959.417 2
4 -27 4 383.074 896.27 1
-27 23 4 389.432 771.843 4
-27 23 4 812.155 750.567 2
23 4 4 951.139 910.439 3
-27 23 7 865.265 1003.51 4
-27 23 7 1641.03 997.905 2
23 4 7 880.992 911.01 3
4 -27 7 418.995 1120.74 1
5 -28 -6 4976.64 1503.82 1
23 5 -6 6452.28 1210.14 3
5 -28 -3 8060.72 1445.63 1
23 5 -3 11535.4 1405.89 3
-28 23 0 5052.57 867.376 2
-28 23 0 4780.73 776.99 4
5 -28 0 5491.6 1268.03 1
23 5 0 4521.88 1096.31 3
-28 23 3 15767.2 1411.72 4
23 5 3 15343.2 1576.42 3
-28 23 3 16687.4 1347.92 2
5 -28 3 13127 1620.54 1
-28 23 6 3916.47 1116.98 4
-28 23 6 4635.47 1066.5 2
23 5 6 4233.01 1170.47 3
5 -28 6 4392.65 1349.09 1
23 6 -7 3407.12 1113.81 3
6 -29 -7 4301.46 1555.99 1
6 -29 -4 10455.7 1634.89 1
23 6 -4 10525 1323.53 3
-29 23 -1 8907.3 936.368 4
6 -29 -1 8830.67 1490.39 1
23 6 -1 8310.98 1245.12 3
6 -29 2 16808.6 1826.89 1
-29 23 2 21975.7 1545.72 4
23 6 2 19098.6 1690.03 3
-29 23 2 19973.8 1473.5 2
6 -29 5 4805.13 1329.58 1
-29 23 5 4139.33 1088.66 4
-29 23 5 2879.58 973.273 2
23 6 5 4440.45 1225.31 3
7 -30 -5 -93.4958 1133.09 1
23 7 -5 800.472 960.141 3
7 -30 -2 3391.69 1199.22 1
-30 23 -2 2793.74 619.877 4
23 7 -2 4670.23 1120.53 3
-30 23 1 2313.51 762.26 2
-30 23 1 434.601 618.841 4
7 -30 1 1774.97 1177.53 1
23 7 1 1103.13 884.721 3
7 -30 4 -28.2329 1026.18 1
-30 23 4 865.003 782.6 4
23 7 4 218.678 941.857 3
-30 23 4 510.128 770.876 2
8 -31 -6 3073.39 1509.46 1
23 8 -6 3364.98 1200.44 3
8 -31 -3 10023.2 1654.67 1
23 8 -3 10953.6 1518.49 3
-31 23 0 3751.47 939.897 2
-31 23 0 4825.77 811.019 4
8 -31 0 2791.22 1241.45 1
23 8 0 3287.64 1107.4 3
8 -31 3 7245.28 1475.4 1
-31 23 3 6175.76 1118.77 4
-31 23 3 5876.12 1067.61 2
23 8 3 3558.93 1159.76 3
8 -31 6 6608.68 1589.99 1
-31 23 6 9699.72 1495.82 4
-31 23 6 7390.92 1342.64 2
23 8 6 8139.44 1478.08 3
9 -32 -4 4794.59 1417.66 1
23 9 -4 5450.92 1305.28 3
-32 23 -1 5264.88 863.691 4
9 -32 -1 6183.12 1496.84 1
23 9 -1 6258.62 1325.37 3
-32 23 2 3922.72 971.765 2
-32 23 2 5101.36 1040.87 4
9 -32 2 4606.7 1419.64 1
23 9 2 6187.81 1319.44 3
9 -32 5 5784.5 1474.17 1
-32 23 5 5313.74 1246.59 4
23 9 5 7449.72 1416.18 3
-32 23 5 4661.22 1121.1 2
23 10 -5 1223.07 1185.44 3
10 -33 -5 687.375 1341.79 1
10 -33 -2 1040.61 1234.83 1
23 10 -2 2602.65 1183.43 3
-33 23 1 1033.12 844.166 2
-33 23 1 603.38 769.581 4
10 -33 1 1751.38 1191.42 1
23 10 1 742.078 1035.35 3
10 -33 4 551.895 1236.85 1
-33 23 4 1003.23 967.208 4
23 10 4 3413.8 1270.44 3
-33 23 4 -291.091 821.906 2
11 -34 -3 4549.37 1533.63 1
23 11 -3 3811.37 1227.78 3
-34 23 0 3955.26 995.156 2
-34 23 0 3284.68 864.292 4
23 11 0 2103.07 1211.75 3
-34 23 3 3154.68 1057.93 2
11 -34 3 3616.95 1426.94 1
-34 23 3 6106.11 1200.02 4
23 11 3 5061.01 1381.69 3
12 -35 -1 8071.43 1698.63 1
-35 23 -1 8013.64 1051.09 4
23 12 -1 12290.8 1735.15 3
-35 23 2 1455.32 966.065 2
-35 23 2 367.329 878.529 4
12 -35 2 -13.7786 1312.39 1
23 12 2 1921.14 1282.98 3
-36 23 1 351.813 941.313 2
-36 23 1 195.499 799.3 4
13 -36 1 -279.382 1397.9 1
23 13 1 1206.5 1245.9 3
11 24 -1 4064.28 1598.14 3
24 -35 -1 583.291 1328.3 1
11 24 2 2878.35 1477.35 3
-35 11 2 1757.7 1141.56 2
-35 11 2 1964.81 996.337 4
24 -35 2 -63.8935 1300.69 1
10 24 -2 6555.83 1756.38 3
24 -34 -2 2077.33 1307.6 1
24 -34 1 4125.66 1428.58 1
10 24 1 3811.51 1450.48 3
-34 10 1 744.451 871.487 4
24 -33 -3 4179.28 1614.3 1
9 24 -3 2796.32 1646.36 3
24 -33 0 484.884 1189.21 1
-33 9 0 478.984 814.305 4
9 24 3 6343.37 1586.12 3
-33 9 3 5131.99 1298.93 2
-33 9 3 7372.93 1236.99 4
24 -33 3 6686.07 1577.73 1
8 24 -4 3411.94 1564.34 3
24 -32 -4 3763.89 1491.87 1
8 24 -1 4703.08 1561.87 3
24 -32 -1 1779.08 1351.06 1
8 24 2 6089.13 1422.93 3
-32 8 2 4929.82 1297.57 2
-32 8 2 3464.96 996.977 4
24 -32 2 5385.68 1425.22 1
8 24 5 2055.1 1337.65 3
-32 8 5 145.035 1014.82 2
8 24 5 569.887 1139.33 2
24 -32 5 1267.54 1168.83 1
-32 8 5 465.816 969.946 4
8 24 5 30.2875 1099.59 4
7 24 -5 9600.22 1839.94 3
24 -31 -5 11735.4 1990.26 1
7 24 -2 -467.6 1475.63 3
24 -31 -2 2557.73 1309.15 1
7 24 1 6233.89 1544.97 3
-31 7 1 8632.15 1227.96 4
24 -31 1 4888.07 1399.78 1
7 24 4 12984.6 1821.59 3
7 24 4 8327.27 1370.42 2
24 -31 4 10423.3 1636.67 1
-31 7 4 12298.3 1456.06 4
-31 7 4 11525.1 1523.96 2
6 24 -6 3986.97 1528.48 3
24 -30 -6 2534.83 1625.27 1
6 24 -3 639.807 1301.08 3
24 -30 -3 2725.37 1378.65 1
6 24 0 8286.68 1638.43 3
24 -30 0 7122.62 1463.14 1
-30 6 0 6349.21 1107.77 4
6 24 3 3170.77 1260.61 3
-30 6 3 3579.57 1098.54 2
-30 6 3 4858.52 1147.61 4
24 -30 3 4846.97 1356.4 1
-30 6 6 2639.33 1058.01 2
6 24 6 7332.96 1526.78 3
6 24 6 2390.91 1105.25 4
6 24 6 2668.89 1209.96 2
24 -30 6 3253.7 1289.32 1
-30 6 6 4796.37 1302.82 4
24 -29 -7 -2611.89 1775.81 1
5 24 -4 6652.05 1694.45 3
24 -29 -4 2468.57 1253.21 1
5 24 -1 1400.24 1284.04 3
24 -29 -1 604.399 1113.28 1
-29 5 2 2748.32 997.102 2
-29 5 2 4406.2 980.854 4
24 -29 2 1881.98 1123.99 1
-29 5 5 1753.25 1067.44 2
5 24 5 117.442 1166.98 3
5 24 5 644.409 935.37 4
5 24 5 250.11 972.46 2
24 -29 5 1391.39 1114.76 1
-29 5 5 725.384 962.645 4
4 24 -5 23285.1 2255.55 3
24 -28 -5 20216.3 2201.46 1
4 24 -2 7431.36 1624.62 3
24 -28 -2 3356.62 1227.52 1
4 24 1 18120.9 1906.14 3
-28 4 1 18158.1 1505.91 4
24 -28 1 15586.6 1685.77 1
4 24 4 5388.55 1431.57 3
4 24 4 6637.31 1320.69 4
4 24 4 6219.47 1227.62 2
-28 4 4 7878.99 1218.05 4
24 -28 4 5483.36 1284.76 1
-28 4 4 6186.75 1182.73 2
24 -28 7 8625.62 1556.71 1
4 24 7 3654.01 1399.66 3
4 24 7 3747.54 1274.94 4
4 24 7 7706.04 1507.76 2
-28 4 7 3517.78 1189.26 4
-28 4 7 5061.55 1228.95 2
24 -27 -6 -478.291 1298.85 1
3 24 -3 1489.49 1348.44 3
24 -27 -3 -45.7864 1124.29 1
3 24 0 25546.9 2215.3 3
24 -27 0 25227.1 1987.69 1
3 24 3 2096.52 1200.93 3
-27 3 3 1886.46 968.268 2
3 24 3 792.337 880.739 2
-27 3 3 3859.44 965.557 4
24 -27 3 4612.37 1174.7 1
3 24 6 18138.3 1877.78 3
24 -27 6 15576.3 1749.49 1
3 24 6 16839.8 1744.92 4
3 24 6 16756.1 1750.17 2
-27 3 6 16764.4 1666.3 4
-27 3 6 15844.4 1590.99 2
24 -26 -7 -590.789 1374.57 1
24 -26 -4 6013.33 1447.34 1
2 24 -4 5091.68 1492.1 3
2 24 -1 6172.13 1511.33 3
24 -26 -1 5589.84 1276.94 1
2 24 2 172.792 1154.22 3
-26 2 2 368.112 829.033 2
2 24 2 1090.3 748.5 2
-26 2 2 -448.713 810.639 4
24 -26 2 768.81 985.245 1
2 24 5 14589.9 1744.74 3
24 -26 5 15198.2 1647.17 1
2 24 5 15174.4 1582.81 4
2 24 5 14037.5 1511.72 2
-26 2 5 14604.7 1521.36 4
-26 2 5 10330.4 1383.48 2
2 24 8 2826.98 1296.25 3
24 -26 8 4989.89 1305.49 1
2 24 8 4122.72 1343.18 4
2 24 8 8459.43 1541.69 2
-26 2 8 5081.08 1267.96 4
24 -26 8 5398.21 1294.39 3
-26 2 8 5953.44 1345.33 2
24 -25 -5 13374.8 1784.75 1
24 -25 -5 16035.4 1225.31 3
24 -25 -2 4273.67 1219.13 1
1 24 -2 5479.13 1466.03 3
1 24 1 31153.9 2262.74 3
1 24 1 28026.8 1556 2
-25 1 1 26156.5 953.256 1
-25 1 1 29782 1761.54 4
24 -25 1 27484.7 1940.91 1
1 24 4 14136.5 1695.96 3
1 24 4 16309.1 1584.41 4
1 24 4 14325.5 1414.09 2
24 -25 4 12720.2 1479.51 1
-25 1 4 15385.5 1479.27 4
-25 1 4 13929.8 1438.24 2
1 24 7 6677.03 1390.91 3
1 24 7 7757 1409.87 4
24 -25 7 7329.98 1322.62 1
1 24 7 7839.46 1482.52 2
-25 1 7 9422.07 1427.54 4
24 -25 7 11640.9 1575.27 3
-25 1 7 8479.36 1328.69 2
24 -24 -6 12405.8 1842.32 1
24 -24 -6 12241.2 964.547 3
0 24 -3 1871.1 1328.07 3
24 -24 -3 2012.48 709.499 3
24 -24 -3 1156.94 1040.81 1
0 24 0 33167.9 2318.23 3
24 -24 0 27027.4 1896.21 1
0 24 3 -27.9226 1123.29 3
-24 0 3 462.934 772.424 2
0 24 3 544.306 908.861 4
-24 0 3 692.782 657.239 1
0 24 3 261.99 771.524 2
-24 0 3 1768.82 810.822 4
24 -24 3 856.011 878.068 1
-24 0 6 4701.4 1121.51 2
0 24 6 4407.54 1323.18 3
0 24 6 8775.25 1354.72 4
24 -24 6 4732.85 1173.98 1
0 24 6 5100.8 1198.71 2
-24 0 6 7558.1 1208.13 4
24 -24 6 7590.02 1250.32 3
24 -23 -4 7179.08 919.111 3
24 -23 -4 5253.12 1226.26 1
-1 24 -1 18636.1 1878.91 3
24 -23 -1 15498.9 1560.41 1
-23 -1 2 7481.14 1147.97 2
-1 24 2 5752.24 1310.87 3
-1 24 2 6970.07 1110.2 4
-1 24 2 5931.31 933.218 2
-23 -1 2 5729.32 688.25 1
-23 -1 2 6161.13 1014.01 4
24 -23 2 6131.11 1105.7 1
-1 24 5 26159.3 1974.8 3
24 -23 5 23485.2 1717.92 1
-1 24 5 27905.8 1889.65 4
-1 24 5 29637.7 1900.66 2
-23 -1 5 30069.3 1893.16 4
24 -23 5 28679 1957.86 3
-23 -1 5 24490.5 1745.14 2
24 -23 8 1602.04 1110.01 1
-1 24 8 1663.48 1094.92 3
-1 24 8 1151.52 975.397 4
-1 24 8 1385.43 1122.88 2
-23 -1 8 2277.53 1079.99 4
24 -23 8 1261.99 1008.31 3
-23 -1 8 1506.36 988.758 2
24 -22 -5 17487 1138.28 3
24 -22 -5 14080.6 1782.49 1
-2 24 -2 10059.6 1578.38 3
-2 24 -2 10674.1 691.466 2
24 -22 -2 8476.17 1273.35 1
24 -22 -2 10541.2 1054.8 3
-2 24 1 33046.9 2180.56 3
-2 24 1 28869.7 1398.01 2
-22 -2 1 30045.1 1005.99 1
24 -22 1 30147.9 1720.17 3
24 -22 1 27242.9 1808.41 1
-2 24 4 8444.22 1396.11 3
-22 -2 4 8393.09 1012.68 1
-2 24 4 8663.82 1235.11 4
-2 24 4 9460.44 1199 2
-22 -2 4 8549.42 1115.28 4
24 -22 4 5342.17 1088.12 1
24 -22 4 7329.51 1174 3
-22 -2 4 9961.19 1237.61 2
-2 24 7 18924.5 1776.17 3
-2 24 7 16190 1699.49 4
-2 24 7 19416.5 1797.68 2
-22 -2 7 17389.7 1637.48 4
24 -22 7 19127.9 1743.05 3
-22 -2 7 16636.1 1566.03 2
24 -22 7 16575 1584.04 1
24 -21 -6 8602.72 815.939 3
-3 24 -3 3101.61 323.944 2
24 -21 -3 6047.07 1232.5 1
24 -21 -3 6553.3 890.608 3
-3 24 0 48478.1 1544.47 2
24 -21 0 50349.7 2113.82 3
-21 -3 0 45255.8 826.674 1
-21 -3 0 47051.4 788.698 1
24 -21 0 50481.7 2327.85 1
-21 -3 3 9938.18 1229.8 2
-3 24 3 9458.61 1401.4 3
-3 24 3 8644.36 1181.11 4
-21 -3 3 11123.1 965.479 1
-3 24 3 11002.4 1101.22 2
24 -21 3 10166.1 1242.96 1
-21 -3 3 8657.1 1113.14 4
24 -21 3 10068.7 1209.35 3
24 -21 6 11938.4 1344.01 1
-3 24 6 15351.1 1634.63 3
-21 -3 6 14798.2 1478.75 1
-3 24 6 16288.8 1599.34 4
-3 24 6 15805.8 1564.74 2
-21 -3 6 11953.9 1391.93 4
24 -21 6 13715 1472.09 3
-21 -3 6 14773.5 1452.82 2
-21 -3 9 5163.22 1424.58 1
-3 24 9 5488.83 1361.11 4
-3 24 9 5813.36 1343.69 2
-21 -3 9 2420.68 1047.47 4
24 -21 9 4258.8 1215.26 3
24 -21 9 5626.89 1306.33 1
-21 -3 9 4396.87 1157.08 2
24 -20 -4 10169.2 942.485 3
24 -20 -4 10894.3 1486.1 1
-4 24 -1 19197.8 1816.58 3
-4 24 -1 17399.5 819.588 2
24 -20 -1 16181.1 1467.95 1
24 -20 -1 17167.1 1277.63 3
-4 24 -1 13626.4 703.326 2
-4 24 2 2608.85 1161.58 3
-20 -4 2 3184.85 903.118 2
-4 24 2 2431.37 846.429 4
-4 24 2 4242.56 778.961 2
-20 -4 2 4248.39 601.216 1
-20 -4 2 4195.33 876.993 4
24 -20 2 3855.3 911.904 3
24 -20 2 1744.56 863.902 1
-4 24 5 30409.1 1980.66 3
24 -20 5 27351.8 1744.65 1
-20 -4 5 29627.1 1771.7 1
-4 24 5 31188.8 1950.54 4
-4 24 5 27855.4 1780.94 2
-20 -4 5 30213.1 1880.22 4
24 -20 5 32059.9 1911.74 3
-20 -4 5 29211.2 1778.32 2
24 -20 8 932.363 892.825 1
-4 24 8 3548.93 1043.04 3
-20 -4 8 5298.17 1336.3 1
-4 24 8 4440.65 1261.86 4
-4 24 8 4516.49 1255.52 2
-20 -4 8 2668.33 968.486 4
24 -20 8 2931.55 1037.52 3
-20 -4 8 3196.61 1054.16 2
24 -19 -5 14564.6 1014.14 3
24 -19 -5 19617.7 1870.4 1
24 -19 -2 49172 1940.69 3
-5 24 -2 41493.1 751.478 2
24 -19 -2 51227.8 2380.8 1
-5 24 1 13397.7 1564.2 3
-5 24 1 13019.4 1217.4 4
-5 24 1 14067.7 937.522 2
-19 -5 1 14733.8 789.928 1
24 -19 1 16709.9 1317.86 3
24 -19 1 13657.8 1261.83 1
-19 -5 4 4245.21 900.843 2
-5 24 4 4281.95 1155.9 3
-5 24 4 6189.89 1115.23 4
-19 -5 4 3667.89 781.257 1
-5 24 4 3280.65 825.747 2
-19 -5 4 3319.98 855.909 4
24 -19 4 5857.5 993.433 1
24 -19 4 4894.15 983.456 3
-19 -5 7 14537.9 1600.83 1
-5 24 7 12637.8 1544.76 4
-5 24 7 16868 1619.36 2
-19 -5 7 13112.3 1391.49 4
24 -19 7 15794.9 1527.18 3
-19 -5 7 15589.3 1469.05 2
24 -19 7 15647.1 1436.68 1
24 -18 -6 33276 1309.25 3
24 -18 -3 14771.3 1533.93 1
24 -18 -3 16758.3 1149.07 3
-6 24 0 16267.5 809.987 2
24 -18 0 16607.6 1342.1 1
-6 24 0 19041.6 1307.56 4
-6 24 0 18228.2 879.663 2
24 -18 0 20190.7 1403.69 3
-18 -6 0 17964.7 711.223 1
-18 -6 3 40664.2 1959.26 2
-6 24 3 41967.6 2272.97 3
-6 24 3 43067.6 2050.72 4
-6 24 3 42963.1 1756.9 2
-18 -6 3 40094.2 1635.8 1
24 -18 3 41371.7 1895.05 1
-18 -6 3 44676.3 2052.42 4
24 -18 3 42897.1 2026.99 3
24 -18 6 17205.7 1399.03 1
-18 -6 6 19520.7 1609.73 1
-6 24 6 17313.2 1585.18 4
-6 24 6 18360.4 1547.03 2
-18 -6 6 18450.3 1518.66 4
24 -18 6 20914.9 1609.5 3
-18 -6 6 16193.4 1401.48 2
-18 -6 9 13361.3 1761.36 1
-6 24 9 13110 1660.26 4
-6 24 9 14174.8 1736.61 2
-18 -6 9 13106.7 1520.37 4
24 -18 9 16758.7 1636.82 3
24 -18 9 12343.4 1361.95 1
-18 -6 9 10584.8 1328.57 2
24 -17 -4 3599.43 1099.54 1
24 -17 -4 4987.65 712.451 3
-7 24 -1 12854.7 1064.06 4
-7 24 -1 11707.7 496.534 2
-17 -7 -1 10650.2 411.102 1
24 -17 -1 12868.8 1136.3 3
24 -17 -1 9606.89 1123.62 1
-7 24 -1 11314.6 480.505 2
-7 24 2 8859.27 1090.96 4
-7 24 2 7623.91 787.858 2
-17 -7 2 7537.07 754.123 1
24 -17 2 7073.71 971.681 3
24 -17 2 7618.55 943.443 1
24 -17 5 30263.1 1657.35 1
-7 24 5 36414.7 2068.16 4
-17 -7 5 34086.2 1840.59 1
-7 24 5 34975.9 1849 2
-17 -7 5 29948.9 1754.26 4
24 -17 5 35142.4 1954.47 3
-17 -7 5 34972.8 1813.88 2
24 -17 8 13741.1 1346.68 2
-17 -7 8 12968.2 1667.73 1
-7 24 8 11668.3 1527.24 4
-7 24 8 13854.2 1550.77 2
-17 -7 8 12268.2 1413.33 4
24 -17 8 11141.1 1387.92 3
-17 -7 8 11290.2 1304.34 2
24 -17 8 11802.1 1253.29 1
24 -16 -5 4534.71 664.072 3
-8 24 -2 8949.75 872.136 4
24 -16 -2 8072.11 1162.01 1
24 -16 -2 7288.96 856.322 3
-8 24 1 913.505 685.324 4
-8 24 1 940.275 451.049 2
24 -16 1 1953.11 726.624 1
24 -16 1 1850.9 746.203 3
-16 -8 1 1298.34 455.796 1
-16 -8 4 27653.8 1614.29 2
-8 24 4 29221.3 1822.39 4
-16 -8 4 29677.8 1581.89 1
-8 24 4 28323.3 1542.02 2
24 -16 4 29639.5 1565.19 1
-16 -8 4 25787.9 1607.56 4
24 -16 4 27622 1738.18 3
24 -16 7 3523.75 844.299 1
-8 24 7 3940.55 1058.54 4
-16 -8 7 4944.39 1165.22 1
-8 24 7 2494.77 985.67 2
-16 -8 7 1659.64 807.949 4
24 -16 7 3009.92 901.95 3
-16 -8 7 3716.89 857.82 2
-9 24 -6 16530.1 789.053 4
24 -15 -6 16773.1 990.607 3
-9 24 -3 42839.1 1497 4
24 -15 -3 45050.6 2235.01 1
24 -15 -3 43432.9 1692.67 3
-9 24 0 12584.7 1064.08 4
-9 24 0 12582.6 627.575 2
24 -15 0 11522.1 1083.4 1
24 -15 0 11552.5 1102.02 3
-15 -9 0 12734.3 724.869 1
-15 -9 3 34750.5 1755.17 2
-9 24 3 40299.4 1971 4
24 -15 3 32799.6 1282.75 4
-9 24 3 36341.2 1576.03 2
-15 -9 3 34085.4 1541.37 1
24 -15 3 36640.2 1581.78 1
24 -15 3 37528 1880.6 3
24 -15 6 13803 1150.94 1
-9 24 6 19201.4 1654.42 4
-15 -9 6 17817.7 1537.21 1
-9 24 6 16889.5 1467.92 2
-15 -9 6 16200.7 1401.35 4
24 -15 6 18880.5 1542.29 3
-15 -9 6 18125.4 1368.87 2
24 -15 9 10480.7 1402.42 2
-15 -9 9 11209.3 1619.27 1
-9 24 9 9727.49 1564.96 4
-9 24 9 10411.8 1572.64 2
-15 -9 9 11591.3 1375.15 4
24 -15 9 9804.33 1392.84 3
-15 -9 9 9524.37 1262.51 2
-10 24 -4 1896.54 477.313 4
24 -14 -4 2369.63 625.941 3
-10 24 -1 33804.9 1458.81 4
-14 -10 -1 33459.8 1131.83 1
24 -14 -1 34708.6 1734.5 1
24 -14 -1 32650.2 1584.1 3
-10 24 2 25007.3 1506.8 4
-10 24 2 21094.6 1092.81 2
-14 -10 2 22847.5 1217.15 1
24 -14 2 23681.5 1518.98 3
24 -14 2 23386 1245.12 1
-10 24 5 39948.8 2118.19 4
24 -14 5 38923.5 1648.32 1
-14 -10 5 36544.8 1938.55 1
-10 24 5 40082.1 1885.82 2
-14 -10 5 40068.2 1995.77 4
24 -14 5 37752.3 1956.1 3
-14 -10 5 34632.5 1760.86 2
-10 24 8 9760.27 1480.93 4
-14 -10 8 13145.5 1648.19 1
-10 24 8 11185.3 1408.75 2
-14 -10 8 10568.2 1274.84 4
24 -14 8 12091.1 1398.72 3
24 -14 8 10539.2 1127.46 1
-14 -10 8 10540.2 1220.14 2
-11 24 -5 1466.62 369.407 4
24 -13 -5 1077.77 580.301 3
-11 24 -2 33802.6 1345.5 4
24 -13 -2 30791 1481.84 3
24 -13 -2 30116.3 1711.67 1
-13 -11 -2 35583.1 1119 1
-11 24 1 3741.44 770.053 4
-11 24 1 3971.3 503.387 2
24 -13 1 4189.9 714.737 1
24 -13 1 4193.42 815.642 3
-13 -11 1 4320.49 604.107 1
-13 -11 4 6037.59 894.724 2
-11 24 4 5047.51 1016.79 4
-13 -11 4 6155.56 947.214 1
-11 24 4 5330.33 888.788 2
24 -13 4 5204.5 709.757 1
24 -13 4 7073.02 1070.88 3
-11 24 7 5333.25 1183.15 4
-13 -11 7 8254.61 1339.44 1
-11 24 7 7290.61 1169.9 2
-13 -11 7 4855.65 982.047 4
24 -13 7 3623.69 943.315 3
-13 -11 7 6086.15 940.592 2
24 -13 7 6685.63 862.125 1
24 -13 10 9007.88 1401.24 2
-13 -11 10 12198.6 1802.06 1
-11 24 10 10656.5 1633.01 2
24 -13 10 10772.3 1397.64 3
-13 -11 10 8797.64 1231.33 2
24 -12 -6 3388.43 589.691 3
-12 24 -3 29616.1 1169.57 4
-12 -12 -3 27573.3 1105.49 1
24 -12 -3 30282.9 1425.76 3
-12 24 0 6974.31 835.779 4
24 -12 0 5173.34 759.726 1
-12 24 0 6576.56 430.913 2
24 -12 0 5917.75 867.751 3
-12 -12 0 5951.46 676.447 1
-12 24 3 16299.5 1344.03 4
-12 24 3 19249.6 1155.14 2
-12 -12 3 17717.6 1246.99 1
24 -12 3 20481.9 1454.31 3
24 -12 3 19081.6 1040.73 1
24 -12 6 14142 1028.5 1
-12 24 6 17446.2 1560.63 4
-12 -12 6 15493.3 1481.86 1
-12 24 6 17645.4 1443.85 2
24 -12 6 15507.5 1401.87 3
-12 -12 6 15699.9 1279.73 2
24 -12 9 11255.3 1425.1 2
-12 24 9 13303.5 1658.72 4
-12 -12 9 13534.3 1756.33 1
-12 24 9 16098.5 1717.88 2
-12 -12 9 9667.74 1253.95 4
24 -12 9 13529.5 1496.13 3
-12 -12 9 10889.5 1222.78 2
24 -11 -7 3647.67 581.927 3
-13 24 -4 8239.35 572.877 4
-11 -13 -4 6442.79 739.932 1
24 -11 -4 7229.23 818.526 3
-13 24 -1 6374.57 714.673 4
-11 -13 -1 6711.1 728.658 1
24 -11 -1 6225.94 864.211 3
-13 24 2 25744.5 1485.1 4
-13 24 2 26363.2 1168.99 2
24 -11 2 22552.9 1076.62 1
-11 -13 2 25931.9 1352.28 1
24 -11 2 28022.4 1623.78 3
-11 -13 5 7781.87 912.716 2
-13 24 5 8712.66 1214.6 4
-11 -13 5 8024.9 1086.78 1
24 -11 5 7368.86 717.983 1
-13 24 5 6933.28 982.09 2
24 -11 5 8682.95 1136.76 3
-11 -13 8 2573.35 775.091 2
-13 24 8 2953.17 1129.58 4
-11 -13 8 1795.4 1112.72 1
-13 24 8 1835.01 964.27 2
-11 -13 8 2481.72 895.769 4
24 -11 8 2138.84 928.622 3
24 -10 -5 33216 1421.38 3
-14 24 -2 19777.3 999.141 4
24 -10 -2 17992.7 1217.89 3
-14 24 1 30201.9 1489.64 4
-14 24 1 33129.7 1121.09 2
24 -10 1 31343.5 1672.04 3
-10 -14 1 31862.6 1428.39 1
24 -10 1 28200.3 1236.15 1
-10 -14 4 7802.27 904.568 2
-14 24 4 7755.55 1036.77 4
-14 24 4 8243.97 964.21 2
-10 -14 4 7465.94 1012.49 1
24 -10 4 7296.86 1072.54 3
24 -10 4 6287.07 553.725 1
-14 24 7 14364.6 1502.85 4
-10 -14 7 15519.8 1583.6 1
-14 24 7 12573.5 1377.33 2
24 -10 7 13048.9 1446.7 3
-10 -14 7 13316.3 1158.24 2
24 -9 -6 10981.9 910.57 3
-15 24 -3 28666.9 1034.86 4
24 -9 -3 29325.7 1453.28 3
-9 -15 0 7100.08 813.283 1
-15 24 0 8034.39 846.226 4
24 -9 0 7497.02 956.208 3
-15 24 0 6725.9 486.673 2
24 -9 3 40281.2 1052.79 1
-15 24 3 53034.9 2160.03 4
-15 24 3 50347.9 1739.23 2
-9 -15 3 46774.2 1932.23 1
24 -9 3 40993.6 2014.84 3
-15 24 6 32260.9 2038.18 4
-9 -15 6 29078.2 1896.09 1
-15 24 6 32883.4 1823.31 2
24 -9 6 30785.5 1881.62 3
24 -9 9 13881 1697.89 2
-15 24 9 22212.5 2043.74 4
-9 -15 9 17756.5 1929.01 1
-15 24 9 18579 1807.05 2
24 -9 9 19571.5 1719.11 3
-9 -15 9 18829 1449.88 2
24 -8 -7 1689.02 557.842 3
-16 24 -4 21041.3 653.799 4
-8 -16 -4 24584.2 1367.7 1
24 -8 -4 23319.7 1286.44 3
-16 24 -1 3183.58 620.668 4
-8 -16 -1 2439.09 694.723 1
24 -8 -1 2842.35 739.042 3
-16 24 -1 2109.54 251.234 2
-16 24 2 10593.9 1036.77 4
-16 24 2 11356 822.276 2
24 -8 2 10914.1 1136.17 3
-8 -16 2 10355.8 1035.56 1
-8 -16 5 5279.62 828.749 2
-16 24 5 6639.86 1085.1 4
-8 -16 5 7031.98 1116.23 1
-16 24 5 5294.05 871.718 2
24 -8 5 8579.26 1144.26 3
-16 24 8 14390.9 1625.44 4
-8 -16 8 14661.3 1653.63 1
-16 24 8 13896.4 1497.87 2
24 -8 8 12942.4 1444.82 3
-8 -16 8 10506.7 1083.27 2
-7 -17 -5 28232.4 1622.59 1
24 -7 -5 27703.4 1375.25 3
-17 24 -2 12286.2 787.673 4
-7 -17 -2 12659.6 1032.66 1
24 -7 -2 12302.1 1073.89 3
-17 24 1 7063.76 868.345 4
-17 24 1 7689.78 634.25 2
24 -7 1 7421.09 1029.31 3
-7 -17 1 5774.42 868.717 1
-17 24 4 6407.25 1035.01 4
-17 24 4 6719.42 888.126 2
-7 -17 4 5538.99 1018.53 1
24 -7 4 5796.98 1025.23 3
-7 -17 7 13199.6 1091.94 2
-17 24 7 14598 1563.05 4
-7 -17 7 15008.6 1587.52 1
-17 24 7 15324.6 1430.5 2
24 -7 7 14016.1 1407.08 3
-6 -18 -6 10107.9 1198 1
24 -6 -6 8561.77 922.303 3
-18 24 -3 24169.7 877.341 4
24 -6 -3 25009.4 1406.73 3
-6 -18 -3 25742 1478.09 1
-6 -18 0 20716.2 1361.08 1
-18 24 0 21715.8 1194.03 4
24 -6 0 20456.1 1411.8 3
-18 24 0 20956.5 880.278 2
-18 24 3 12692.1 1197.65 4
-18 24 3 11469.5 956.9 2
-6 -18 3 12363.7 1184.88 1
24 -6 3 13811.6 1320.64 3
-6 -18 6 36102.3 1593.06 2
-18 24 6 42787.8 2312.19 4
-6 -18 6 42195 2336.73 1
-18 24 6 41622.2 2036.87 2
24 -6 6 41236 2122.66 3
-18 24 9 8989.81 1499.01 4
-6 -18 9 7829.59 1568.54 1
-18 24 9 5849.1 1196.28 2
24 -6 9 10062.4 1381.26 3
24 -5 -7 19841.2 1249.18 3
-5 -19 -4 943.287 758.018 1
24 -5 -4 1859.55 691.249 3
-19 24 -1 13886.3 682.201 2
-5 -19 -1 12401.8 1133.2 1
-19 24 -1 16654.5 998.084 4
24 -5 -1 18173.5 1321.68 3
-19 24 2 35148.2 1708.24 4
-19 24 2 37980.9 1428.33 2
24 -5 2 37607.7 1923.35 3
-5 -19 2 39579.2 1837.16 1
-19 24 5 11195.2 1281.19 4
-19 24 5 12443 1160.26 2
-5 -19 5 10896.4 1362.42 1
24 -5 5 9235.72 1199.37 3
-19 24 8 3085.45 1160.33 4
-5 -19 8 3562.92 1265.27 1
-19 24 8 4298.43 1075.24 2
24 -5 8 4041.48 1073.36 3
-4 -20 -5 14899.9 1409.59 1
24 -4 -5 17277 1226.16 3
-20 24 -2 4961.65 569.937 4
-4 -20 -2 5229.23 973.677 1
24 -4 -2 6397.08 929.371 3
-20 24 1 18385.9 1207.3 4
24 -4 1 20661.9 1463.98 3
-20 24 1 20266.6 1024.38 2
-4 -20 1 18163.5 1402.25 1
-20 24 4 14143.9 1345.27 4
-20 24 4 12893.6 1101.8 2
-4 -20 4 13635.1 1382.81 1
24 -4 4 17078.3 1460.08 3
-20 24 7 15293.3 1614.74 4
-4 -20 7 11731.3 1491.41 1
-20 24 7 14743.9 1475.05 2
-3 -21 -6 15016.6 1582.33 1
24 -3 -6 14094.1 1178.15 3
-3 -21 -3 5897.07 1010.18 1
-21 24 -3 6404.23 499.554 4
24 -3 -3 6320.76 946.192 3
-3 -21 0 46330.7 2072.48 1
-21 24 0 46113.3 1690.52 4
24 -3 0 47055.3 2062.24 3
-21 24 0 45996.1 1444.84 2
-21 24 3 -148.435 688.408 4
-21 24 3 978.588 582.545 2
24 -3 3 510.564 780.548 3
-3 -21 3 388.172 772.085 1
-21 24 6 10363.8 1337.23 4
-3 -21 6 11228.9 1409.66 1
-21 24 6 11580.2 1268.49 2
24 -3 6 8751.91 1224.75 3
-21 24 9 712.223 1037.31 4
-3 -21 9 1697.43 1276.44 1
-21 24 9 1132.11 1004.95 2
24 -3 9 1971.95 949.502 3
-2 -22 -7 32083.5 2261.86 1
24 -2 -7 30640 1659.7 3
-2 -22 -4 2690.75 1016.95 1
24 -2 -4 1848.98 723.63 3
-22 24 -1 30297.9 1173.16 2
-2 -22 -1 30962 1840.8 1
-22 24 -1 32324.9 1336.97 4
24 -2 -1 35470.6 1805.97 3
-22 24 2 9113.41 1026.32 4
-22 24 2 9062.54 845.885 2
24 -2 2 10612.8 1231.63 3
-2 -22 2 7107.37 1100.58 1
-22 24 5 12431.5 1371.98 4
-22 24 5 13216.8 1268.84 2
-2 -22 5 14252.7 1496.27 1
24 -2 5 15644.2 1508.28 3
-22 24 8 15690.4 1778.12 4
-2 -22 8 14261.4 1827.12 1
-22 24 8 12334.5 1425.87 2
24 -2 8 14148 1570.93 3
-1 -23 -5 22406.3 1845.34 1
24 -1 -5 22419 1488.16 3
-23 24 -2 6350.33 637.088 4
24 -1 -2 5484.41 934.827 3
-1 -23 -2 3994.83 1004.21 1
-1 -23 1 20293.2 1545.69 1
-23 24 1 24325.4 1403.24 4
24 -1 1 25304 1642.03 3
-23 24 1 22547.5 1189.51 2
-23 24 4 6373.43 1095.34 4
-23 24 4 7348.73 968.09 2
24 -1 4 8169.92 1165.58 3
-1 -23 4 6509.98 1132.61 1
-23 24 7 16093.2 1680.62 4
-1 -23 7 13298 1639.54 1
-23 24 7 17029 1594.83 2
24 -1 7 17348.5 1651.85 3
0 -24 -6 2095.04 1155.81 1
24 0 -6 3394.45 877.65 3
0 -24 -3 36.0798 911.411 1
-24 24 -3 594.513 328.835 4
24 0 -3 513.619 737.214 3
0 -24 0 24837.4 1744.39 1
24 0 0 22798.3 1621.08 3
-24 24 0 27255.3 1298.1 2
0 -24 3 841.224 899.7 1
-24 24 3 2942.99 868.756 4
24 0 3 1232.56 830.131 3
-24 24 3 1515.98 657.826 2
-24 24 6 16672 1636.01 4
-24 24 6 14188.4 1388.71 2
0 -24 6 12337.2 1535.95 1
24 0 6 17343.1 1558.63 3
1 -25 -7 13774.3 1804.14 1
24 1 -7 18005.8 1450.33 3
1 -25 -4 8196.07 1371.43 1
24 1 -4 8855.77 1173.51 3
-25 24 -1 20336.9 1196.76 2
1 -25 -1 24287.1 1752.17 1
-25 24 -1 25492.3 1246.03 4
24 1 -1 26518.2 1755.76 3
-25 24 2 11374.7 1138.37 4
24 1 2 13227.2 1392.23 3
-25 24 2 9765 976.924 2
1 -25 2 11270 1370.28 1
-25 24 5 6739.65 1170.71 4
-25 24 5 6126.98 1010.86 2
24 1 5 5391.76 1137.54 3
1 -25 5 6177.65 1188.95 1
-25 24 8 14498.5 1713.95 4
1 -25 8 11411.4 1715.7 1
-25 24 8 10934.2 1501.2 2
24 1 8 12614.7 1483.75 3
2 -26 -8 3491.66 1426.27 1
2 -26 -5 8078.2 1452.72 1
24 2 -5 6453.48 1106.83 3
2 -26 -2 2640.58 1069.91 1
-26 24 -2 2119.2 520.285 4
24 2 -2 2245.16 897.519 3
2 -26 1 3518.32 1085.05 1
-26 24 1 5362.62 886.022 4
24 2 1 3650.45 993.257 3
-26 24 1 4423.31 799.506 2
2 -26 4 2726.54 1014.53 1
-26 24 4 4496.2 1006.06 4
-26 24 4 4514.7 877.523 2
24 2 4 5114.86 1084.01 3
-26 24 7 1644.98 1050.68 4
-26 24 7 575.234 909.519 2
24 2 7 2781.64 1081.4 3
2 -26 7 1846.83 1285.33 1
3 -27 -6 9256.88 1581.86 1
24 3 -6 11751.4 1324.66 3
3 -27 -3 2155.87 1103.5 1
24 3 -3 3738.71 1007.78 3
-27 24 0 14223.3 1159.34 2
3 -27 0 16600.6 1668.92 1
-27 24 0 17507.7 1215.26 4
3 -27 3 3368.8 1016.6 1
-27 24 3 2865.83 873.346 4
24 3 3 1429.17 911.18 3
-27 24 3 1390.3 734.124 2
-27 24 6 4790.64 1171.24 4
-27 24 6 4785.32 1029.33 2
24 3 6 5145.82 1165.27 3
3 -27 6 6432.49 1462.16 1
24 4 -7 5783.85 1236.02 3
4 -28 -7 3363.89 1464.93 1
4 -28 -4 6694.61 1410.21 1
24 4 -4 4105.45 1077.31 3
-28 24 -1 18546.4 1149.18 4
4 -28 -1 16151.8 1747.03 1
24 4 -1 19370.1 1646.48 3
4 -28 2 6612.27 1280.94 1
24 4 2 8452.41 1321.87 3
-28 24 2 5895.47 904.426 2
-28 24 5 15803.8 1602.84 4
-28 24 5 13758.5 1380.06 2
24 4 5 17191.4 1673.83 3
5 -29 -5 3374.42 1227.4 1
24 5 -5 2290.96 1016.07 3
5 -29 -2 2247.09 1057.25 1
-29 24 -2 5252.22 681.031 4
24 5 -2 4868.16 1150.76 3
-29 24 1 -309.262 640.151 2
-29 24 1 413.062 673.082 4
5 -29 1 -166.117 951.268 1
24 5 1 1222.91 880.852 3
5 -29 4 3934.05 1188.88 1
-29 24 4 3135.98 981.917 4
24 5 4 2423.6 1075.92 3
-29 24 4 3791.9 937.51 2
-29 24 7 1341.49 1072.38 4
-29 24 7 1694.1 986.637 2
24 5 7 -445.011 963.282 3
5 -29 7 3375.04 1380.44 1
24 6 -6 4720.24 1179.86 3
6 -30 -6 6217.02 1500.13 1
6 -30 -3 3673.76 1284.65 1
24 6 -3 6489.96 1261.65 3
-30 24 0 7319.05 1049.88 2
-30 24 0 7655.6 971.392 4
6 -30 0 6582.96 1370.55 1
24 6 0 8581.61 1359.32 3
6 -30 3 2110.64 1228.94 1
-30 24 3 4204.93 1052.03 4
24 6 3 3437.31 1084.41 3
-30 24 3 3575.76 911.496 2
6 -30 6 4097.67 1385.57 1
-30 24 6 3303.8 1117.1 4
-30 24 6 1803.27 989.603 2
24 6 6 2650.72 1109.27 3
7 -31 -4 11866.1 1785.44 1
24 7 -4 6936.34 1334.23 3
-31 24 -1 7550.43 881.172 4
7 -31 -1 4287.1 1324.73 1
24 7 -1 7633.44 1346.1 3
-31 24 2 2864.2 883.264 2
7 -31 2 5184.08 1369.1 1
-31 24 2 7580.12 1115.53 4
24 7 2 5823.09 1254.4 3
7 -31 5 7156.46 1466.86 1
-31 24 5 8958.65 1380.23 4
-31 24 5 7608.22 1253.65 2
24 7 5 7428.79 1357.49 3
24 8 -5 2648.87 1214.93 3
8 -32 -5 1105.99 1253.95 1
8 -32 -2 1748.3 1286.19 1
24 8 -2 2176.86 1135.27 3
-32 24 1 4207.73 1025.84 2
-32 24 1 7388.71 1038.84 4
8 -32 1 5492.44 1481.44 1
24 8 1 3658.55 1227.8 3
8 -32 4 2983.43 1370.24 1
-32 24 4 1896.1 932.101 4
24 8 4 2046.16 1097.58 3
-32 24 4 5079 1074.58 2
24 9 -3 9753.84 1546.83 3
9 -33 -3 11698.4 1844.25 1
-33 24 0 361.884 821.433 2
-33 24 0 3366.4 809.482 4
9 -33 0 1941.73 1238.95 1
24 9 0 4130.98 1295.11 3
-33 24 3 4251.02 1107.17 2
9 -33 3 5198.19 1483.18 1
-33 24 3 6675.87 1178.23 4
24 9 3 7983.22 1482.24 3
10 -34 -1 2768.19 1284.39 1
-34 24 -1 2437.85 783.948 4
24 10 -1 2571.23 1256.9 3
10 -34 2 9630.76 1743.23 1
-34 24 2 8894.06 1277.13 4
24 10 2 7498.19 1414.62 3
-34 24 2 7094.55 1211.16 2
11 -35 -2 -69.2436 1280.9 1
24 11 -2 865.199 1196.01 3
-35 24 1 1703.65 995.207 2
-35 24 1 1182.65 814.82 4
11 -35 1 168.159 1273.06 1
24 11 1 3950.33 1380.02 3
10 25 0 -1967.74 1457.6 3
25 -35 0 22.5006 1303.62 1
9 25 -1 1214.2 1460.93 3
25 -34 -1 4292.66 1483.69 1
9 25 2 5352.18 1545.76 3
-34 9 2 4493.36 1324.53 2
-34 9 2 3817.17 1129.74 4
25 -34 2 3326.99 1428.7 1
8 25 -2 2417.33 1468.68 3
25 -33 -2 -376.097 1147.6 1
25 -33 1 5610.37 1470.23 1
8 25 1 8417.82 1767.11 3
-33 8 1 7837.1 1251.95 4
8 25 4 5630.49 1620.14 3
-33 8 4 3835.91 1196.21 2
8 25 4 397.464 1077.46 2
-33 8 4 2434.16 1141.79 4
25 -33 4 2189.25 1331.91 1
7 25 -3 -547.495 1488.67 3
25 -32 -3 1330.01 1325.89 1
7 25 0 3555.63 1405.07 3
25 -32 0 1139.3 1139.69 1
7 25 3 3223.38 1418.51 3
-32 7 3 3541.19 1170.35 2
-32 7 3 2411.77 928.461 4
25 -32 3 3649.25 1362.9 1
6 25 -4 -1911.41 1471.33 3
25 -31 -4 -520.254 1326.78 1
6 25 -1 8155.31 1755.54 3
25 -31 -1 2867.14 1265.6 1
6 25 2 4774.09 1484.36 3
-31 6 2 3136.65 1184.8 2
-31 6 2 2542.07 954.636 4
25 -31 2 4119.86 1368.92 1
6 25 5 1834.79 1379.5 3
-31 6 5 625.638 1061.91 2
6 25 5 1846.52 1177.47 2
25 -31 5 984.505 1090.91 1
-31 6 5 1250.95 985.953 4
6 25 5 814.11 1096.03 4
5 25 -5 17528.8 2077.98 3
25 -30 -5 18292.7 2179.35 1
5 25 -2 4206.66 1558.95 3
25 -30 -2 2881.39 1266.86 1
25 -30 1 5405.53 1374.15 1
5 25 1 8428.35 1630.76 3
-30 5 1 5763.22 1077.5 4
5 25 4 1919.87 1362.32 3
-30 5 4 1514.31 881.239 2
5 25 4 -1944.52 1095.03 4
5 25 4 -184.266 1010.27 2
-30 5 4 -74.7354 861.668 4
25 -30 4 623.548 1062.92 1
25 -29 -6 1132.27 1287.91 1
4 25 -3 9798.55 1804.29 3
25 -29 -3 6306.56 1411.6 1
4 25 0 2134.6 1396.87 3
25 -29 0 2165.56 1200.53 1
4 25 3 7800.04 1615.73 3
-29 4 3 5242.12 1218.54 2
4 25 3 6260.57 1139.71 2
-29 4 3 4997.87 1048.19 4
25 -29 3 5561.15 1337.97 1
-29 4 6 1210.62 1007.4 2
4 25 6 4676 1449.06 3
4 25 6 4105.84 1246.93 4
4 25 6 1652.03 1061.21 2
25 -29 6 2225.38 1176.28 1
-29 4 6 1919.59 1077.08 4
25 -28 -7 2622.38 1526.12 1
25 -28 -4 1436.94 1305.03 1
3 25 -4 5367.81 1573.68 3
3 25 -1 2489.14 1417.52 3
25 -28 -1 5917.15 1343.09 1
3 25 2 11763.9 1698.7 3
-28 3 2 6807.71 1172.12 2
3 25 2 10190.9 1247.97 2
25 -28 2 10346.7 1538.46 1
-28 3 2 9165.74 1239.12 4
-28 3 5 735.077 1015.09 2
3 25 5 1208.45 1200.15 3
3 25 5 2678.06 1059.05 2
25 -28 5 655.513 1066.03 1
-28 3 5 1755.89 1018.51 4
25 -27 -5 11274.1 1840.4 1
25 -27 -5 16557.1 1325.19 3
2 25 -2 9307.54 1732.93 3
25 -27 -2 9888.56 1603.81 1
2 25 1 23231.5 2115.67 3
-27 2 1 17783 1497.66 4
25 -27 1 18971.5 1780.28 1
2 25 4 1889.74 1285.81 3
-27 2 4 1412.74 980.29 2
2 25 4 2712.53 994.495 4
2 25 4 3209.75 999.193 2
-27 2 4 4198.56 1049.69 4
25 -27 4 190.804 1033.21 1
25 -27 7 10337.4 1531.1 1
2 25 7 14470.5 1875.08 3
2 25 7 13902.8 1717.86 4
2 25 7 16130.7 1899.36 2
-27 2 7 15010.7 1708.9 4
25 -27 7 16805.8 1828.32 3
-27 2 7 16331.8 1735.91 2
25 -26 -6 93.5454 1445.4 1
1 25 -3 12364.4 1773.06 3
25 -26 -3 11347.5 1169.67 3
25 -26 -3 9692.45 1571.55 1
1 25 0 5988.87 1462.55 3
25 -26 0 5919.69 1266.16 1
-26 1 3 9227.63 1259.82 2
1 25 3 12687.3 1701.58 3
-26 1 3 7776.25 924.579 1
1 25 3 9910.18 1336.55 4
1 25 3 10027.5 1209.3 2
-26 1 3 7960.5 1232.53 4
25 -26 3 6085.85 1220.24 1
-26 1 6 3018.86 1026.01 2
1 25 6 4130.94 1350.05 3
1 25 6 3754.31 1200.52 4
1 25 6 2611.54 1055.68 2
25 -26 6 982.91 1069.48 1
-26 1 6 2715.48 1027.57 4
25 -26 6 4408.95 1193.05 3
25 -25 -4 13915.8 1743.51 1
25 -25 -4 17607.6 1283.86 3
0 25 -1 1793.64 1357.86 3
25 -25 -1 1545.05 949.143 1
0 25 2 16143.8 1783.2 3
-25 0 2 12631.9 1404.53 2
0 25 2 11213.6 1170.03 2
-25 0 2 12871.2 909.729 1
25 -25 2 11993.8 1453.52 1
-25 0 2 13923.8 1408.11 4
-25 0 5 -1308.76 865.482 2
0 25 5 2276.19 1180.28 3
0 25 5 -984.64 872.308 4
0 25 5 218.119 943.115 2
25 -25 5 68.7026 890.062 1
-25 0 5 1189.28 1009.94 4
25 -25 5 -1044.95 982.013 3
0 25 8 4333.94 1393.37 3
25 -25 8 2955.42 1138.61 1
0 25 8 4221.54 1304.81 4
0 25 8 5759.58 1428.39 2
-25 0 8 4373.35 1291.24 4
25 -25 8 5024.08 1352.13 3
-25 0 8 5342.16 1256.23 2
25 -24 -5 8099.82 944.545 3
25 -24 -5 4799.92 1333.08 1
-1 25 -2 10732.4 1687.77 3
25 -24 -2 7993.85 1366.29 1
25 -24 -2 11403.6 1160.73 3
-1 25 1 25697.5 2145.74 3
-1 25 1 22721.4 1358.03 2
-24 -1 1 25429.2 904.045 1
25 -24 1 26332 1872.86 1
-24 -1 4 7746.31 1240.28 2
-1 25 4 8694.73 1458.69 3
-24 -1 4 9032.58 1052.34 1
-1 25 4 7648.63 1200.87 4
-1 25 4 8750.75 1200.56 2
25 -24 4 7344.94 1267.7 1
-24 -1 4 8758.1 1242.34 4
25 -24 4 11138 1382.4 3
25 -24 7 18282.6 1705.35 1
-1 25 7 18369 1802.47 3
-1 25 7 17610.8 1781.66 4
-1 25 7 22733 1922.93 2
-24 -1 7 16749.6 1665.8 4
25 -24 7 20003.1 1788.02 3
-24 -1 7 19320.2 1768.92 2
25 -23 -6 2962.84 1303.75 1
25 -23 -6 2468.58 616.859 3
25 -23 -3 13197.6 1222.04 3
25 -23 -3 13407.9 1634.31 1
-2 25 0 7286.25 1504.21 3
-2 25 0 7503.76 819.438 2
25 -23 0 8737.42 1112.99 3
25 -23 0 6734.85 1218.59 1
-23 -2 3 16292.2 1500.77 2
-2 25 3 21156.3 1871.2 3
-2 25 3 18280.5 1534.49 4
-23 -2 3 20752.6 1252.24 1
-2 25 3 18193.8 1400.77 2
25 -23 3 20057.8 1676.26 1
-23 -2 3 18226.2 1503.02 4
25 -23 3 18596.7 1554.92 3
-23 -2 6 2643.54 915.259 2
-2 25 6 1807.57 1184.32 3
-2 25 6 3428.45 1133.91 4
-23 -2 6 2744.47 1042.38 1
-2 25 6 2587.95 1060.35 2
25 -23 6 918.007 940.764 1
-23 -2 6 2581.06 974.24 4
25 -23 6 2209.24 1030.92 3
25 -22 -4 8893.25 1444.66 1
25 -22 -4 12945.2 1079.94 3
-3 25 -1 4172.11 1359.21 3
-3 25 -1 2906.95 506.664 2
25 -22 -1 1976.33 756.974 3
25 -22 -1 5045.07 1120.41 1
-3 25 2 8063 1456.69 3
-22 -3 2 8636.12 1191.55 2
-3 25 2 6698.97 1138.32 4
-3 25 2 7651.43 921.466 2
-22 -3 2 8040.6 734.085 1
-22 -3 2 8626.8 1110.12 4
25 -22 2 8084.53 1075.09 3
25 -22 2 7723.46 1123.38 1
-22 -3 5 1282.72 873.971 2
-3 25 5 2258.12 1209.25 3
-3 25 5 424.303 900.602 4
-22 -3 5 1648.84 845.554 1
-3 25 5 1447.14 809.067 2
25 -22 5 1098.02 885.255 1
-22 -3 5 1510.78 849.295 4
25 -22 5 706.315 868.716 3
-3 25 8 8737.38 1354.96 3
-22 -3 8 10611 1563.88 1
-3 25 8 10887 1647.06 4
-3 25 8 9265.6 1507.23 2
-22 -3 8 8806.49 1422.91 4
25 -22 8 10224.8 1483.03 3
-22 -3 8 8396.35 1382.65 2
25 -22 8 8167.53 1367.55 1
25 -21 -5 17527.9 1894.8 1
25 -21 -5 16836.7 1123.15 3
-4 25 -2 1852.9 319.369 2
25 -21 -2 1749.93 773.183 3
25 -21 -2 1827.68 981.135 1
-4 25 1 41533.8 2395.6 3
-4 25 1 39029.7 1954.91 4
-4 25 1 36225.9 1474.65 2
-21 -4 1 39202.7 1165.21 1
25 -21 1 41629.3 1987.33 3
25 -21 1 36455.7 1981.2 1
-21 -4 4 8111.83 1117.64 2
-4 25 4 10317.1 1462.55 3
-4 25 4 7922.35 1216.61 4
-21 -4 4 10121.2 1090.56 1
-4 25 4 9488.22 1119.36 2
25 -21 4 9276.97 1201.77 1
-21 -4 4 11259.9 1268.85 4
25 -21 4 9542.92 1267.66 3
25 -21 7 19970.3 1669.96 1
-4 25 7 22092.6 1780.72 3
-21 -4 7 22681.1 1923.44 1
-4 25 7 22583.3 1939.8 4
-4 25 7 20248.2 1814.11 2
-21 -4 7 23195.2 1815.34 4
25 -21 7 24492.2 1890.43 3
-21 -4 7 22901 1795.81 2
25 -20 -6 4732.76 695.601 3
25 -20 -3 23835.1 1872.91 1
25 -20 -3 24718.7 1431.48 3
25 -20 0 14247.3 1382.39 1
-5 25 0 13344.9 1203.36 4
-5 25 0 14787.7 852.293 2
25 -20 0 13009.3 1188.54 3
-20 -5 0 10566.1 536.383 1
-20 -5 0 11560.1 508.853 1
-20 -5 3 28902 1761.9 2
-5 25 3 31047 2033.17 3
-5 25 3 32431.5 1875.46 4
-5 25 3 28198.6 1577.74 2
-20 -5 3 30707.8 1464.05 1
25 -20 3 30568 1773.74 1
-20 -5 3 29164.7 1751.39 4
25 -20 3 32627.5 1863.47 3
-20 -5 6 4859.21 1030.6 2
-5 25 6 3632.51 1060.81 3
-5 25 6 3673.01 1061.54 4
-20 -5 6 2382.55 893.375 1
-5 25 6 5810.58 1175.34 2
25 -20 6 5352.99 1043.86 1
-20 -5 6 3581.93 976.822 4
25 -20 6 4803.31 1119.23 3
-20 -5 9 20399.2 2069.83 1
-5 25 9 14950 1788.98 4
-5 25 9 18718.5 1954.15 2
-20 -5 9 16304 1672.88 4
25 -20 9 19083.6 1796.55 3
-20 -5 9 13301.7 1548.67 2
25 -20 9 15474 1622.61 1
25 -19 -4 11361.7 1526.01 1
25 -19 -4 12647.7 1038.3 3
-6 25 -1 198.733 616.701 4
25 -19 -1 967.173 865.007 1
-6 25 -1 40.8251 262.467 2
25 -19 -1 1761.38 732.629 3
-6 25 -1 81.6727 238.575 2
25 -19 2 3373.34 911.628 1
-6 25 2 4597.42 947.634 4
-6 25 2 3678.84 725.985 2
-19 -6 2 2964.38 590.46 1
25 -19 2 4460.74 893.683 3
-19 -6 5 -167.24 780.028 2
-6 25 5 704.638 938.534 4
-19 -6 5 1939.13 824.559 1
-6 25 5 1018.03 834.851 2
25 -19 5 481.921 735.57 1
-19 -6 5 757.34 767.753 4
25 -19 5 317.336 832.13 3
-19 -6 8 20196.4 1918.13 1
-6 25 8 15958.1 1738.79 4
-6 25 8 17684 1764.54 2
-19 -6 8 14898 1557.83 4
25 -19 8 17495.6 1631.21 3
-19 -6 8 15360.7 1506.12 2
25 -19 8 14811.9 1445.47 1
25 -18 -5 26658.2 1303.36 3
-7 25 -2 5478.28 806.148 4
25 -18 -2 4594.63 811.233 3
25 -18 -2 4584.09 1035.44 1
-7 25 1 12772.7 1182.85 4
-7 25 1 13049 881.819 2
25 -18 1 15010.8 1301.42 3
-18 -7 1 13277.3 805.731 1
25 -18 1 12387.3 1178.26 1
-18 -7 4 10213.7 1182.36 2
-7 25 4 6252.13 1082.24 4
-18 -7 4 6720.49 914.655 1
-7 25 4 7977.83 1000.03 2
25 -18 4 7184.48 1039.94 1
-18 -7 4 7277.2 1092.09 4
25 -18 4 10277.5 1234.48 3
25 -18 7 6671.93 1106.31 1
-18 -7 7 9570.2 1367.65 1
-7 25 7 7723.06 1371.6 4
-7 25 7 8361.97 1266.74 2
-18 -7 7 9231.35 1243.42 4
25 -18 7 7932.71 1203.81 3
-18 -7 7 8106.62 1216.02 2
25 -17 -6 15107.4 987.705 3
-8 25 -3 25848 1278.24 4
25 -17 -3 28498.9 1438.86 3
-8 25 0 6994.09 926.42 4
-8 25 0 7856.89 578.324 2
25 -17 0 5230.19 916.618 1
25 -17 0 8236.85 989.589 3
-17 -8 0 7249.83 573.173 1
-17 -8 3 32353 1794.42 2
-8 25 3 28276.2 1758.03 4
-8 25 3 33592.2 1545.28 2
-17 -8 3 35947.4 1571.5 1
25 -17 3 30874 1656.17 1
25 -17 3 31862 1797.38 3
-17 -8 6 2822.92 850.199 2
-8 25 6 2997.82 1052.34 4
-17 -8 6 3924.49 993.04 1
25 -17 6 3417.06 869.206 1
-8 25 6 4962.74 1060.73 2
-17 -8 6 3286.33 972.568 4
25 -17 6 5522.43 1126.95 3
-17 -8 9 16062.8 1907.38 1
-8 25 9 19069.4 2003.71 4
-8 25 9 19237.2 1931.21 2
-17 -8 9 16128.7 1637.01 4
25 -17 9 21177.2 1833.15 3
-17 -8 9 15609.7 1584.18 2
-9 25 -4 5599.23 686.158 4
25 -16 -4 5083.42 758.149 3
25 -16 -1 7584.7 1049.54 1
-9 25 -1 7949.93 893.86 4
-16 -9 -1 7000.37 505.89 1
-9 25 -1 5576.13 225.696 2
25 -16 -1 8082.2 960.806 3
-9 25 -1 6649.91 265.486 2
-9 25 2 16310.6 1361.62 4
-9 25 2 16793.9 1055.48 2
-16 -9 2 16881.8 1057.11 1
25 -16 2 13928.9 1136.91 1
-16 -9 5 2673.11 780.104 2
-9 25 5 2459.47 961.361 4
-9 25 5 3974.09 898.547 2
-16 -9 5 4336.79 913.245 1
25 -16 5 3196.62 787.391 1
-16 -9 5 2789.58 845.161 4
25 -16 5 1528.67 857.004 3
25 -16 8 1851.26 772.354 1
-9 25 8 3495.62 1148.67 4
-16 -9 8 4720.39 1259.29 1
-9 25 8 4870.44 1170.72 2
-16 -9 8 3555.6 1011.45 4
25 -16 8 4462.63 1108.46 3
-16 -9 8 2591.12 926.031 2
-10 25 -5 11452 762.349 4
25 -15 -5 11074.1 921.341 3
25 -15 -2 5488.82 1094.7 1
-10 25 -2 6181.13 747.245 4
-15 -10 -2 5478.47 424.869 1
25 -15 -2 7189.76 915.565 3
25 -15 1 3660.01 773.974 1
-10 25 1 5219.58 867.928 4
-10 25 1 5826.82 606.835 2
25 -15 1 5014.61 898.779 3
-15 -10 1 4883.18 622.797 1
-15 -10 4 16106.2 1330.08 2
-10 25 4 16155.4 1418.84 4
-10 25 4 16860.7 1237.43 2
-15 -10 4 17120.6 1330.98 1
25 -15 4 16000.7 1159.25 1
25 -15 4 15489.4 1365.98 3
25 -15 7 3827.78 856.792 1
-15 -10 7 2785.94 870.619 2
-10 25 7 3274.91 1064.84 4
-10 25 7 5240.12 1148.89 2
-15 -10 7 2889.6 1052.42 1
-15 -10 7 1640.34 832.276 4
25 -15 7 2412.73 920.75 3
25 -14 -6 11759 907.554 3
-11 25 -3 54727 1640.55 4
-14 -11 -3 50379.1 1203.58 1
25 -14 0 7503.29 934.998 1
-11 25 0 9007.2 969.888 4
-11 25 0 9401.82 520.824 2
-14 -11 0 8519.2 737.284 1
-11 25 3 32617.1 1780.42 4
-11 25 3 32779.4 1482.16 2
-14 -11 3 30043.6 1521.47 1
25 -14 3 30312.3 1725.72 3
25 -14 3 26989.4 1316.86 1
25 -14 6 8490.94 944.485 1
-11 25 6 11929.5 1404.91 4
-14 -11 6 7446.83 1149.47 1
-11 25 6 11185.6 1251.09 2
-14 -11 6 9388.89 1205.86 4
25 -14 6 10855.3 1285.32 3
-14 -11 6 10666.2 1151.62 2
25 -14 9 17575.9 1655.96 2
-11 25 9 19028.3 1954.86 4
-14 -11 9 20487 2060.44 1
-11 25 9 17948.4 1828.11 2
-14 -11 9 19310.9 1669.17 4
25 -14 9 19318 1749.41 3
-14 -11 9 19137.8 1543.37 2
-12 25 -4 1591.93 444.783 4
25 -13 -4 2208.57 637.209 3
-12 25 -1 6301.63 777.595 4
25 -13 -1 5916.82 910.497 1
-13 -12 -1 6427.64 680.873 1
25 -13 -1 7029.67 896.191 3
-12 25 2 8083.66 1039.12 4
25 -13 2 5633.13 731.696 1
-12 25 2 5716.03 682.133 2
-13 -12 2 7076.42 826.904 1
25 -13 2 6727.76 1019.19 3
-13 -12 5 1670.7 724.55 2
-12 25 5 897.57 831.983 4
-12 25 5 2551.39 816.974 2
-13 -12 5 1179.81 768.842 1
25 -13 5 2043.79 856.376 3
25 -13 5 142.409 552.605 1
-13 -12 8 3548.61 905.732 2
-12 25 8 2834.27 1191.35 4
-13 -12 8 3881.44 1184.44 1
-12 25 8 5501.47 1197.89 2
-13 -12 8 3417 981.289 4
25 -13 8 3388.87 1037.55 3
-13 25 -5 1747.43 306.065 4
25 -12 -5 1861.77 622.099 3
-13 25 -2 7863.16 758.95 4
25 -12 -2 6686.44 892.993 3
-12 -13 -2 7695.49 727.202 1
-13 25 1 2061.36 700.249 4
-13 25 1 2042.37 443.918 2
25 -12 1 2979.39 835.505 3
25 -12 1 1495.72 591.934 1
-12 -13 1 1175.56 549.186 1
-12 -13 4 3357.65 753.703 2
-13 25 4 7092.45 1064.94 4
25 -12 4 3616.77 571.377 1
-13 25 4 4785.11 799.73 2
-12 -13 4 5427.7 915.05 1
25 -12 4 6643.1 1067.72 3
-12 -13 7 2565.98 791.641 2
-13 25 7 3714.39 1062.77 4
-12 -13 7 2172.31 997.469 1
-13 25 7 3141.23 942.214 2
25 -12 7 2313.31 860.599 3
25 -11 -6 14972.2 1027.12 3
-14 25 -3 32946.1 1191.53 4
-11 -14 -3 31657.4 1343.73 1
25 -11 -3 34199.6 1567.24 3
-14 25 0 9799.59 960.377 4
25 -11 0 9141.91 1010.55 3
-14 25 0 9487.83 523.711 2
-11 -14 0 8034.91 838.963 1
-14 25 3 42422.7 1989.15 4
25 -11 3 37512.8 1260.72 1
-14 25 3 44453.2 1655.41 2
-11 -14 3 41356.1 1839.31 1
25 -11 3 45314.8 2083.21 3
-11 -14 6 6137.88 937.279 2
-14 25 6 8169.74 1238.56 4
-11 -14 6 8204.06 1222.25 1
-14 25 6 8554.83 1172.98 2
25 -11 6 8679.47 1229.01 3
25 -11 9 25562.8 1997.81 2
-14 25 9 32471.5 2363.09 4
-11 -14 9 30961.8 2319.72 1
-14 25 9 32042.6 2257.92 2
25 -11 9 29603 2046.29 3
-11 -14 9 28124.8 1737.35 2
25 -10 -7 3629.99 638.226 3
-15 25 -4 4104.69 422.252 4
25 -10 -4 4578.47 733.354 3
-10 -15 -4 4393.52 729.508 1
-15 25 -1 8606.52 808.649 4
-10 -15 -1 6363.77 847.384 1
25 -10 -1 6307.81 886.289 3
-15 25 2 8075.61 971.73 4
-15 25 2 4939.4 634.219 2
25 -10 2 7225.07 1021.39 3
-10 -15 2 5655.85 833.077 1
25 -10 2 5703.31 602.71 1
-10 -15 5 9205.23 992.464 2
-15 25 5 10212 1269.94 4
-10 -15 5 7786.19 1155.65 1
-15 25 5 6896.7 971.423 2
25 -10 5 8097.23 1158.06 3
-10 -15 8 2095.34 744.382 2
-15 25 8 4639.72 1183.45 4
-10 -15 8 4655.37 1308.21 1
-15 25 8 4996.93 1151.95 2
25 -10 8 3788.15 1018.61 3
-9 -16 -5 2742.28 767.121 1
25 -9 -5 1797.9 597.212 3
-16 25 -2 26871.4 1170.98 4
-9 -16 -2 26500.5 1393.13 1
25 -9 -2 27995.1 1534.97 3
-16 25 1 11211.1 1051.89 4
-16 25 1 11310.6 720.361 2
25 -9 1 13840.1 1262.83 3
-9 -16 1 11038.2 1003.95 1
-16 25 4 9192.05 1124.71 4
-16 25 4 7850.39 937.103 2
-9 -16 4 6563.56 1014.91 1
25 -9 4 9161.94 1141.82 3
-9 -16 7 2142.78 728.901 2
-16 25 7 2387.88 1068.01 4
-9 -16 7 2812.72 1054.15 1
-16 25 7 2978.88 938.861 2
25 -9 7 2660.89 941.708 3
25 -8 -6 12106.1 1016.41 3
-17 25 -3 17752 843.25 4
25 -8 -3 18072.6 1268.11 3
-8 -17 -3 19175.2 1320.51 1
-8 -17 0 7521.53 912.411 1
-17 25 0 8893.81 887.118 4
25 -8 0 8503.8 1037.59 3
-17 25 0 9027.32 583.781 2
-17 25 3 24052.8 1607.07 4
-17 25 3 26109.8 1343.57 2
-8 -17 3 25415.7 1531.78 1
25 -8 3 28596.5 1753.87 3
-8 -17 6 5468.82 822.675 2
-17 25 6 4233.73 1094.23 4
-17 25 6 5750.55 996.023 2
-8 -17 6 4128.69 1044.37 1
25 -8 6 6093.22 1158.49 3
-17 25 9 27241 2206.04 4
-8 -17 9 25421 2212.57 1
-17 25 9 24907.2 2031.59 2
25 -8 9 26547 2027.22 3
25 -7 -7 6708.84 847.42 3
-7 -18 -4 1335.8 763.785 1
-18 25 -4 406.684 185.074 4
25 -7 -4 145.251 614.184 3
-18 25 -1 10700.4 524.037 2
-18 25 -1 15073.5 986.446 4
-7 -18 -1 12153.3 1121.6 1
25 -7 -1 16193.3 1255.43 3
-18 25 2 1532.95 737.873 4
-18 25 2 1403.88 549.669 2
25 -7 2 2520.72 845.892 3
-7 -18 2 200.391 685.256 1
-18 25 5 31482.8 1954.97 4
-18 25 5 26474.8 1590.84 2
-7 -18 5 30492.4 1939.83 1
25 -7 5 35462.8 2046.43 3
-7 -18 8 3588.87 796.613 2
-18 25 8 3502.72 1096.42 4
-7 -18 8 5508.47 1253.23 1
-18 25 8 3532.69 1086.87 2
25 -7 8 4952.54 1125.46 3
-6 -19 -5 2438.79 868.133 1
25 -6 -5 2660.83 730.567 3
-19 25 -2 10403.5 751.551 4
-6 -19 -2 8985.47 1040.31 1
25 -6 -2 11189.4 1102.41 3
-6 -19 1 2112.91 823.011 1
-19 25 1 2041.53 652.75 4
25 -6 1 2374.49 806.471 3
-19 25 1 1851.62 465.172 2
-19 25 4 15941.8 1395.32 4
-19 25 4 13678.9 1146.51 2
-6 -19 4 12487.7 1325.73 1
25 -6 4 13860.7 1415.46 3
-6 -19 7 7022.85 888.946 2
-19 25 7 9658.3 1433.14 4
-6 -19 7 7854.2 1412.17 1
-19 25 7 7004.16 1202.74 2
25 -6 7 6431.57 1219.32 3
-5 -20 -6 8257.03 1225.15 1
25 -5 -6 6581.41 929.79 3
-20 25 -3 24678.2 888.621 4
25 -5 -3 24701.1 1506.71 3
-5 -20 0 6768.96 977.204 1
-20 25 0 6581.92 783.232 4
25 -5 0 8522.98 1070.84 3
-20 25 0 7072.13 635.018 2
-20 25 3 23609.8 1548.79 4
-20 25 3 21340.1 1225.5 2
25 -5 3 20634.7 1560.11 3
-5 -20 3 19654.8 1495.11 1
-20 25 6 9269.3 1336.79 4
-5 -20 6 8627.13 1337.02 1
-20 25 6 6312.56 1052.41 2
25 -5 6 6486.4 1189.99 3
-20 25 9 9346.55 1499.6 4
-5 -20 9 8489.66 1592.07 1
-20 25 9 7752.72 1427.88 2
25 -5 9 9818.01 1460.96 3
-4 -21 -7 14337.4 1579.49 1
25 -4 -7 14121.9 1189.74 3
-4 -21 -4 9295.21 1242.77 1
25 -4 -4 11723.9 1130.81 3
-21 25 -1 31582.6 1077.62 2
-21 25 -1 37024.4 1432.23 4
-4 -21 -1 34428 1850.87 1
25 -4 -1 36464.8 1840.13 3
-4 -21 2 -653.451 753.751 1
-21 25 2 -833.59 668.542 4
25 -4 2 913.78 838.154 3
-21 25 2 381.271 504.849 2
-21 25 5 27652.1 1888.34 4
-21 25 5 23012.5 1503.53 2
-4 -21 5 22525.8 1750.95 1
25 -4 5 24290.7 1729.9 3
-21 25 8 5260.67 1279.88 4
-21 25 8 4087.89 1092.14 2
-4 -21 8 3362.67 1211.16 1
25 -4 8 3726.01 1108.42 3
-3 -22 -5 3025.84 1006.41 1
25 -3 -5 2649.1 799.398 3
-22 25 -2 7912.22 671.812 4
-3 -22 -2 8057 1104.4 1
25 -3 -2 7668.44 1034.35 3
-3 -22 1 11553.3 1281.49 1
-22 25 1 14433.5 1136.74 4
25 -3 1 14536.6 1415.66 3
-22 25 1 14275.6 961.219 2
-22 25 4 15004.4 1395.63 4
-22 25 4 14114.3 1174.5 2
-3 -22 4 13669.4 1439.22 1
25 -3 4 16738.4 1500.62 3
-22 25 7 4782.82 1210.6 4
-22 25 7 6707.22 1170.14 2
-3 -22 7 3668.82 1228.9 1
25 -3 7 3210.81 1013.73 3
-2 -23 -6 669.682 1037.01 1
25 -2 -6 1211 712.377 3
-23 25 -3 21350.9 822.32 4
-2 -23 -3 18995.1 1555.96 1
-23 25 0 2760.58 570.594 2
-23 25 0 3415.55 683.492 4
-2 -23 0 4344.3 1076.43 1
25 -2 0 2916.81 862.989 3
-23 25 3 14238.3 1283.02 4
-23 25 3 13074.1 1080.44 2
25 -2 3 15024 1467.86 3
-2 -23 3 12358 1335.18 1
-23 25 6 9430.75 1361.27 4
-23 25 6 5497.2 1042.84 2
25 -2 6 9046.69 1295.03 3
-2 -23 6 6289.94 1261.02 1
25 -1 -7 9695.7 1161.02 3
-1 -24 -7 9385 1599.76 1
-1 -24 -4 14283 1506.69 1
25 -1 -4 15734.8 1338.13 3
-24 25 -1 22674.5 1134.18 2
-24 25 -1 26169.5 1259.9 4
-1 -24 -1 22195.8 1704.21 1
25 -1 -1 25429.6 1641.51 3
-1 -24 2 4875.81 1107.74 1
-24 25 2 7189.28 979.255 4
25 -1 2 6166.61 1124.25 3
-24 25 2 5388.14 784.395 2
-24 25 5 13915 1442.86 4
-24 25 5 14417.4 1329.01 2
-1 -24 5 10584.9 1464.86 1
25 -1 5 11251.5 1389.41 3
-24 25 8 4057.21 1272.67 4
-24 25 8 3388.56 1056.37 2
-1 -24 8 4710.32 1385.58 1
25 -1 8 4692.39 1208.15 3
0 -25 -5 89.4034 990.781 1
25 0 -5 328.161 793.127 3
-25 25 -2 12464.7 831.442 4
0 -25 -2 10150.9 1320.95 1
25 0 -2 13412.1 1303.19 3
0 -25 1 3754.4 1025.78 1
-25 25 1 2153.42 719.515 4
25 0 1 2326.76 926.599 3
-25 25 1 1207.23 654.296 2
-25 25 4 16434.2 1478.94 4
-25 25 4 14836.1 1244.85 2
25 0 4 13255.7 1458.47 3
0 -25 4 13446.2 1537.12 1
-25 25 7 2662.08 1084.11 4
-25 25 7 1580.22 940.844 2
0 -25 7 2762.6 1186.9 1
25 0 7 971.476 958.642 3
1 -26 -6 1485.8 1258.77 1
25 1 -6 1061.79 820.294 3
1 -26 -3 5315.98 1222.71 1
25 1 -3 7512.47 1154.95 3
1 -26 0 3207.85 1099.62 1
25 1 0 5558.08 1112.3 3
-26 25 0 4586.94 746.604 2
-26 25 3 11042.6 1241.16 4
-26 25 3 8967.63 1075.23 2
25 1 3 9979.11 1298.61 3
1 -26 3 10281.5 1445.7 1
-26 25 6 4796.44 1177.78 4
-26 25 6 5646.06 1063.95 2
25 1 6 2165.3 992.183 3
1 -26 6 3455.31 1163.12 1
2 -27 -7 12619.8 1896.7 1
25 2 -7 10855.7 1332.43 3
2 -27 -4 8363.62 1452.38 1
25 2 -4 10850.8 1326.72 3
-27 25 -1 18019.1 1118.45 4
2 -27 -1 15359.3 1615.48 1
25 2 -1 18264.3 1541.47 3
2 -27 2 16547.2 1692.33 1
-27 25 2 15891.9 1351.69 4
25 2 2 18267.7 1625.63 3
-27 25 2 15868.4 1219.14 2
-27 25 5 22225.6 1790.26 4
-27 25 5 18695.8 1546.44 2
25 2 5 20488.7 1785.79 3
2 -27 5 19992.5 1916.48 1
3 -28 -5 1227.86 1167.37 1
25 3 -5 445.385 893.462 3
3 -28 -2 6493.98 1290.51 1
-28 25 -2 6547.14 731.378 4
25 3 -2 6474.26 1185.34 3
-28 25 1 2377.97 748.37 2
-28 25 1 2579.79 739.735 4
3 -28 1 3346.99 1156.26 1
25 3 1 1375.53 946.989 3
3 -28 4 5645.95 1356.12 1
-28 25 4 4974.84 1074.15 4
25 3 4 6999.48 1276.39 3
-28 25 4 4196.03 956.681 2
-28 25 7 2480.9 1107.52 4
-28 25 7 1349.97 984.717 2
25 3 7 2352.7 1109.73 3
3 -28 7 324.782 1185.22 1
4 -29 -6 -2598.91 1420.19 1
25 4 -6 2310.99 1002.29 3
25 4 -3 9912.25 1349.95 3
4 -29 -3 7995.05 1445.2 1
-29 25 0 1240.45 709.061 2
-29 25 0 2311.57 707.133 4
4 -29 0 1434.12 1040.63 1
25 4 0 1949.71 1047.87 3
-29 25 3 8728.96 1174.72 4
-29 25 3 7620.31 1065.89 2
25 4 3 7529.26 1247.06 3
4 -29 3 7567.11 1444.15 1
-29 25 6 1694.2 1044.58 4
-29 25 6 588.861 852.784 2
25 4 6 49.7104 969.852 3
4 -29 6 1123.68 1160.25 1
5 -30 -4 2130.3 1203.67 1
25 5 -4 2423.91 1037.18 3
-30 25 -1 7930.79 879.956 4
5 -30 -1 6424.27 1435.03 1
25 5 -1 4694.2 1172.47 3
5 -30 2 6056.23 1419.32 1
-30 25 2 3582.53 942.101 4
25 5 2 4097.08 1185.69 3
-30 25 2 4290.84 928.479 2
-30 25 5 16008 1666.06 4
-30 25 5 11206.5 1336.02 2
5 -30 5 15750.9 1874.16 1
6 -31 -5 1531.69 1340.3 1
25 6 -5 2546.71 1082.78 3
6 -31 -2 575.203 1074.07 1
25 6 -2 2717.71 1120.05 3
-31 25 1 5445.17 985.383 2
-31 25 1 5506.03 935.737 4
6 -31 1 4883.67 1359 1
25 6 1 6682.89 1255.63 3
6 -31 4 1417.23 1145.59 1
-31 25 4 1467.01 916.174 4
25 6 4 -219.632 1014.89 3
-31 25 4 479.398 764.743 2
7 -32 -3 4191.87 1374.35 1
25 7 -3 6322.86 1356.19 3
-32 25 0 4896.02 980.423 2
-32 25 0 5485.66 913.758 4
7 -32 0 6092.05 1399.58 1
25 7 0 4173.19 1180.66 3
7 -32 3 2048.44 1159.74 1
-32 25 3 2450.77 952.904 4
25 7 3 3673.01 1224.39 3
-32 25 3 2337.97 945.544 2
8 -33 -4 1802.17 1376.64 1
25 8 -4 850.947 1113.38 3
-33 25 -1 7359.61 974.499 4
8 -33 -1 7716.24 1480.35 1
25 8 -1 6611.68 1408.98 3
-33 25 2 1561.47 904.721 2
-33 25 2 1817.97 879.542 4
8 -33 2 -171.314 1192.73 1
25 8 2 1063.77 1105.4 3
9 -34 -2 -296.249 1268.54 1
25 9 -2 279.323 1090.79 3
-34 25 1 2658.74 978.27 2
-34 25 1 878.081 761.576 4
9 -34 1 2910.37 1268.64 1
25 9 1 2413.36 1117.33 3
-35 25 0 1859.72 822.229 4
10 -35 0 649.606 1265.15 1
25 10 0 2880.73 1259.77 3
9 26 1 2121.94 1560.15 3
26 -35 1 -1631.92 1448.68 1
-35 9 1 1756.52 1055.72 4
8 26 -3 -260.81 1520.78 3
26 -34 -3 230.361 1395.67 1
8 26 0 851.173 1484.34 3
26 -34 0 1425.28 1353.11 1
8 26 3 -404.378 1343.71 3
-34 8 3 1415.68 1199.1 2
8 26 3 943.652 1071.29 2
-34 8 3 908.681 1043 4
26 -34 3 801.523 1244.6 1
7 26 -4 2570.1 1528.31 3
26 -33 -4 3055.58 1502.5 1
7 26 -1 2033.22 1504.44 3
26 -33 -1 3328.95 1420.94 1
7 26 2 117.661 1346.73 3
-33 7 2 1274.85 1003.38 2
-33 7 2 2455.7 1054.52 4
26 -33 2 1871.99 1277.27 1
6 26 -2 4086.17 1558.2 3
26 -32 -2 5515.45 1614.64 1
6 26 1 2096.65 1427.05 3
26 -32 1 2935.43 1318.67 1
-32 6 1 4535.23 1115.63 4
-32 6 4 6730.47 1411.06 2
6 26 4 6409.13 1691.64 3
6 26 4 7496.01 1502.23 4
6 26 4 9451.28 1537.09 2
-32 6 4 9301.18 1455.91 4
26 -32 4 8235.58 1632.43 1
5 26 -3 5921.13 1596.98 3
26 -31 -3 6730.24 1698.33 1
5 26 0 3253.03 1432.44 3
26 -31 0 611.693 1124.02 1
5 26 3 952.201 1381.59 3
-31 5 3 1178.49 1063.4 2
5 26 3 4206.98 1122.13 2
-31 5 3 3290.3 1013.39 4
26 -31 3 2503.88 1236.93 1
26 -30 -4 1899.19 1369.26 1
4 26 -4 960.883 1389.26 3
4 26 -1 8067.6 1720.11 3
26 -30 -1 3298.05 1333.94 1
4 26 2 547.414 1247.44 3
-30 4 2 58.731 967.343 2
4 26 2 149.315 860.163 2
-30 4 2 2495.72 1005.36 4
26 -30 2 2084.57 1223.02 1
-30 4 5 1267.62 1048.74 2
4 26 5 2675.53 1380.28 3
4 26 5 1771.84 1130.65 4
4 26 5 3059.68 1128.13 2
26 -30 5 3392.47 1254.96 1
-30 4 5 55.4331 895.852 4
26 -29 -5 1418.12 1474.23 1
26 -29 -5 1357.19 772.549 3
3 26 -2 19467.1 2140.95 3
26 -29 -2 17103.9 1915.36 1
3 26 1 -766.044 1323.44 3
26 -29 1 -1290.8 1049.69 1
-29 3 1 715.339 917.426 4
-29 3 4 12269.4 1519.55 2
3 26 4 13151.7 1876.26 3
3 26 4 15203.4 1690.99 4
3 26 4 11662.2 1496.06 2
26 -29 4 13022.2 1667.36 1
-29 3 4 15521.5 1648.38 4
26 -28 -6 2462.1 1414.87 1
2 26 -3 10752.5 1798.25 3
26 -28 -3 7828.6 1520.76 1
2 26 0 4859.37 1417.32 3
26 -28 0 3205.81 1157.44 1
-28 2 3 10265.6 1463.47 2
2 26 3 12583.3 1778.04 3
2 26 3 12920.8 1525.7 4
-28 2 3 9463.92 997.485 1
2 26 3 11405.3 1324.65 2
-28 2 3 11390.7 1387.22 4
26 -28 3 7614.37 1388.33 1
-28 2 6 1564.07 978.378 2
2 26 6 3978.35 1430.04 3
2 26 6 2934.87 1231.86 4
2 26 6 1049.33 1134.39 2
26 -28 6 3945.13 1233.92 1
-28 2 6 2599.69 1044.49 4
26 -27 -4 -588.896 1186.51 1
26 -27 -4 -356.142 701.194 3
1 26 -1 3945.4 1492.79 3
26 -27 -1 5827.91 1307.28 1
1 26 2 4742.98 1454.99 3
-27 1 2 4076.76 1159.95 2
1 26 2 5058.52 999.602 2
-27 1 2 4514.3 1018.34 4
26 -27 2 4297.99 1157.56 1
-27 1 5 4908.73 1189.47 2
1 26 5 8772.08 1595.64 3
1 26 5 9099.26 1427.18 4
1 26 5 7649.02 1349.16 2
26 -27 5 4118.26 1211.73 1
-27 1 5 4934.96 1184.3 4
26 -26 -5 2092.49 1323.35 1
26 -26 -5 1108.13 710.344 3
0 26 -2 27596.8 2292.68 3
26 -26 -2 27871.5 2213.78 1
26 -26 -2 28459.5 1726.64 3
0 26 1 -583.106 1268.54 3
26 -26 1 -679.991 1018.89 1
0 26 1 982.589 694.92 2
-26 0 4 26186.1 1914.48 2
0 26 4 28511.6 2241.61 3
0 26 4 24933.1 1897.56 4
-26 0 4 27559.9 1612.43 1
0 26 4 30604.7 1936.98 2
26 -26 4 26534.1 1983.13 1
-26 0 4 26452.3 1846.14 4
-26 0 7 -222.165 999.542 2
0 26 7 -1326.88 1215.41 3
0 26 7 -202.97 1026.79 4
26 -26 7 -1367.9 1136.62 1
0 26 7 2003.06 1157.78 2
-26 0 7 1300.79 1058.04 4
26 -26 7 -130.86 1093.17 3
26 -25 -6 2740.89 1429.61 1
26 -25 -3 10021.6 1124.84 3
26 -25 -3 9225.78 1541.79 1
-1 26 0 9962.51 1618.24 3
-1 26 0 6516.26 861.929 2
26 -25 0 7805.61 1115.89 3
26 -25 0 6941.47 1337.75 1
-25 -1 3 5256.52 1096.08 2
-1 26 3 6828.77 1460.58 3
-1 26 3 6927.62 1213.39 4
-1 26 3 7449.89 1090.84 2
-25 -1 3 8836.28 948.776 1
-25 -1 3 10113.7 1286.8 4
26 -25 3 7685.99 1243.06 3
26 -25 3 7053.21 1262.2 1
-25 -1 6 1290.59 1024.78 2
-1 26 6 3035.12 1316.98 3
-1 26 6 2297.03 1062.58 4
-25 -1 6 1796.07 967.941 1
-1 26 6 3521.37 1144.35 2
26 -25 6 2699.55 1121.99 1
-25 -1 6 1800.85 937.683 4
26 -25 6 3932 1173.16 3
26 -24 -4 4894.66 1319.55 1
26 -24 -4 4448.03 861.055 3
-2 26 -1 5279.79 1410.19 3
-2 26 -1 4128.65 614.291 2
26 -24 -1 5077.6 947.531 3
26 -24 -1 5726.11 1215.72 1
26 -24 2 4376.81 1115.19 1
-2 26 2 4277.17 1408.63 3
-24 -2 2 2526.83 916.355 2
-2 26 2 3576.93 1010.26 4
-2 26 2 2514.26 750.936 2
-24 -2 2 4631.88 614.37 1
-24 -2 2 5002.29 1018.19 4
26 -24 2 2843.16 960.224 3
-2 26 5 5380.62 1338.21 3
-24 -2 5 8215.06 1140.03 1
-2 26 5 6800.94 1222.64 4
26 -24 5 7944.04 1279.14 1
-2 26 5 8271.12 1251.47 2
-24 -2 5 9546.51 1268.94 4
26 -24 5 7677.61 1261.88 3
-24 -2 5 7930.23 1207.3 2
26 -24 8 4873.29 1238.88 1
-2 26 8 4131.04 1319.52 4
-24 -2 8 4002.72 1341.79 1
-2 26 8 2520.95 1247.5 2
-24 -2 8 2893.6 1137.41 4
26 -24 8 4175.07 1280.59 3
-24 -2 8 3954.79 1195.47 2
26 -23 -5 2689.66 1279.75 1
26 -23 -5 2277.26 673.932 3
-3 26 -2 24244.7 898.855 2
26 -23 -2 26761.5 2004.3 1
-3 26 1 5404.43 1411.87 3
-3 26 1 4225.84 998.304 4
-3 26 1 4727.58 789.597 2
26 -23 1 4597.06 1107.17 1
-23 -3 1 4405.32 474.497 1
26 -23 1 5841.25 1072.96 3
-23 -3 4 21546.2 1729.25 2
-3 26 4 22684.2 1956.46 3
-3 26 4 21192 1712.73 4
-23 -3 4 26211.8 1554.8 1
-3 26 4 24605.1 1663.89 2
26 -23 4 22539.2 1761.31 1
-23 -3 4 20861.2 1657.52 4
26 -23 4 23318 1756.9 3
-23 -3 7 779.593 966.382 2
-3 26 7 1819.69 1142.2 3
-3 26 7 541.585 980.688 4
-23 -3 7 1689.22 1120.36 1
26 -23 7 1158.56 941.941 1
-3 26 7 2935.15 1158.05 2
-23 -3 7 430.453 899.015 4
26 -23 7 1267.45 932.749 3
26 -22 -6 7319.46 818.337 3
26 -22 -3 5849.66 905.714 3
26 -22 -3 3988.98 1178.02 1
26 -22 0 18520.2 1613.42 1
-4 26 0 23062 1966.1 3
-4 26 0 20669.3 1498.71 4
-4 26 0 18980.2 1016.25 2
26 -22 0 20728.3 1484.14 3
-22 -4 3 3203.93 1015.51 2
-4 26 3 4649.32 1349.63 3
-4 26 3 5143.06 1064.09 4
-4 26 3 4313.31 881.5 2
-22 -4 3 3974.86 729.07 1
-22 -4 3 3927.41 944.319 4
26 -22 3 4966.58 1059.41 3
26 -22 3 2561.72 935.287 1
-4 26 6 3856.88 1226.55 3
26 -22 6 7798.95 1252.99 1
-4 26 6 6966.03 1289.97 4
-4 26 6 7468.96 1293.8 2
-22 -4 6 6515.76 1124.38 1
-22 -4 6 5569.2 1107.02 4
26 -22 6 7066.61 1239.33 3
-22 -4 6 6176.28 1125.85 2
26 -21 -4 3231.61 715.324 3
26 -21 -4 1414.35 1098.23 1
26 -21 -1 3447.05 975.661 1
-5 26 -1 2610.11 420.301 2
26 -21 -1 3863.24 864.566 3
26 -21 2 1702.83 885.909 1
-5 26 2 1875.92 1171.18 3
-5 26 2 2258.11 914.622 4
-5 26 2 1859.86 682.473 2
-21 -5 2 1715.76 546.689 1
26 -21 2 2963.64 874.921 3
-5 26 5 16348.8 1701.62 3
-5 26 5 16606.4 1630.17 4
-21 -5 5 14038.6 1344.8 1
26 -21 5 13763.2 1370.69 1
-5 26 5 15696 1443.12 2
-21 -5 5 16662.5 1497.11 4
26 -21 5 17352.6 1564.09 3
-21 -5 5 13203 1391.83 2
26 -21 8 6436.12 1215.23 1
-5 26 8 7547.7 1461.17 4
-21 -5 8 7131.33 1385.23 1
-5 26 8 6728.84 1389.89 2
-21 -5 8 5890.19 1284.25 4
26 -21 8 6863.26 1317.1 3
-21 -5 8 6617.7 1276.21 2
26 -20 -5 8576.49 888.101 3
26 -20 -2 22780.1 1462.15 3
26 -20 -2 21383.4 1775.75 1
-6 26 1 15876.7 1335.73 4
-6 26 1 12909.4 922.082 2
26 -20 1 14308.8 1334.61 3
-20 -6 1 13521.3 769.468 1
26 -20 1 12171.3 1285.68 1
-20 -6 4 15951.8 1461.41 2
-6 26 4 17617.4 1584.41 4
-20 -6 4 19338.4 1385.37 1
-6 26 4 15935.6 1342.09 2
26 -20 4 17977.4 1489.57 1
-20 -6 4 19525.8 1578.45 4
26 -20 4 16351.1 1474.75 3
-20 -6 7 8413.01 1354.22 1
-6 26 7 6976.1 1309.87 4
26 -20 7 4929.7 1038.1 1
-6 26 7 8993.39 1382.64 2
-20 -6 7 6709.1 1199.25 4
26 -20 7 8957.46 1393.25 3
-20 -6 7 6852.16 1176.43 2
26 -19 -6 42945.9 1620.98 3
-7 26 -3 2281.57 653.854 4
26 -19 -3 1441.39 933.764 1
26 -19 -3 2591.46 697.769 3
-7 26 0 42096.7 1872.92 4
-7 26 0 42942.9 1252.76 2
26 -19 0 43166.1 2087.02 1
26 -19 0 43351.9 1947.74 3
-19 -7 0 39558.9 1039.73 1
-19 -7 3 12511.1 1334.82 2
-7 26 3 17517.9 1500.99 4
-7 26 3 14162 1154.27 2
-19 -7 3 15714.9 1134.84 1
26 -19 3 14526.4 1380.91 3
26 -19 3 14967 1306.51 1
26 -19 6 21304.1 1557.94 1
-7 26 6 23907 1892.55 4
-19 -7 6 23525.1 1736.76 1
-7 26 6 23145 1709.94 2
-19 -7 6 20849.8 1661.74 4
26 -19 6 20795.3 1738.16 3
-19 -7 6 19885.4 1571.5 2
26 -19 9 3512.25 1111.75 3
-8 26 -4 1709.09 564.062 4
26 -18 -4 2428.76 1053.1 1
26 -18 -4 1801.39 651.674 3
-18 -8 -1 1855.01 221.922 1
-8 26 -1 3128.42 748.419 4
-8 26 -1 3057.25 250.363 2
26 -18 -1 3922.49 828.649 3
-18 -8 -1 2690.32 234.838 1
26 -18 -1 3088.26 921.653 1
-8 26 2 6853.75 1014.05 4
-8 26 2 7087.86 797.787 2
-18 -8 2 6899.07 754.525 1
26 -18 2 6491.84 1030.84 3
26 -18 2 5859.56 897.291 1
-18 -8 5 7709.82 1085.56 2
-8 26 5 6989.58 1202.01 4
-18 -8 5 7186.03 1026.31 1
26 -18 5 8035.25 1074.09 1
-8 26 5 9838.21 1172.31 2
-18 -8 5 7927.27 1176.84 4
26 -18 5 7989.87 1185.79 3
-18 -8 8 2440.36 957.219 2
26 -18 8 1260.87 911.263 2
26 -18 8 1486.37 856.487 1
-8 26 8 1058.32 1026.85 4
-18 -8 8 2309.27 1056.31 1
-8 26 8 3220.4 1096.59 2
-18 -8 8 2156.09 949.564 4
26 -18 8 3686.48 1120.85 3
-9 26 -5 14077.2 921.549 4
26 -17 -5 14488.6 1075.04 3
-9 26 -2 11776.8 1013.81 4
26 -17 -2 13164.6 1372.42 1
26 -17 -2 14697.9 1178.74 3
-9 26 1 2834.25 800.902 4
-9 26 1 2450.03 519.827 2
26 -17 1 2626.69 816.237 3
-17 -9 1 2812.38 555.926 1
26 -17 1 1798.19 727.307 1
-17 -9 4 1811.57 808.799 2
-9 26 4 1580.76 895.893 4
-9 26 4 1959.34 712.274 2
-17 -9 4 2381.39 789.468 1
26 -17 4 2684.48 909.296 3
26 -17 4 1589.48 740.806 1
26 -17 7 7628.62 1041.91 1
-9 26 7 11883.7 1549.72 4
-17 -9 7 8440.07 1356.14 1
-9 26 7 10720.5 1372.79 2
-17 -9 7 9128.55 1262.82 4
26 -17 7 7290.82 1237.44 3
-17 -9 7 6835 1083.85 2
26 -16 -6 33142 1382.42 3
-10 26 -3 15358.6 1014.99 4
26 -16 -3 16320.8 1189.76 3
26 -16 -3 12943.9 1418.95 1
-10 26 0 48810 1908.97 4
-10 26 0 45082.2 1096.36 2
26 -16 0 48076 2044.19 3
26 -16 0 43967 1962.71 1
-16 -10 0 50947 1430.06 1
26 -16 3 764.642 647.028 1
-10 26 3 104.727 750.191 4
-10 26 3 1029.29 571.762 2
-16 -10 3 -22.0989 647.3 1
26 -16 3 661.49 815.254 3
26 -16 6 40478.6 1828.93 1
-10 26 6 42419.5 2355.99 4
-16 -10 6 43761.8 2249.78 1
-10 26 6 47115.4 2269.23 2
-16 -10 6 42675.8 2177.57 4
26 -16 6 43644.3 2256.07 3
-16 -10 6 40848 2062.63 2
26 -16 9 438.567 879.309 2
-10 26 9 1877.78 1131.68 4
-16 -10 9 -174.715 1220.08 1
-10 26 9 2272.8 1219.38 2
-16 -10 9 913.546 977.638 4
26 -16 9 387.649 927.027 3
-16 -10 9 1136.68 882.873 2
-11 26 -4 1041.57 493.112 4
26 -15 -4 1218.03 590.303 3
-11 26 -1 25445.1 1356.98 4
-15 -11 -1 23701.6 994.429 1
26 -15 -1 27402 1563.32 3
26 -15 -1 22669.6 1514.99 1
26 -15 2 6429.11 871.34 1
-11 26 2 9890.92 1114.54 4
-11 26 2 8289.22 768.585 2
-15 -11 2 7948.84 847.904 1
26 -15 2 8256.7 1056.54 3
-15 -11 5 4573.06 918.498 2
-11 26 5 4702.88 1041 4
-11 26 5 5568.65 974.451 2
26 -15 5 4200.73 803.966 1
-15 -11 5 4452.22 941.084 1
26 -15 5 5679.43 1068.05 3
-15 -11 8 421.87 790.814 2
-11 26 8 2475.33 1012.37 4
-15 -11 8 1243.45 989.034 1
-11 26 8 2049.34 956.686 2
-15 -11 8 425.784 801.353 4
26 -15 8 357.602 937.98 3
-12 26 -5 15102.1 779.359 4
26 -14 -5 16861.4 1126.38 3
-12 26 -2 4762.97 697.921 4
-14 -12 -2 3183.34 492.381 1
26 -14 -2 3136.3 809.313 3
-12 26 1 16063.1 1236.83 4
-12 26 1 16038 831.99 2
26 -14 1 16885.1 1378.7 3
26 -14 1 12423.8 1033.38 1
-14 -12 1 15098.3 990.205 1
-14 -12 4 5033.34 946.779 2
26 -14 4 3502.78 702.821 1
-12 26 4 4013.74 955.339 4
-12 26 4 4674.38 861.552 2
-14 -12 4 5012.86 936.995 1
26 -14 4 3921.89 979.487 3
-12 26 7 8938.78 1406.9 4
-14 -12 7 7653.16 1303.09 1
-12 26 7 11615.3 1391.63 2
-14 -12 7 8706.44 1221.37 4
26 -14 7 8608.91 1284.23 3
-14 -12 7 7965.18 1094.88 2
26 -13 -6 34931 1443.07 3
-13 26 -3 2345.25 544.2 4
-13 -13 -3 2446.2 517.04 1
26 -13 -3 1856.2 685.635 3
-13 -13 0 42342.5 1527.98 1
-13 26 0 45853.7 1783.79 4
-13 26 0 44298.4 1003.11 2
26 -13 0 47469.6 1998.14 3
26 -13 0 45306.2 1825.08 1
26 -13 3 7532.03 797.32 1
-13 26 3 11127.4 1205.74 4
-13 26 3 10059.8 912.58 2
-13 -13 3 10875.7 1075.01 1
26 -13 3 9319.89 1192.98 3
-13 -13 6 32616.8 1779.09 2
-13 26 6 34469 2125.77 4
-13 -13 6 36920.2 2142.17 1
-13 26 6 38364.1 2003.61 2
26 -13 6 40722.9 2193.54 3
-13 -13 9 4631.64 1003.74 2
26 -13 9 4530.1 1158.81 2
-13 26 9 4079.44 1249.06 4
-13 -13 9 3972.92 1333.89 1
-13 26 9 4714.88 1227.53 2
-13 -13 9 3685.55 1122.66 4
26 -13 9 4839.22 1194.33 3
-14 26 -4 3623.7 488.474 4
-12 -14 -4 2765.98 618.225 1
26 -12 -4 3244.3 693.009 3
-14 26 -1 10513.5 925.982 4
-12 -14 -1 8406.17 839.129 1
26 -12 -1 9640.53 1051.34 3
-14 26 2 1550.15 720.787 4
26 -12 2 223.815 497.481 1
-14 26 2 1573.36 529.827 2
26 -12 2 654.742 783.407 3
-12 -14 2 861.898 592.527 1
-12 -14 5 10155.8 1103.43 2
-14 26 5 11345.4 1307.6 4
-12 -14 5 13304.1 1320.41 1
-14 26 5 13506.9 1230.98 2
26 -12 5 14616 1446.12 3
26 -12 5 10960.5 796.861 1
-12 -14 8 1786.71 775.521 2
-14 26 8 192.3 1006.21 4
-12 -14 8 2153.85 1177.84 1
-14 26 8 1491.28 1012.96 2
26 -12 8 394.424 878.368 3
26 -11 -5 5910.56 780.754 3
-15 26 -2 11127.6 843.889 4
-11 -15 -2 11071.6 935.134 1
26 -11 -2 9594.68 1054.98 3
-15 26 1 31286.3 1599.37 4
26 -11 1 27822.6 1280.41 1
-15 26 1 29638.1 1074.26 2
26 -11 1 31782.3 1755.79 3
-11 -15 1 28622.9 1408.35 1
-15 26 4 5145.46 1040.37 4
26 -11 4 3503.52 481.167 1
-15 26 4 5379.75 805.095 2
-11 -15 4 4648.85 915.945 1
26 -11 4 4601.34 986.188 3
-11 -15 7 13232.2 1239.35 2
-15 26 7 18151.6 1739.15 4
-11 -15 7 15880.3 1581.59 1
-15 26 7 14682.5 1458.88 2
26 -11 7 16470.3 1560.8 3
26 -10 -6 37899.7 1575.18 3
-10 -16 -3 4887.35 787.879 1
-16 26 -3 5441.87 590.598 4
26 -10 -3 4983.06 855.383 3
-10 -16 0 53976.8 1896.89 1
-16 26 0 52712.4 1875.53 4
26 -10 0 50475.5 2118.05 3
-16 26 0 51695.3 1170.9 2
-16 26 3 29953.4 1731.16 4
-16 26 3 33445.7 1500.34 2
-10 -16 3 31246.5 1682.15 1
26 -10 3 32808.9 1913 3
-10 -16 6 27627.6 1585.92 2
-16 26 6 35491.8 2197.22 4
-10 -16 6 30142.1 1977.55 1
-16 26 6 30558.5 1807.44 2
26 -10 6 33830.6 2050.61 3
-10 -16 9 4801.46 958.033 2
-16 26 9 6958.15 1531.88 4
-10 -16 9 6293.82 1387.81 1
-16 26 9 5879.56 1311.12 2
26 -10 9 6768.46 1323.18 3
-17 26 -4 3636.78 365.938 4
-9 -17 -4 5110.37 865.615 1
26 -9 -4 5751.76 830.427 3
-17 26 -1 310.062 142.332 2
-17 26 -1 401.337 495.716 4
-9 -17 -1 1143.8 684.754 1
26 -9 -1 -132.823 666.652 3
-17 26 2 26722 1583.35 4
-17 26 2 26376.2 1200.09 2
26 -9 2 24741 1670.19 3
-9 -17 2 25687.4 1496.07 1
-17 26 5 12574.6 1389.18 4
-17 26 5 12775.6 1203.52 2
-9 -17 5 11658.1 1340.9 1
26 -9 5 12959.1 1392.46 3
-9 -17 8 1926.6 773.3 2
-17 26 8 3046.06 1158.26 4
-9 -17 8 4910.58 1321.17 1
-17 26 8 4303.65 1079.62 2
26 -9 8 3742.53 1100.9 3
-8 -18 -5 7509.97 1016.81 1
26 -8 -5 8140.9 960.696 3
-18 26 -2 12604 870.141 4
26 -8 -2 14510.6 1211.94 3
-8 -18 1 2498.02 781.951 1
-18 26 1 3110.56 745.102 4
-18 26 1 3305.42 503.874 2
26 -8 1 2499.53 889.433 3
-18 26 4 2182.75 862.86 4
-18 26 4 859.399 628.804 2
26 -8 4 1047.8 798.102 3
-8 -18 4 2107.93 846.549 1
-8 -18 7 5298.72 884.721 2
-18 26 7 8392.52 1434.32 4
-18 26 7 8868.37 1233.28 2
-8 -18 7 7100.37 1260.96 1
26 -8 7 7977.17 1227.36 3
-7 -19 -6 22163.7 1627.67 1
26 -7 -6 24480.3 1401.39 3
-19 26 -3 23543.2 934.596 4
26 -7 -3 22703.9 1457.01 3
-7 -19 -3 20146.8 1413.7 1
-7 -19 0 23991.3 1496.98 1
-19 26 0 24103.9 1337.46 4
-19 26 0 25444.7 956.218 2
-19 26 3 10939 1201.08 4
-19 26 3 7420.93 851.652 2
26 -7 3 8173.89 1191.48 3
-7 -19 3 10018.1 1207.99 1
-19 26 6 27399.7 1939.32 4
-7 -19 6 21711.4 1772.99 1
-19 26 6 25568.2 1723.67 2
26 -7 6 26857.4 1890.45 3
26 -6 -7 6070.64 965.399 3
-6 -20 -4 15586.2 1363.87 1
26 -6 -4 18760.6 1320.23 3
-20 26 -1 5466.19 473.362 2
-6 -20 -1 4749.48 982.9 1
26 -6 -1 5625.37 948.849 3
-20 26 2 29938.9 1648.4 4
-20 26 2 27492.7 1267.23 2
26 -6 2 32726.3 1904.05 3
-6 -20 2 24736.3 1567.6 1
-20 26 5 3801.11 1085.17 4
-20 26 5 4667.91 864.593 2
-6 -20 5 1685.35 913.809 1
26 -6 5 3939.9 1033.95 3
-20 26 8 6106.54 1368.82 4
-20 26 8 3941.37 1137.01 2
-6 -20 8 5544.1 1433.06 1
26 -6 8 8432.21 1365.27 3
-5 -21 -5 12955.3 1395.64 1
26 -5 -5 13260.1 1182.3 3
-21 26 -2 3190.15 555.886 4
-5 -21 -2 3071 912.333 1
-5 -21 1 3464.13 898.273 1
-21 26 1 2139.19 689.859 4
26 -5 1 3506 924.21 3
-21 26 1 2851.93 563.453 2
-21 26 4 4620.69 1012.29 4
-21 26 4 3891.5 783.206 2
26 -5 4 6316.1 1119.32 3
-5 -21 4 5598.37 1056.65 1
-21 26 7 1365 968.468 4
-21 26 7 1704.46 947.084 2
-5 -21 7 -286.039 951.127 1
26 -5 7 785.997 966.469 3
-4 -22 -6 6529.49 1238.23 1
26 -4 -6 7301.54 1032.95 3
-22 26 -3 7682.21 565.169 4
26 -4 -3 8081.08 1038.41 3
-4 -22 -3 7267 1110.11 1
-4 -22 0 11242 1273.31 1
-22 26 0 12781.4 1006.6 4
26 -4 0 14062.4 1319.41 3
-22 26 0 11605.4 812.505 2
-22 26 3 12732.8 1267.39 4
-22 26 3 12866 1059.11 2
26 -4 3 11470.3 1297.77 3
-4 -22 3 12667.1 1367.01 1
-22 26 6 3734.69 1074.78 4
-22 26 6 2589.83 950.243 2
-4 -22 6 4341.59 1130.86 1
26 -4 6 343.656 884.031 3
-3 -23 -7 3526.02 1163.58 1
26 -3 -7 3424.84 908.537 3
-3 -23 -4 19141.5 1638.12 1
26 -3 -4 18935.7 1410.05 3
-23 26 -1 968.106 447.058 2
-23 26 -1 463.923 501.668 4
-3 -23 -1 -481.644 827.423 1
26 -3 -1 1174.62 775.164 3
-23 26 2 31829.6 1755.76 4
26 -3 2 27264.1 1810.75 3
-23 26 2 27727.5 1362.57 2
-3 -23 2 26261.5 1770.36 1
-23 26 5 741.574 873.356 4
-23 26 5 1834.3 775.077 2
26 -3 5 -1034.44 969.474 3
-3 -23 5 724.684 871.088 1
-23 26 8 17814 1868 4
-3 -23 8 19526.4 2067.84 1
-23 26 8 18182.1 1688.73 2
26 -3 8 16799.6 1701.39 3
-2 -24 -5 11859.6 1517.97 1
26 -2 -5 13935.1 1315.93 3
-24 26 -2 1190.73 475.099 4
26 -2 -2 -237.55 715.417 3
-2 -24 -2 326.556 924.151 1
-2 -24 1 4822.59 1032.94 1
-24 26 1 6549.06 909.757 4
26 -2 1 7331.49 1146.9 3
-24 26 1 6908.76 796.595 2
-24 26 4 5520.26 1071.46 4
-24 26 4 5997.53 898.707 2
26 -2 4 7119.49 1203.28 3
-2 -24 4 3712.69 1028.4 1
-24 26 7 1524.28 1094.05 4
-24 26 7 793.484 899.51 2
-2 -24 7 1183.03 1026.54 1
26 -2 7 1566.77 1037.85 3
-1 -25 -6 2937.91 1236 1
26 -1 -6 3560.8 902.423 3
-1 -25 -3 5796.78 1169.84 1
26 -1 -3 10317.7 1218.08 3
-25 26 0 4767.21 780.3 4
-1 -25 0 4493.29 1145.24 1
26 -1 0 5999.43 1083.97 3
-25 26 0 4893.92 706.325 2
-25 26 3 9512.25 1152.88 4
-25 26 3 9128.46 994.246 2
26 -1 3 11840.5 1390.21 3
-1 -25 3 9809.18 1351.7 1
-25 26 6 439.489 923.885 4
-25 26 6 -912.916 876.055 2
26 -1 6 -660.746 930.98 3
-1 -25 6 1516.48 1053.67 1
0 -26 -7 1893.77 1257.33 1
26 0 -7 120.931 840.854 3
0 -26 -4 27394.9 2088.61 1
26 0 -4 29556.6 1798.6 3
-26 26 -1 -36.0553 486.21 4
0 -26 -1 -742.577 949.351 1
26 0 -1 870.27 885.08 3
0 -26 2 29685 1996.1 1
-26 26 2 32134.4 1797.23 4
26 0 2 29223.6 1939.89 3
-26 26 2 29799.8 1520.17 2
-26 26 5 1147.87 897.803 4
-26 26 5 -515.117 782.062 2
26 0 5 467.437 935.807 3
0 -26 5 836.703 942.306 1
1 -27 -5 5204.48 1322.29 1
26 1 -5 7590.83 1183.22 3
1 -27 -2 2659.1 1065.53 1
-27 26 -2 2992.81 572.26 4
26 1 -2 1784.68 864.812 3
-27 26 1 5032.04 865.279 4
1 -27 1 2979.88 1082.99 1
26 1 1 4306.82 1106.82 3
1 -27 4 2389.42 1087.59 1
-27 26 4 4168.75 1038.41 4
26 1 4 3245.34 1034.34 3
-27 26 4 2796.7 812.802 2
-27 26 7 1542.65 1096.06 4
-27 26 7 1494.55 967.874 2
26 1 7 1945.27 1054.02 3
1 -27 7 928.886 1131.16 1
2 -28 -6 2246.09 1326.67 1
26 2 -6 4008.43 1057.6 3
2 -28 -3 8453 1399.19 1
26 2 -3 10785.8 1306.57 3
-28 26 0 2081.97 706.079 2
-28 26 0 3567.48 738.406 4
2 -28 0 3188.75 1179.63 1
26 2 0 4176.52 1064.05 3
-28 26 3 13421.1 1358.05 4
26 2 3 13043.5 1494.05 3
-28 26 3 11811.2 1192.47 2
2 -28 3 9432.87 1462.36 1
-28 26 6 5074.15 1267.8 4
-28 26 6 2703.96 967.682 2
26 2 6 4851.83 1216.02 3
2 -28 6 4140.2 1310.66 1
3 -29 -4 9420.83 1551.71 1
26 3 -4 12750.7 1464.22 3
-29 26 -1 1651.35 633.834 4
3 -29 -1 611.389 1014.25 1
26 3 -1 1089.51 962.083 3
3 -29 2 15980.5 1736.58 1
-29 26 2 19521.1 1479.16 4
26 3 2 19878.4 1758.17 3
-29 26 2 17872.2 1418.44 2
3 -29 5 3357.58 1264.27 1
-29 26 5 4894.87 1228.42 4
-29 26 5 4368.02 1060.67 2
26 3 5 4282.08 1203.36 3
4 -30 -5 -678.032 1204.53 1
26 4 -5 188.769 897.362 3
4 -30 -2 1260.27 1104.26 1
26 4 -2 588.687 945.45 3
-30 26 1 2773.83 810.038 2
-30 26 1 4334.78 884.573 4
4 -30 1 3994.3 1216.37 1
26 4 1 5353.63 1225.37 3
4 -30 4 5450.56 1383.41 1
-30 26 4 5539.73 1155.76 4
26 4 4 4194.12 1186.68 3
-30 26 4 3634.7 960.379 2
5 -31 -3 2414.6 1273.9 1
26 5 -3 2860.05 1099.01 3
-31 26 0 2856.24 843.31 2
-31 26 0 3318.3 778.124 4
5 -31 0 3272.34 1334.63 1
26 5 0 3378.21 1151.32 3
5 -31 3 5094.58 1459.51 1
-31 26 3 7177.52 1147.04 4
26 5 3 4142.41 1197.48 3
-31 26 3 4952.49 1075.16 2
6 -32 -4 8890.28 1707.03 1
26 6 -4 8453.2 1472.01 3
-32 26 -1 4522.8 773.918 4
6 -32 -1 3909.48 1364.1 1
26 6 -1 5903.02 1371.97 3
-32 26 2 2914.87 904.99 2
6 -32 2 3640.73 1276.17 1
-32 26 2 4811.36 995.007 4
26 6 2 2253.55 1068.73 3
7 -33 -2 2036.16 1244.46 1
26 7 -2 3072.96 1223.28 3
-33 26 1 1605.05 850.992 2
-33 26 1 -429.464 717.455 4
7 -33 1 -479.216 1300.33 1
26 7 1 391.533 1075 3
7 -33 4 1633.44 1348.73 1
-33 26 4 4288.16 1198.56 4
26 7 4 5143.35 1358.46 3
-33 26 4 5487.24 1153.57 2
8 -34 -3 2480.59 1301.86 1
26 8 -3 -83.6704 1148.39 3
-34 26 0 2622.2 1000.72 2
-34 26 0 3491.5 879.535 4
8 -34 0 1723.74 1266.17 1
26 8 0 4071.96 1315.89 3
-34 26 3 3169.3 1042.96 2
8 -34 3 1902.97 1411.91 1
-34 26 3 704.098 892.636 4
26 8 3 665.552 1048.57 3
9 -35 -1 1131.32 1300.42 1
26 9 -1 3985.19 1347.5 3
7 27 -2 3516.3 1573 3
27 -34 -2 2506.93 1477.51 1
27 -34 1 678.714 1298.52 1
-34 7 1 294.983 972.746 4
6 27 -3 2698.47 1571.95 3
27 -33 -3 2433.56 1479.77 1
6 27 0 465.235 1344.65 3
27 -33 0 2133.04 1329.77 1
6 27 3 2286.72 1364.28 3
-33 6 3 689.329 1117.72 2
6 27 3 2297.8 1024.01 2
-33 6 3 684.096 920.905 4
27 -33 3 2495.64 1243.15 1
5 27 -4 3036.1 1650.34 3
27 -32 -4 2291.49 1493.54 1
5 27 -1 665.474 1412.43 3
27 -32 -1 1109.47 1242.07 1
5 27 2 2013.05 1502.88 3
-32 5 2 1309.89 1026.13 2
5 27 2 1766.27 1015.56 2
-32 5 2 2780.94 1061.77 4
27 -32 2 -30.0026 1103.17 1
27 -31 -5 8101.28 1900.94 1
27 -31 -5 6643.36 1142.76 3
27 -31 -2 2791.24 1346.4 1
4 27 -2 5395.75 1743.23 3
4 27 1 8019.11 1786.7 3
27 -31 1 6004.56 1385.36 1
4 27 4 8825.49 1783.66 3
-31 4 4 6272 1318.02 2
4 27 4 8740.13 1528.38 4
4 27 4 7483.42 1393.58 2
-31 4 4 6725.41 1356.89 4
27 -31 4 6160.44 1500.57 1
3 27 -3 1083.85 1425.78 3
27 -30 -3 361.396 1138.02 1
3 27 0 5305.83 1567.56 3
27 -30 0 2113.22 1243.47 1
3 27 3 456.184 1314.61 3
-30 3 3 -679.202 934.458 2
3 27 3 -190.208 959.901 4
3 27 3 -1520.85 984.486 2
-30 3 3 -580.607 933.096 4
27 -30 3 -515.847 1062.03 1
2 27 -4 3022.35 1565.05 3
27 -29 -4 1669.78 1288.53 1
27 -29 -4 1906.79 874.093 3
2 27 -1 873.744 1339.15 3
27 -29 -1 694.618 1155.05 1
2 27 2 3012.92 1415.08 3
-29 2 2 2976.88 1147.06 2
2 27 2 2184.08 869.636 2
-29 2 2 1644.68 931.819 4
27 -29 2 2087.05 1080.68 1
-29 2 5 2496.74 1191.45 2
2 27 5 1400.75 1288.64 3
2 27 5 1529.91 1102.98 4
2 27 5 2500.22 1089.86 2
-29 2 5 2049.6 1075.83 4
27 -29 5 2138.07 1226.87 1
27 -28 -5 12487.8 2043.17 1
27 -28 -5 18677.9 1419.32 3
1 27 -2 3875.56 1425.78 3
27 -28 -2 329.621 1096.17 1
27 -28 -2 3525.89 942.382 3
1 27 1 16308 1973.92 3
1 27 1 13067.8 1218.99 2
27 -28 1 12119.9 1646.22 1
-28 1 4 4143.57 1191.77 2
1 27 4 3780.41 1442.72 3
-28 1 4 6502.36 1018.53 1
1 27 4 5121.68 1236.26 4
1 27 4 4541.19 1139.96 2
-28 1 4 6381.01 1226.86 4
27 -28 4 5162.66 1329.79 1
27 -27 -6 4171.36 1600.97 1
27 -27 -3 685.289 753.697 3
27 -27 -3 -940.742 1154.6 1
0 27 0 10863.9 1052.08 2
27 -27 0 10897.4 1531.6 1
0 27 3 -616.806 1246.99 3
-27 0 3 -811.694 829.243 2
0 27 3 2442.24 1093.06 4
0 27 3 188.849 795.195 2
-27 0 3 616.084 857.994 4
27 -27 3 1300.89 1041.5 1
-27 0 6 6129.42 1337.42 2
0 27 6 6883.73 1517.73 3
0 27 6 7454.41 1399.47 4
-27 0 6 6415.82 1233.25 1
0 27 6 6614.2 1299.21 2
27 -27 6 7046.75 1348.14 1
-27 0 6 3983.19 1217.11 4
27 -27 6 7347.99 1455.88 3
27 -26 -4 2466.51 1242.11 1
27 -26 -4 2529.23 798.536 3
-1 27 -1 3448.55 1392.36 3
-1 27 -1 2732.42 638 2
27 -26 -1 3453.53 943.67 3
27 -26 -1 1391.49 1138.66 1
27 -26 2 4216.36 1183.52 1
-1 27 2 3893.8 1390.93 3
-1 27 2 3532.67 1059.01 4
-1 27 2 3204.45 848.07 2
-26 -1 2 2283.59 939.016 4
27 -26 2 2717.64 917.168 3
-26 -1 5 6459.93 1296.89 2
-1 27 5 8384.8 1556.61 3
-26 -1 5 7394.51 1124.39 1
-1 27 5 6588.46 1246.2 4
-1 27 5 5402.91 1183.82 2
-26 -1 5 6459.22 1222.49 4
27 -26 5 6067.27 1316.32 1
27 -26 5 5594.36 1227.56 3
27 -25 -5 19588.8 1346.57 3
27 -25 -5 19191.6 2191.73 1
27 -25 -2 15371.5 1758.42 1
27 -25 -2 17871.8 1448.95 3
-2 27 1 18053.7 1922.69 3
-2 27 1 14999.5 1456.91 4
-2 27 1 15724.7 1191.69 2
27 -25 1 16056.9 1481.8 3
27 -25 1 15610.6 1636.49 1
-25 -2 4 8852.21 1351.29 2
-2 27 4 8592.73 1567.69 3
-2 27 4 8942.59 1297.66 4
-25 -2 4 10815.5 1125.1 1
-2 27 4 7034.74 1104.35 2
27 -25 4 7405.75 1337.11 1
-25 -2 4 11434.1 1450.54 4
27 -25 4 8760.01 1358.26 3
-2 27 7 16201.7 1828.63 3
27 -25 7 10383.9 1546.26 1
-25 -2 7 13301.6 1595.51 1
-2 27 7 15198.7 1725.06 4
-2 27 7 14769.2 1707.54 2
-25 -2 7 13223.1 1644.04 4
27 -25 7 15601.2 1761.63 3
-25 -2 7 10005.4 1466.66 2
27 -24 -3 2061.43 1186.7 1
27 -24 -3 3004.09 852.034 3
27 -24 0 20758.6 1805.67 1
-3 27 0 24054.7 2125.6 3
-3 27 0 17373.4 1058.02 2
27 -24 0 20931.1 1611.26 3
-24 -3 3 2343.67 1015.95 2
-3 27 3 4496.84 1354.13 3
-3 27 3 4386.22 1098 4
-3 27 3 3959.5 896.589 2
-24 -3 3 2805.94 698.736 1
-24 -3 3 3729.37 972.43 4
27 -24 3 4008.59 1057.43 3
27 -24 3 3061.28 1075.99 1
-3 27 6 13051.8 1676.36 3
-24 -3 6 13499.1 1438.1 1
-3 27 6 12339.1 1550.46 4
27 -24 6 11977.7 1501.26 1
-3 27 6 15441.1 1636.24 2
-24 -3 6 11192.1 1485.35 4
27 -24 6 11623.7 1517.39 3
-24 -3 6 10102.8 1447.72 2
27 -23 -4 -1650.08 1251.87 1
27 -23 -4 423.523 666.964 3
-4 27 -1 8501.43 671.091 2
27 -23 -1 10291.9 1397.59 1
27 -23 -1 10600.7 1217.95 3
-4 27 2 5588.39 1368.05 3
27 -23 2 3424.92 1000.91 1
-4 27 2 2786.83 905.035 4
-4 27 2 3919.3 812.131 2
-23 -4 2 3728.16 595.882 1
27 -23 2 4489.41 1017.76 3
-23 -4 5 4186.35 1064.52 2
-4 27 5 8037.85 1461.99 3
-4 27 5 5163.35 1162.95 4
-23 -4 5 6143.06 1037.03 1
-4 27 5 7016.94 1194.11 2
-23 -4 5 3341.93 998.965 4
27 -23 5 4136.35 1117.73 1
27 -23 5 5057.72 1142.71 3
-23 -4 8 495.304 928.252 2
-4 27 8 987.674 1145.5 4
27 -23 8 -57.564 923.609 1
-23 -4 8 -219.347 1072.97 1
-4 27 8 81.2684 1125.63 2
-23 -4 8 -129.377 953.679 4
27 -23 8 250.033 978.558 3
27 -22 -5 15815.7 1174.43 3
27 -22 -5 11719 1710.54 1
27 -22 -2 20669.2 1478.01 3
27 -22 -2 19359.3 1784.51 1
-5 27 1 23736.9 1621.01 4
27 -22 1 23980 1653.6 3
-22 -5 1 22902 890.174 1
27 -22 1 26671.7 1816.87 1
-22 -5 4 10724.8 1353.67 2
-5 27 4 12532.9 1611.3 3
-5 27 4 10737.1 1416.36 4
-5 27 4 12445.7 1264.36 2
-22 -5 4 12062.1 1136.57 1
27 -22 4 8683.22 1294.4 1
-22 -5 4 11856.5 1359.4 4
27 -22 4 14109.2 1506.22 3
-22 -5 7 3177.03 1092.09 2
-5 27 7 5621.95 1285.88 4
-22 -5 7 6665.17 1252.01 1
27 -22 7 3747.06 1068.44 1
-5 27 7 4094.04 1225.29 2
-22 -5 7 2940.54 1048.9 4
27 -22 7 4652.59 1136.48 3
27 -21 -6 10595.4 937.811 3
27 -21 -3 13636.5 1657.43 1
27 -21 -3 14427.2 1205.67 3
-6 27 0 4899.91 920.362 4
-6 27 0 5262.26 602.369 2
27 -21 0 4411.58 966.967 3
27 -21 0 3065.77 991.573 1
-21 -6 3 6219.06 1049.93 2
-6 27 3 7536.81 1194.13 4
-6 27 3 9443.1 1031.38 2
-21 -6 3 8826.53 928.857 1
27 -21 3 8556.56 1217.53 3
27 -21 3 5656.29 1071.62 1
-21 -6 6 3443.22 992.707 2
-6 27 6 3230.52 1157.45 4
-21 -6 6 4531.91 1044.75 1
-6 27 6 4978.54 1114.26 2
27 -21 6 4563.29 1067.82 1
-21 -6 6 3461.37 1032.58 4
27 -21 6 4870.69 1148.34 3
27 -20 -4 707.11 977.297 1
27 -20 -4 2325.82 698.549 3
-7 27 -1 4857.42 875.27 4
-7 27 -1 5073.7 384.776 2
27 -20 -1 5829.4 953.758 3
27 -20 -1 6215.88 1133.16 1
27 -20 2 1941.46 918.159 1
-7 27 2 3196.94 710.701 2
-20 -7 2 2099.91 564.557 1
27 -20 2 3132.95 973.682 3
-20 -7 5 8814.69 1210.59 2
-7 27 5 11169.4 1375.98 4
-20 -7 5 8811.08 1168.38 1
-7 27 5 11094.4 1264.3 2
27 -20 5 8495.79 1177.69 1
-20 -7 5 6655.01 1143.72 4
27 -20 5 8617.4 1261.97 3
-20 -7 8 481.802 874.675 2
-7 27 8 1425.02 1113.48 4
-20 -7 8 -739.503 1086.75 1
-7 27 8 701.381 1021.17 2
-20 -7 8 349.645 893.589 4
27 -20 8 -8.25624 969.054 3
-8 27 -5 6914.18 779.848 4
27 -19 -5 7698.66 879.237 3
-8 27 -2 7621.57 942.986 4
27 -19 -2 9882.98 1320.51 1
27 -19 -2 8676.41 1050 3
27 -19 1 10685.8 1185.87 1
-8 27 1 14332.2 1283.49 4
-8 27 1 13205.4 873.755 2
27 -19 1 12187 1239.6 3
-19 -8 1 10284 755.389 1
-19 -8 4 18162 1496.95 2
-8 27 4 17589.4 1577.55 4
-8 27 4 20576.2 1435.65 2
-19 -8 4 19712.3 1382.11 1
27 -19 4 15147.7 1364.7 1
27 -19 4 13086.5 1383.95 3
27 -19 7 7623.62 1160.65 1
-8 27 7 9743.67 1499.94 4
-19 -8 7 8914.92 1317.37 1
-8 27 7 11417.1 1436.67 2
-19 -8 7 10909.4 1391.65 4
27 -19 7 8503.14 1292.44 3
-19 -8 7 6257.32 1187.58 2
27 -18 -6 2652.4 644.743 3
-9 27 -3 21935 1239.25 4
27 -18 -3 25287.8 1906.31 1
27 -18 -3 23456.5 1430.75 3
-18 -9 0 20528.7 900.31 1
-9 27 0 20745.5 1393.28 4
-9 27 0 21098.5 830.711 2
27 -18 0 18745.8 1473.91 1
27 -18 0 20716.5 1457.77 3
-9 27 3 22796.8 1687.11 4
-9 27 3 19289.6 1249.03 2
-18 -9 3 17227.8 1195.87 1
27 -18 3 20677.8 1556.96 3
27 -18 3 16471.7 1292.56 1
-9 27 6 20060 1815.53 4
27 -18 6 15904.4 1400.46 1
-18 -9 6 23792.7 1803.73 1
-9 27 6 21524.4 1656.89 2
-18 -9 6 20975.4 1683.16 4
27 -18 6 21247.9 1712.38 3
-18 -9 6 19202.5 1570.29 2
-10 27 -4 2899.86 607.263 4
27 -17 -4 2877.48 736.78 3
-10 27 -1 15219.9 1169.61 4
27 -17 -1 15461.1 1390.44 1
-17 -10 -1 14010.2 683.29 1
27 -17 -1 15947.7 1272.19 3
27 -17 2 7830.91 986.312 1
-10 27 2 9766.45 1171.09 4
-10 27 2 9716.85 838.691 2
-17 -10 2 7962.02 832.99 1
27 -17 2 10910.9 1227.83 3
-17 -10 5 2969.24 876.577 2
-10 27 5 1752.75 932.76 4
-10 27 5 4189.87 946.401 2
-17 -10 5 3117.29 866.299 1
27 -17 5 3799.59 980.818 3
27 -17 5 2487.24 797.98 1
-17 -10 8 440.385 777.163 2
-10 27 8 952.64 999.935 4
-17 -10 8 -582.982 964.785 1
-10 27 8 41.0849 987.39 2
-17 -10 8 886.384 952.709 4
27 -17 8 215.036 901.227 3
-11 27 -5 142.214 412.931 4
27 -16 -5 1439.18 603.791 3
-11 27 -2 10254.3 949.205 4
-16 -11 -2 7636.05 488.233 1
27 -16 -2 8684.23 1209.8 1
27 -16 -2 10049.9 1064.13 3
-11 27 1 1734.1 757.965 4
27 -16 1 698.744 662.35 1
-11 27 1 1977.17 479.55 2
27 -16 1 1302.3 776.61 3
-16 -11 1 1284.42 495.521 1
-16 -11 4 16085.8 1397.02 2
-11 27 4 16334.6 1535.24 4
-11 27 4 16736.7 1256.32 2
-16 -11 4 15235.2 1308.12 1
27 -16 4 16627.8 1440.7 3
27 -16 4 13798.8 1106.71 1
-16 -11 7 1240.72 791.777 2
-11 27 7 1364.33 978.88 4
-16 -11 7 1071.84 939.488 1
-11 27 7 2168.08 959.191 2
-16 -11 7 1070.05 872.154 4
27 -16 7 1317.66 978.009 3
27 -15 -6 3750.55 664.908 3
-12 27 -3 20431.2 1116.31 4
27 -15 -3 22500.6 1392.21 3
27 -15 0 1612.28 750.659 1
-12 27 0 2421.29 720.962 4
-15 -12 0 2738.86 549.61 1
-12 27 0 2254.29 320.219 2
27 -15 0 2610.46 832.91 3
27 -15 3 42678.7 1710.07 1
-12 27 3 46354.5 2176.33 4
-12 27 3 46327.8 1748.93 2
-15 -12 3 44336 1853.63 1
27 -15 3 46806.8 2189.09 3
-15 -12 6 15526.4 1388.52 2
-12 27 6 15755.9 1638.36 4
-15 -12 6 19905.1 1661.19 1
-12 27 6 18354 1539.92 2
27 -15 6 18586.9 1597.02 3
-13 27 -4 5593.72 611.698 4
27 -14 -4 6240.95 857.723 3
-13 27 -1 4176.53 747.952 4
-14 -13 -1 4438.05 644.035 1
27 -14 -1 5207.49 932.438 1
27 -14 -1 3638.8 851.989 3
-13 27 2 3081.04 827.062 4
-13 27 2 1978.11 549.869 2
27 -14 2 2660.97 658.972 1
27 -14 2 2344.49 794.616 3
-14 -13 2 3394.45 734.931 1
27 -14 5 2196.05 635.417 1
-14 -13 5 1215.87 782.464 2
-13 27 5 3111.24 985.648 4
-13 27 5 2090.26 822.137 2
-14 -13 5 3001.9 919.383 1
27 -14 5 3028.06 977.82 3
-14 -13 8 2580.92 878.365 2
-13 27 8 1180.82 1042.12 4
-14 -13 8 2635.32 1147.39 1
-13 27 8 2300.27 1027.38 2
27 -14 8 1918.49 993.552 3
27 -13 -5 1824.7 646.655 3
-14 27 -2 904.418 551.825 4
-13 -14 -2 859.369 508.445 1
27 -13 -2 1666.13 754.292 3
-13 -14 1 571.084 625.224 1
-14 27 1 380.525 651.252 4
27 -13 1 33.9609 569.432 1
-14 27 1 639.849 363.37 2
27 -13 1 720.586 746.895 3
27 -13 4 7301.99 734.038 1
-14 27 4 10848.9 1294.3 4
-14 27 4 8903.46 974.407 2
-13 -14 4 8766.59 1066.88 1
27 -13 4 9397.13 1261.79 3
-13 -14 7 1658.77 727.289 2
-14 27 7 3017.21 1104.19 4
-13 -14 7 2916.3 1076.32 1
-14 27 7 2239.89 936.774 2
27 -13 7 3497.76 1081.53 3
27 -12 -6 6301.47 829.865 3
-15 27 -3 41175.6 1405.07 4
-12 -15 -3 38534.6 1487.3 1
-15 27 0 2428.79 671.942 4
-12 -15 0 2957.92 669.693 1
-15 27 0 3208.53 353.016 2
-15 27 3 32954.2 1852.02 4
-15 27 3 35031 1524.82 2
-12 -15 3 32132.4 1671.71 1
27 -12 3 35236.1 1950.5 3
-12 -15 6 12203.1 1240.42 2
-15 27 6 16053.3 1646.84 4
-12 -15 6 11915.3 1400.47 1
-15 27 6 12588.6 1286.78 2
27 -12 6 15962.3 1541.93 3
-16 27 -4 10898.3 641.81 4
27 -11 -4 11858.9 1065.61 3
-11 -16 -4 10552.3 972.914 1
-16 27 -1 7845.46 811.788 4
-11 -16 -1 8861.87 924.455 1
27 -11 -1 8936.76 1062.74 3
-16 27 2 6951.12 994.176 4
-16 27 2 7805.28 756.659 2
27 -11 2 7697.27 1102.72 3
-11 -16 2 7535.37 922.51 1
-16 27 5 8457 1213.09 4
-16 27 5 8520.73 1041.62 2
-11 -16 5 5825.34 1103.45 1
27 -11 5 6839.14 1175.44 3
-11 -16 8 1773.83 778.51 2
-16 27 8 3038.87 1169.97 4
-11 -16 8 2770.01 1195.02 1
-16 27 8 2895.06 1034.39 2
27 -11 8 1525.1 1032.62 3
27 -10 -5 1123.11 686.403 3
-10 -17 -5 1006.61 674.503 1
-17 27 -2 9744.48 819.391 4
-10 -17 -2 8129.82 947.077 1
27 -10 -2 9302.79 1086.29 3
-17 27 1 12192.3 1092.09 4
-17 27 1 13679.5 781.405 2
27 -10 1 12692.5 1269.53 3
-10 -17 1 12727.2 1111.79 1
-17 27 4 9316.08 1176.31 4
-17 27 4 8096.08 945.232 2
-10 -17 4 7833.27 1092.92 1
27 -10 4 8226.57 1202.31 3
-10 -17 7 1861.36 763.083 2
-17 27 7 4128.7 1178.84 4
-17 27 7 2325.49 953.48 2
-10 -17 7 3437.22 1167.61 1
27 -10 7 2565.65 1014.59 3
27 -9 -6 11379.6 1068.13 3
-9 -18 -3 22245.2 1425.88 1
-18 27 -3 21302.3 959.252 4
27 -9 -3 22395.2 1443.82 3
-9 -18 0 15596.9 1236.2 1
-18 27 0 18828.3 1220.21 4
27 -9 0 17596.3 1433.76 3
-18 27 0 18988.7 772.905 2
-18 27 3 17833.7 1457.64 4
-18 27 3 17787.1 1133.92 2
27 -9 3 20179.2 1582.88 3
-9 -18 3 15851.1 1348.23 1
-18 27 6 12755.8 1504.26 4
-9 -18 6 12260.7 1501.78 1
-18 27 6 11642.7 1265.6 2
27 -9 6 12421 1441.84 3
-8 -19 -4 10009.8 1111.24 1
27 -8 -4 9699.15 1006.56 3
-19 27 -1 19246.9 1144.35 4
-8 -19 -1 20600.5 1391.92 1
27 -8 -1 20788.3 1472.41 3
-19 27 2 6902.46 981.956 4
-19 27 2 5576.98 683.816 2
27 -8 2 6539.16 1082.28 3
-8 -19 2 6574.15 1038.45 1
-19 27 5 13020.7 1410.18 4
-19 27 5 14283.3 1263.64 2
-8 -19 5 11777.3 1384.24 1
27 -8 5 11886 1391.6 3
-19 27 8 1775.39 1185.45 4
-19 27 8 5171.3 1181.29 2
-8 -19 8 3209.73 1273.84 1
27 -8 8 3438.88 1108.84 3
-7 -20 -5 4397.55 985.6 1
27 -7 -5 5975.32 902.438 3
-20 27 -2 5105 630.936 4
-7 -20 -2 5050.81 964.295 1
27 -7 -2 5370.72 922.644 3
-20 27 1 7611.37 963.784 4
27 -7 1 9110.03 1197.39 3
-20 27 1 6472.43 673.25 2
-7 -20 1 6721.73 1013.32 1
-20 27 4 7746.74 1160.3 4
-20 27 4 5223.24 873.508 2
27 -7 4 3885.11 1035.57 3
-7 -20 4 5893.67 1068.14 1
-20 27 7 7012.12 1341.97 4
-7 -20 7 7330.65 1405.04 1
-20 27 7 6467.99 1167.16 2
27 -7 7 5763.79 1258.25 3
27 -6 -6 2746.92 758.813 3
-6 -21 -6 2948.94 999.035 1
-21 27 -3 8823.12 630.417 4
27 -6 -3 10946.9 1140.53 3
-6 -21 -3 9313.26 1181.95 1
-21 27 0 5499.69 802.605 4
-6 -21 0 4543.44 945.536 1
27 -6 0 5031.42 1006.16 3
-21 27 0 4307.33 550.915 2
-21 27 3 7027.98 1074.86 4
-21 27 3 4245.84 717.226 2
27 -6 3 5543.39 1122.54 3
-6 -21 3 5545.69 1041.15 1
-21 27 6 14240.5 1560.79 4
-21 27 6 14288.4 1372.34 2
-6 -21 6 13936.4 1575.34 1
27 -6 6 15172.3 1574.03 3
-5 -22 -4 7741.44 1161.84 1
27 -5 -4 5364.62 970.367 3
-5 -22 -1 25934.4 1731.22 1
27 -5 -1 29050.5 1745.34 3
-22 27 2 26864.6 1611.92 4
-22 27 2 23699.6 1235.63 2
27 -5 2 29025.7 1841.45 3
-5 -22 2 22949.7 1675.94 1
-22 27 5 16001.5 1594.62 4
-22 27 5 14747.9 1304.34 2
27 -5 5 17964.8 1658.83 3
-22 27 8 11107.3 1474.42 2
-5 -22 8 8338.78 1542.72 1
27 -5 8 8059.1 1356.69 3
-4 -23 -5 6413.26 1181.47 1
27 -4 -5 5445.29 962.586 3
-4 -23 -2 1114.46 822.592 1
-23 27 -2 2424.63 533.307 4
27 -4 -2 2563.07 869.504 3
-4 -23 1 11310.4 1308.47 1
-23 27 1 14910.5 1226.49 4
27 -4 1 14398.1 1418.3 3
-23 27 1 13599.5 961.38 2
-23 27 4 2617.44 916.106 4
-23 27 4 2058.15 707.375 2
27 -4 4 611.967 925.607 3
-4 -23 4 2417.91 987.898 1
-23 27 7 4005.7 1179.19 4
-23 27 7 5878.77 1137.52 2
-4 -23 7 5653.04 1399.75 1
27 -4 7 3831.18 1192.69 3
-3 -24 -6 14028.1 1627.82 1
27 -3 -6 11842.3 1276.84 3
-3 -24 -3 2286.07 995.267 1
27 -3 -3 3038.84 965.265 3
-3 -24 0 22852.6 1699.33 1
-24 27 0 28667.7 1471.3 4
27 -3 0 29320.5 1844.21 3
-24 27 0 23460.1 1177.03 2
-3 -24 3 22.736 853.907 1
-24 27 3 1465.69 812.831 4
27 -3 3 777.19 904.464 3
-24 27 3 1424.63 610.748 2
-24 27 6 8081.23 1381.15 4
-24 27 6 6307.1 1117.63 2
27 -3 6 6532.87 1235.38 3
-3 -24 6 4573.67 1311.8 1
-2 -25 -7 15232.7 1847.51 1
27 -2 -7 13460.2 1349.2 3
27 -2 -4 5256.11 1027.87 3
-2 -25 -4 3227.59 1082.87 1
-25 27 -1 20083.5 1154.61 4
-2 -25 -1 16317.6 1583.47 1
27 -2 -1 21136.4 1632.9 3
-25 27 2 13690.6 1278.63 4
27 -2 2 12140.1 1375.19 3
-25 27 2 11299.5 1014.38 2
-2 -25 2 13250.7 1437.8 1
-25 27 5 17856.5 1694.94 4
-25 27 5 16190 1420.62 2
-2 -25 5 19311.4 1823.77 1
27 -2 5 18780.3 1716.63 3
-1 -26 -5 6844.36 1388.24 1
27 -1 -5 8404.59 1229 3
-1 -26 -2 4583.92 1183.38 1
-26 27 -2 5419.07 659.983 4
-26 27 1 5975.26 902.168 4
-1 -26 1 3075.11 1095.25 1
27 -1 1 5340.02 1142.43 3
-26 27 1 5378.54 803.731 2
-1 -26 4 489.354 982.349 1
-26 27 4 -651.997 868.61 4
-26 27 4 30.132 685.071 2
27 -1 4 -223.218 907.026 3
-26 27 7 2403.74 1154.73 4
-26 27 7 -97.5146 942.903 2
27 -1 7 2515.68 1130.05 3
-1 -26 7 575.637 1169.96 1
0 -27 -6 7803.36 1553.67 1
27 0 -6 4950.84 1072.29 3
0 -27 -3 809.201 1037.04 1
27 0 -3 558.261 827.294 3
-27 27 0 8610.27 924.503 2
0 -27 0 13164.3 1533.2 1
-27 27 0 13051.9 1112.6 4
27 0 0 13697 1476.81 3
0 -27 3 1954.26 1071.09 1
-27 27 3 1277.02 867.139 4
27 0 3 -124.946 919.672 3
-27 27 3 857.571 690.833 2
-27 27 6 6151.31 1316.27 4
-27 27 6 4404.44 1052.9 2
27 0 6 6608.55 1315.28 3
0 -27 6 2626.89 1224.05 1
1 -28 -4 3310.79 1251.68 1
27 1 -4 4050.72 1076.79 3
-28 27 -1 20788.3 1238.65 4
27 1 -1 19321.6 1687.9 3
1 -28 2 2068.94 1033.77 1
-28 27 2 5796.38 1009.77 4
27 1 2 3315.38 1088.1 3
-28 27 2 3571.85 791.464 2
-28 27 5 14370.2 1608.58 4
-28 27 5 14127 1408.43 2
27 1 5 14880.6 1662.64 3
1 -28 5 11491.4 1574.83 1
2 -29 -5 1161.12 1188.98 1
27 2 -5 -5.11823 888.394 3
2 -29 -2 1034.81 1034.54 1
27 2 -2 1215.86 906.103 3
-29 27 1 2606.35 745.857 2
-29 27 1 3761.38 836.923 4
2 -29 1 3324.4 1175.98 1
27 2 1 3207.52 1115.81 3
2 -29 4 1034.51 1055.36 1
-29 27 4 381.536 812.694 4
27 2 4 611.305 946.222 3
-29 27 4 -463.615 759.421 2
3 -30 -3 -255.488 1125.36 1
27 3 -3 -19.5294 903.038 3
-30 27 0 3742.63 843.697 2
-30 27 0 5287.75 859.829 4
3 -30 0 5268.27 1339.21 1
27 3 0 6272.51 1258.03 3
3 -30 3 2655.78 1276.39 1
-30 27 3 4761.83 1073.89 4
27 3 3 3607.4 1128.64 3
-30 27 3 2583.89 880.939 2
4 -31 -4 2720.01 1274.19 1
27 4 -4 7238.22 1330.84 3
-31 27 -1 5529.47 850.801 4
4 -31 -1 3068.7 1270.09 1
27 4 -1 6861.6 1313.24 3
-31 27 2 3473.5 898.144 2
4 -31 2 3846.26 1292.95 1
-31 27 2 4701.07 987.663 4
27 4 2 2638.99 1099.56 3
4 -31 5 3592.53 1438.19 1
-31 27 5 6168.97 1285.06 4
27 4 5 4049.3 1267.83 3
-31 27 5 4960.7 1121.78 2
5 -32 -2 1237.66 1165.2 1
27 5 -2 1023.07 1046.41 3
-32 27 1 2524.32 842.508 2
-32 27 1 3667.78 925.299 4
5 -32 1 1926.23 1179.13 1
27 5 1 4306.69 1204.94 3
5 -32 4 2077.89 1262.18 1
-32 27 4 2017.28 1007.99 4
27 5 4 683.856 1016.64 3
-32 27 4 2802.53 921.983 2
6 -33 -3 1258.16 1240.42 1
27 6 -3 673.067 1058.78 3
-33 27 0 1174.08 831.264 2
-33 27 0 460.003 699.108 4
6 -33 0 696.714 1091.24 1
27 6 0 1064.72 1030.72 3
6 -33 3 4320.62 1394.34 1
-33 27 3 3976.46 1068.42 4
27 6 3 4683.8 1296.18 3
-33 27 3 2640.03 987.602 2
27 7 -1 4417.76 1342.27 3
7 -34 -1 2344.12 1311.25 1
-34 27 2 4206.56 1090.29 2
-34 27 2 5348.31 1106.78 4
7 -34 2 4371.64 1478.47 1
27 7 2 6911.72 1445.43 3
6 28 -1 364.806 1394.79 3
28 -34 -1 -827.926 1314.02 1
28 -33 -2 1529.09 1489.41 1
5 28 -2 4670.61 1723.46 3
5 28 1 4494.99 1673.84 3
5 28 1 6290.34 1151.26 2
28 -33 1 3298.14 1393.18 1
4 28 -3 1325.29 1475.33 3
28 -32 -3 1089.56 1314.5 1
4 28 0 -905.587 1431.11 3
28 -32 0 -302.981 1195.09 1
4 28 3 334.769 1303.14 3
-32 4 3 2339.96 1239.27 2
4 28 3 -344.994 1089.16 4
4 28 3 2268.53 1027.28 2
-32 4 3 954.103 991.246 4
28 -32 3 2277.97 1314.37 1
3 28 -4 6225.96 1790.8 3
28 -31 -4 2306.71 1362.71 1
28 -31 -4 3378.38 974.372 3
3 28 -1 2371.03 1560.44 3
28 -31 -1 3779.01 1348.95 1
28 -31 2 1404.69 1189.24 1
3 28 2 672.699 1335.57 3
3 28 2 1571.29 932.715 2
-31 3 2 2809.94 1112.33 4
28 -30 -5 3539.29 1516.62 1
28 -30 -5 3274.01 938.689 3
2 28 -2 4580.97 1626.04 3
28 -30 -2 1632.42 1249.55 1
28 -30 -2 5640.81 1127.5 3
2 28 1 3832.68 1593.67 3
2 28 1 7248.21 1085.63 2
28 -30 1 6605.42 1490.52 1
2 28 4 2386.88 1463.1 3
-30 2 4 2821.44 1153.53 2
2 28 4 2103.59 1178.59 4
2 28 4 1537.25 1046.38 2
-30 2 4 2700.5 1160.27 4
28 -30 4 1686.8 1186.11 1
1 28 -3 4905.59 1577.67 3
28 -29 -3 6398.78 1120.65 3
28 -29 -3 1776.84 1177.27 1
1 28 0 2515.46 1406.91 3
1 28 0 2595.33 802.273 2
28 -29 0 3643.88 1302.13 1
1 28 3 5873.98 1522.67 3
-29 1 3 5611.04 1250.14 2
1 28 3 5122.35 1299.48 4
1 28 3 5387.2 1121.8 2
-29 1 3 5938.67 1271.28 4
28 -29 3 6981.81 1439.1 1
28 -28 -4 1714.02 820.658 3
28 -28 -4 -201.145 1301.08 1
0 28 -1 -560.083 1255.38 3
28 -28 -1 993.526 872.806 3
28 -28 -1 -540.724 1075.88 1
28 -28 2 902.106 1033.33 1
0 28 2 1557.14 1327.83 3
0 28 2 590.925 981.135 4
0 28 2 2361.19 842.154 2
28 -28 2 2319 1021.68 3
-28 0 5 11.2458 942.223 2
0 28 5 -921.41 1280.89 3
0 28 5 267.546 975.52 4
-28 0 5 179.083 777.531 1
0 28 5 101.141 937.428 2
-28 0 5 1810.33 1039.94 4
28 -28 5 1117.62 1131.74 3
28 -28 5 936.251 1075.66 1
28 -27 -5 11884.4 1198.77 3
28 -27 -5 9824.53 1829.35 1
-1 28 -2 1413.69 1360.31 3
28 -27 -2 1498.11 1147.61 1
28 -27 -2 2721.72 944.163 3
-1 28 1 14902 1911.55 3
-1 28 1 15419.1 1579.77 4
-1 28 1 15043.5 1245.47 2
28 -27 1 20358.3 1701.75 3
28 -27 1 13449.1 1591.1 1
-27 -1 4 4039.36 1131.74 2
-1 28 4 3823.34 1432.35 3
-1 28 4 3519.39 1150.76 4
-27 -1 4 4457.18 893.811 1
-1 28 4 4761.51 1104.32 2
-27 -1 4 5171.25 1194.31 4
28 -27 4 4877.37 1156.8 3
28 -27 4 3598.7 1213.32 1
28 -26 -6 4890.78 1561.71 1
28 -26 -3 12880.9 1310.77 3
28 -26 -3 9075.73 1584.18 1
-2 28 0 3785.03 1464.44 3
-2 28 0 2178.33 658.712 2
28 -26 0 4643.33 1006.56 3
28 -26 0 5083.47 1273.05 1
-26 -2 3 11885.1 1510.84 2
-2 28 3 9015.34 1633.61 3
-2 28 3 8210.73 1377.73 4
-2 28 3 8060.05 1184.88 2
-26 -2 3 7588.24 1251.92 4
28 -26 3 8019.19 1366.3 1
28 -26 3 10610.2 1430.74 3
-26 -2 6 2354.95 1001.41 2
-2 28 6 4792.44 1441.91 3
-2 28 6 4022.53 1247.29 4
-26 -2 6 3797.23 1063.29 1
-2 28 6 3898.5 1183.38 2
28 -26 6 986.249 1163.28 1
-26 -2 6 508.833 888.118 4
28 -26 6 4283.35 1230.03 3
28 -25 -4 5045.54 1415.31 1
28 -25 -4 4960.76 890.784 3
28 -25 -1 4684.06 1237.01 1
28 -25 -1 1650.2 829.288 3
-3 28 2 6212.87 1466.51 3
-3 28 2 6740.27 1196.97 4
28 -25 2 5252.89 1222.15 1
-3 28 2 6851.88 964.566 2
28 -25 2 10280.3 1336.77 3
-25 -3 5 -559.569 879.963 2
-3 28 5 1774.14 1216.5 3
-3 28 5 -440.728 989.921 4
-25 -3 5 904.567 773.581 1
-3 28 5 -619.122 934.893 2
-25 -3 5 879.468 934.679 4
28 -25 5 -29.1642 977.812 3
28 -25 5 -272.8 959.395 1
28 -24 -5 13978.5 1916.36 1
28 -24 -5 14833.2 1245.11 3
28 -24 -2 6004.71 1043.02 3
28 -24 -2 6762.03 1314.01 1
-4 28 1 19626.9 1936.69 3
-4 28 1 15905.3 1546.24 4
-4 28 1 18868.6 1182.77 2
28 -24 1 15929.9 1480.14 3
28 -24 1 14400.8 1556.6 1
-24 -4 4 4950.99 1154.7 2
-4 28 4 6789.48 1475.13 3
-4 28 4 5335.88 1180.61 4
-4 28 4 6291.42 1091.46 2
-24 -4 4 6034.5 955.409 1
-24 -4 4 7595.13 1299.15 4
28 -24 4 4982.41 1107.77 3
28 -24 4 5006.79 1165.86 1
-4 28 7 6249.2 1464.73 4
-24 -4 7 5971.97 1243.21 1
-4 28 7 5685.58 1348.54 2
28 -24 7 5236.41 1186.95 1
-24 -4 7 5732.78 1284.45 4
28 -24 7 5290.83 1332.28 3
-24 -4 7 6220.35 1307.65 2
28 -23 -3 13504.9 1670.94 1
28 -23 -3 19127.1 1394.66 3
-5 28 0 2156.09 843.598 4
-5 28 0 4121.76 602.137 2
28 -23 0 2148.94 848.376 3
28 -23 0 3150.44 1102.63 1
-23 -5 3 13386.6 1480.67 2
-5 28 3 11241.1 1661.59 3
-5 28 3 10778.2 1329.62 4
-5 28 3 14021.2 1230.57 2
-23 -5 3 14484.2 1075.49 1
28 -23 3 15488.7 1498.25 3
28 -23 3 12768.6 1397.11 1
-23 -5 6 3794.22 1149.63 2
-5 28 6 5238.38 1289.54 4
-23 -5 6 4563.5 1184.28 1
-5 28 6 3047.83 1079.74 2
28 -23 6 2968.68 1011.62 1
-23 -5 6 6282.89 1281.26 4
28 -23 6 4969.41 1213.12 3
28 -22 -4 1727.67 1136.68 1
28 -22 -4 3110.64 795.562 3
-6 28 -1 7045.41 1040.85 4
28 -22 -1 6570.68 974.555 3
28 -22 -1 5594.63 1169.01 1
-6 28 2 3430.05 963.534 4
28 -22 2 2329.26 946.047 1
-6 28 2 2438.96 693.788 2
-22 -6 2 3675.72 647.378 1
28 -22 2 2950.43 909.217 3
-22 -6 5 235.305 798.85 2
-6 28 5 3225.62 1104.85 4
-6 28 5 3629.04 1021.71 2
-22 -6 5 2423.76 858.365 1
-22 -6 5 1843.19 883.1 4
28 -22 5 2059.88 968.972 3
28 -22 5 963.288 870.392 1
28 -21 -5 14134.7 1151.41 3
-7 28 -2 4953.36 895.305 4
28 -21 -2 5381.19 954.219 3
28 -21 -2 4965.31 1191.3 1
28 -21 1 15225.1 1438.6 1
-7 28 1 17270.2 1429.24 4
-7 28 1 18001.3 1052.05 2
28 -21 1 18445.6 1536.09 3
-21 -7 1 16585.5 848.346 1
-21 -7 4 6745.9 1154.43 2
-7 28 4 7336.28 1251.35 4
-7 28 4 8426.68 1075.14 2
-21 -7 4 7226.27 985.703 1
28 -21 4 6721.43 1128.05 1
28 -21 4 6931.14 1164.57 3
28 -21 7 9004.97 1307.09 1
-7 28 7 8364.61 1420.89 4
-21 -7 7 7806.78 1359.66 1
-7 28 7 8972.24 1355.6 2
-21 -7 7 8023.45 1295.73 4
28 -21 7 7539.89 1355.5 3
-21 -7 7 7015.13 1235.03 2
-8 28 -3 21746.7 1343.79 4
28 -20 -3 26347.1 1564.38 3
28 -20 -3 23589.2 1956.85 1
-8 28 0 11199.9 1179.07 4
-8 28 0 11493.6 687.086 2
28 -20 0 10711.1 1324.45 1
28 -20 0 14141.2 1337.2 3
-8 28 3 12794.3 1400.43 4
-8 28 3 8956.1 989.8 2
-20 -8 3 11934.7 1059.63 1
28 -20 3 14347.3 1394.84 3
28 -20 3 9892.01 1173.97 1
-20 -8 6 2505.46 938.986 2
-8 28 6 1350.85 1007.99 4
-8 28 6 3543.54 1024.85 2
-20 -8 6 1763.17 942.662 1
-20 -8 6 3595.87 1154.64 4
28 -20 6 1027.66 846.579 1
28 -20 6 2679.06 1005.51 3
-9 28 -4 4920.71 754.654 4
28 -19 -4 5416.4 871.171 3
-9 28 -1 7189.34 957.443 4
28 -19 -1 6560.94 1112.67 1
28 -19 -1 7087.48 993.691 3
28 -19 2 7577.03 1053.91 1
-9 28 2 6737.5 1107.47 4
-9 28 2 6616.35 787.667 2
-19 -9 2 6650.2 774.494 1
28 -19 2 5655.22 1042.25 3
-19 -9 5 1866.08 912.173 2
-9 28 5 597.536 981.526 4
-9 28 5 457.99 729.506 2
-19 -9 5 -74.6693 743.249 1
28 -19 5 1571.8 934.362 3
28 -19 5 -214.083 821.608 1
-19 -9 8 3204.78 1037.36 2
-9 28 8 3796.87 1252.1 4
-19 -9 8 6022.26 1359.75 1
-9 28 8 4416.38 1231.55 2
-19 -9 8 3962.72 1126.27 4
28 -19 8 3785.5 1171.1 3
-10 28 -5 11091.7 864.116 4
28 -18 -5 12015.1 1046.22 3
-10 28 -2 2407.96 681.362 4
28 -18 -2 2280.63 787.489 3
28 -18 -2 3052.58 1005.59 1
-10 28 1 8222.77 1088.99 4
28 -18 1 8833.64 1089.07 1
-10 28 1 10094.4 764.004 2
28 -18 1 9846.32 1209.62 3
-18 -10 1 7178.33 719.23 1
28 -18 4 3447.65 836.287 1
-18 -10 4 2946.12 937.603 2
-10 28 4 3855.15 1030.97 4
-10 28 4 4160.24 870.592 2
-18 -10 4 4415.6 869.209 1
28 -18 4 3062.38 979.013 3
-18 -10 7 4141.48 1067.43 2
-10 28 7 6234.65 1301.84 4
-18 -10 7 6759.9 1324.87 1
-10 28 7 6294.89 1210.76 2
-18 -10 7 4706.96 1145.54 4
28 -18 7 5238.78 1237.09 3
28 -17 -6 14266.7 1084.41 3
-11 28 -3 26100.1 1323.08 4
28 -17 -3 28758.4 1571.08 3
-17 -11 0 12430.9 843.457 1
-11 28 0 16584.3 1276.28 4
-11 28 0 13589.5 601.113 2
28 -17 0 14291.9 1328.6 3
28 -17 0 13172 1300.08 1
-11 28 3 35714.3 1996.04 4
-11 28 3 35077.8 1581.68 2
-17 -11 3 31844.3 1576.2 1
28 -17 3 35043.6 1957.6 3
-17 -11 6 439.739 816.594 2
-11 28 6 1170.97 1015.83 4
-11 28 6 1172.17 843.874 2
-17 -11 6 447.215 837.843 1
28 -17 6 574.302 901.313 3
-12 28 -4 4146.78 633.545 4
28 -16 -4 3580.23 788.69 3
28 -16 -1 -104.418 785.084 1
-12 28 -1 55.0897 614.254 4
28 -16 -1 42.0691 687.094 3
-16 -12 -1 163.988 402.906 1
28 -16 2 1047.08 682.346 1
-12 28 2 -392.773 709.533 4
-12 28 2 160.153 487.3 2
28 -16 2 668.272 793.371 3
-16 -12 2 484.483 563.864 1
-16 -12 5 629.941 799.98 2
-12 28 5 -122.146 922.565 4
-12 28 5 771.906 717.144 2
-16 -12 5 1503.95 802.066 1
28 -16 5 -756.268 895.386 3
28 -16 5 1486.57 690.173 1
-16 -12 8 2762.06 938.407 2
-12 28 8 2441.35 1115.92 4
-16 -12 8 3104.43 1221.01 1
-12 28 8 1651.65 1055.5 2
28 -16 8 1159.26 1020.18 3
28 -15 -5 13899 1130.93 3
-13 28 -2 3362.44 716.351 4
-15 -13 -2 2342.68 478.248 1
28 -15 -2 3232.42 829.778 3
-13 28 1 11247.7 1135.58 4
-13 28 1 13058.6 769.624 2
-15 -13 1 11012.4 926.404 1
-13 28 4 6406.71 1180.86 4
-13 28 4 5762.91 874.626 2
-15 -13 4 5476.32 932.719 1
28 -15 4 5660.23 1070.88 3
28 -15 4 4962.59 774.749 1
-15 -13 7 1252.97 803.948 2
-13 28 7 2050.08 1063.16 4
-15 -13 7 650.515 960.695 1
-13 28 7 1631.82 940.401 2
28 -15 7 330.006 874.541 3
28 -14 -6 18523.6 1196.12 3
-14 28 -3 20152.3 1087.31 4
-14 -14 -3 20574.1 984.527 1
-14 -14 0 14730.3 1021.09 1
-14 28 0 18385.4 1290.9 4
28 -14 0 13702.3 1168.84 1
28 -14 0 20044.5 1497.36 3
-14 28 0 15508.8 595.95 2
-14 28 3 28649.5 1741.05 4
-14 28 3 28491.3 1413.52 2
-14 -14 3 26324 1523.43 1
28 -14 3 29767.3 1833.2 3
-14 -14 6 4495.8 1015.95 2
-14 28 6 7877.52 1324.48 4
-14 -14 6 6812.51 1211.7 1
-14 28 6 8096.08 1134.53 2
28 -14 6 4733.88 1073.31 3
-15 28 -4 4253.77 552.297 4
28 -13 -4 4749.6 824.542 3
-15 28 -1 8387.78 897.6 4
-13 -15 -1 9564.28 908.611 1
28 -13 -1 9585.05 1092.79 3
28 -13 2 1807.59 594.631 1
-15 28 2 3878.54 880.161 4
-15 28 2 5345.49 669.558 2
28 -13 2 3799.71 928.337 3
-13 -15 2 3830.06 799.221 1
-15 28 5 7095.88 1218.77 4
-15 28 5 5136.9 966.643 2
-13 -15 5 4943.34 1063.42 1
28 -13 5 4607.19 1108.52 3
-13 -15 8 1736.47 828.758 2
-15 28 8 917.568 1039.95 4
-13 -15 8 2172.15 1159.32 1
-15 28 8 86.9573 933.182 2
28 -13 8 1770.07 1035.9 3
28 -12 -5 1337.87 641.218 3
-12 -16 -2 2236.13 663.408 1
-16 28 -2 2040.35 575.195 4
28 -12 -2 1007.4 676.994 3
-12 -16 1 714.56 624.523 1
-16 28 1 680.929 673.547 4
-16 28 1 282.393 372.512 2
28 -12 1 1149.9 772.12 3
-16 28 4 2539.41 949.363 4
-16 28 4 2398.29 709.506 2
28 -12 4 3212.41 1004.49 3
-12 -16 4 2897.64 884.43 1
-12 -16 7 1389.01 770.405 2
-16 28 7 3234.32 1127.5 4
-16 28 7 1484.27 966.648 2
-12 -16 7 1633.39 1055.71 1
28 -12 7 104.89 953.102 3
28 -11 -6 4133.65 779.151 3
-11 -17 -3 28310.5 1455.89 1
-17 28 -3 27640.4 1158.98 4
28 -11 -3 31117.6 1639.92 3
-11 -17 0 11084.5 1045.26 1
-17 28 0 12374.3 1089.6 4
-17 28 0 12772.8 607.543 2
-17 28 3 23652.7 1635.43 4
-17 28 3 20888.7 1262.43 2
28 -11 3 20665.6 1679.41 3
-11 -17 3 20544.4 1486.32 1
-17 28 6 7905.32 1301.28 4
-11 -17 6 7196.33 1292.93 1
-17 28 6 7206.5 1105.6 2
28 -11 6 7978.74 1296.61 3
-10 -18 -4 3366.73 804.039 1
28 -10 -4 3753.41 846.503 3
-18 28 -1 8080.31 860.626 4
-10 -18 -1 6415.08 930.673 1
28 -10 -1 8114.21 1061.15 3
-18 28 2 4260.91 957.672 4
-18 28 2 3051.4 584.099 2
28 -10 2 1498.28 842.277 3
-10 -18 2 4303.29 870.034 1
-18 28 5 8283.95 1246.77 4
-18 28 5 8431.06 1117.19 2
-10 -18 5 7295.79 1209.2 1
28 -10 5 11463.5 1374.73 3
-18 28 8 4265.74 1336.63 4
-18 28 8 1765.53 981.768 2
28 -10 8 4081.91 1194.15 3
-9 -19 -5 618.374 712.41 1
28 -9 -5 1503.82 681.896 3
-9 -19 -2 1294.95 774.648 1
-19 28 -2 1882.44 522.022 4
28 -9 -2 1955.47 807.668 3
-19 28 1 10046.8 1061.15 4
28 -9 1 9412.11 1205.51 3
-19 28 1 9007.61 701.888 2
-9 -19 1 9148.03 1083.63 1
-19 28 4 6095.89 1134.26 4
-19 28 4 5209.05 819.504 2
28 -9 4 3910.75 1100.67 3
-9 -19 4 5992.36 1041.87 1
-19 28 7 1186.87 1034.61 4
-19 28 7 1543.28 891.17 2
-9 -19 7 2938.8 1164.2 1
28 -9 7 1894.5 1011.08 3
28 -8 -6 5050.1 864.321 3
-8 -20 -6 5887.84 1072.87 1
-20 28 -3 12777 769.6 4
28 -8 -3 11401.7 1173.87 3
-8 -20 -3 11669.5 1195.33 1
-8 -20 0 9044.96 1084.17 1
-20 28 0 10937.1 1013.64 4
-20 28 0 11816.1 686.179 2
-20 28 3 27144.3 1721.59 4
-20 28 3 21258.2 1254.2 2
28 -8 3 22187.5 1743.04 3
-8 -20 3 23233 1622.17 1
-20 28 6 5906.08 1256.99 4
-20 28 6 1869.43 934.508 2
-8 -20 6 2937.33 1100.15 1
28 -8 6 4660.02 1135.65 3
-7 -21 -4 7578 1101.53 1
28 -7 -4 8255.77 1040.29 3
-21 28 -1 16914.4 1110.26 4
-7 -21 -1 13678.8 1285.47 1
28 -7 -1 17087 1446.18 3
-7 -21 2 2759.2 920.497 1
-21 28 2 4246.55 941.875 4
-21 28 2 4500.4 643.573 2
28 -7 2 5655.29 1118.93 3
-21 28 5 13638.9 1521.81 4
-21 28 5 12318.1 1207.53 2
-7 -21 5 10262.2 1320.33 1
28 -7 5 10714.1 1355.45 3
-21 28 8 3294.66 1270.02 4
-21 28 8 704.359 950.265 2
-7 -21 8 2040.15 1196.62 1
28 -7 8 1354.41 1047.72 3
-6 -22 -5 2774.97 983.965 1
28 -6 -5 2280.82 773.438 3
-6 -22 -2 3732.27 925.324 1
-22 28 -2 3078.62 580.686 4
28 -6 -2 3740.16 892.855 3
-6 -22 1 5160.92 1030.79 1
-22 28 1 7254.39 976.939 4
28 -6 1 5158.91 1024.24 3
-22 28 1 5720.61 683.573 2
-22 28 4 6620.94 1159.82 4
-22 28 4 5374.81 855.523 2
-6 -22 4 6560.67 1192.75 1
28 -6 4 5469.63 1157.83 3
-22 28 7 2040.78 1108.5 4
-22 28 7 2529.67 949.635 2
-6 -22 7 2856.76 1202.5 1
28 -6 7 1448.87 1047.58 3
-5 -23 -6 2534.62 1101.33 1
28 -5 -6 2992.6 844.727 3
28 -5 -3 17247.5 1412.06 3
-5 -23 -3 13533.9 1399.92 1
-23 28 0 2322.76 496.417 2
-23 28 0 5409.88 832.936 4
-5 -23 0 3865.02 979.282 1
28 -5 0 3767.43 995.678 3
-23 28 3 18109.6 1479.99 4
-23 28 3 17721.7 1234.02 2
28 -5 3 18484.2 1635.08 3
-23 28 6 1409.31 954.004 4
-23 28 6 3488.27 921.427 2
28 -5 6 3381.02 1094.34 3
-5 -23 6 1523.36 1101.24 1
-4 -24 -7 6633.14 1416.88 1
28 -4 -4 9494.75 1169.12 3
-4 -24 -4 4447.51 1111.95 1
-4 -24 -1 13190.3 1434.72 1
28 -4 -1 15202.6 1451.7 3
-4 -24 2 5345.6 1129.25 1
-24 28 2 6803.62 1068.72 4
28 -4 2 6118.92 1163.46 3
-24 28 2 6901.52 816.947 2
-24 28 5 24344.4 1918.93 4
-24 28 5 26774.6 1700.94 2
-4 -24 5 23202 1939.46 1
28 -4 5 25969.5 1974.86 3
-3 -25 -5 1069.82 997.397 1
28 -3 -5 907.793 831.021 3
-25 28 -2 9613.04 792.097 4
-3 -25 -2 8316.43 1276.15 1
28 -3 -2 10717.3 1276.51 3
-3 -25 1 5404.33 1135.74 1
-25 28 1 3960.49 808.973 4
28 -3 1 3653.29 1032.01 3
-25 28 1 4684.27 724.654 2
-3 -25 4 4519.81 1137.8 1
-25 28 4 4731.72 1050.77 4
-25 28 4 3860.62 850.53 2
28 -3 4 5350.11 1189.72 3
-25 28 7 3021.52 1014.86 2
28 -3 7 1967.94 1110.26 3
-3 -25 7 696.348 1071.83 1
28 -2 -6 763.031 825.558 3
-2 -26 -6 1600.32 1141.73 1
28 -2 -3 9829.45 1273.74 3
-2 -26 -3 9765.99 1375.24 1
-26 28 0 2139.26 628.459 2
-26 28 0 4410.8 809.261 4
-2 -26 0 4209.65 1117.83 1
28 -2 0 3743.63 997.86 3
-26 28 3 11995.9 1323.2 4
28 -2 3 10993.7 1451.71 3
-26 28 3 9650.31 1038.84 2
-2 -26 3 10863.5 1434.66 1
-26 28 6 5667.66 1295.27 4
-26 28 6 2869.18 992.716 2
28 -2 6 4703.03 1229.72 3
-2 -26 6 4080.99 1254.56 1
-1 -27 -4 3751.77 1184.12 1
28 -1 -4 5537.28 1131.71 3
-27 28 -1 14986.4 1078.73 4
-1 -27 -1 13197.8 1583.45 1
28 -1 -1 15717.1 1492.03 3
-1 -27 2 6216.73 1239.03 1
-27 28 2 4699.71 943.573 4
28 -1 2 3793.96 1022.07 3
-27 28 2 3672.89 802.591 2
-27 28 5 17205.6 1694 4
-27 28 5 15127.1 1407.47 2
28 -1 5 19064.5 1819.44 3
-1 -27 5 14486.3 1738.86 1
0 -28 -5 -324.721 1082.11 1
28 0 -5 98.3458 850.063 3
0 -28 -2 2168.38 1051 1
28 0 -2 3176.13 1050.9 3
-28 28 1 130.996 547.54 2
-28 28 1 -480.924 662.666 4
0 -28 1 -36.2261 949.815 1
28 0 1 206.04 923.414 3
0 -28 4 2179.74 1160.17 1
-28 28 4 181.764 864.626 4
28 0 4 894.697 1008.74 3
-28 28 4 988.684 751.228 2
28 1 -3 6961.64 1238.99 3
1 -29 -3 7118.43 1427.29 1
-29 28 0 1713.87 655.911 2
-29 28 0 1989.77 670.541 4
1 -29 0 2045.11 1139.24 1
28 1 0 2871.67 1074.68 3
1 -29 3 5075.44 1274.59 1
-29 28 3 4280.62 1027.85 4
28 1 3 4630.18 1208.49 3
-29 28 3 5154.5 923.625 2
2 -30 -4 51.9186 1146.88 1
28 2 -4 4441.11 1197.47 3
-30 28 -1 6966.59 848.735 4
28 2 -1 7216.52 1279.82 3
2 -30 -1 4928.45 1359.49 1
2 -30 2 393.512 1103.9 1
-30 28 2 1664.86 871.81 4
28 2 2 3159.11 1142.84 3
-30 28 2 114.086 723.237 2
2 -30 5 6435.81 1411.04 1
-30 28 5 7330.17 1310.33 4
28 2 5 6145.69 1431.4 3
-30 28 5 4955.19 1089.02 2
3 -31 -2 64.8045 1055.08 1
28 3 -2 -386.566 953.295 3
-31 28 1 496.612 679.915 2
-31 28 1 410.014 694.586 4
3 -31 1 1201.88 1054.41 1
28 3 1 566.86 994.863 3
3 -31 4 3087.16 1256.47 1
-31 28 4 1876.26 985.639 4
28 3 4 793.526 1008.73 3
-31 28 4 1189.02 840.867 2
4 -32 -3 2266.71 1274.68 1
28 4 -3 1820.95 1164.08 3
-32 28 0 -28.1875 721.152 2
-32 28 0 672.172 664.446 4
4 -32 0 -549.588 1139.54 1
28 4 0 636.376 984.158 3
4 -32 3 2619.33 1293.66 1
-32 28 3 2473.45 1038.14 4
28 4 3 3738.57 1373.75 3
-32 28 3 2454.64 944.295 2
28 5 -1 3601.67 1195.14 3
5 -33 -1 4432.06 1380.04 1
-33 28 2 1922.27 863.187 2
-33 28 2 2722.39 968.542 4
5 -33 2 458.596 1093.86 1
28 5 2 3847.6 1271.42 3
-34 28 1 675.439 845.405 2
-34 28 1 1737.24 808.769 4
6 -34 1 876.792 1310.14 1
28 6 1 2940.51 1216.8 3
4 29 -1 1572.32 1520.79 3
29 -33 -1 2934.31 1493.82 1
29 -33 2 628.53 1289.27 1
4 29 2 -1930.86 1494.78 3
4 29 2 404.457 892.243 2
-33 4 2 1320.36 1058.06 4
3 29 -2 18870.2 2345.61 3
29 -32 -2 11298.1 1901.62 1
3 29 1 56.8301 1463.57 3
3 29 1 1147.26 844.692 2
29 -32 1 1061.6 1246.3 1
2 29 -3 4032.48 1665.55 3
29 -31 -3 2422.61 973.233 3
29 -31 -3 2658.1 1405.75 1
2 29 0 2929.2 1530.43 3
29 -31 0 2223.42 1231.49 1
2 29 3 1873.82 1407.91 3
-31 2 3 1696.36 1157.54 2
2 29 3 2029.14 1190.89 4
2 29 3 2637.65 1068.06 2
-31 2 3 3544.72 1179.78 4
29 -31 3 1876.63 1280.21 1
29 -30 -4 419.553 779.843 3
29 -30 -4 -704.193 1259.11 1
1 29 -1 5697.06 1720.95 3
29 -30 -1 5356.66 1166.73 3
29 -30 -1 6085.94 1440.7 1
1 29 2 472.063 1314.14 3
29 -30 2 1551.35 1248.2 1
1 29 2 1887.28 1133.07 4
1 29 2 1281.85 868.127 2
29 -30 2 1809.19 1038.75 3
29 -29 -5 861.961 849.795 3
29 -29 -5 2114.8 1410.45 1
0 29 -2 8231.85 1814.86 3
29 -29 -2 7765.43 1618.53 1
29 -29 -2 8137.87 1237.39 3
0 29 1 -257.47 1332.82 3
0 29 1 460.016 755.632 2
29 -29 1 -818.294 1129.02 1
29 -29 1 1146.43 991.197 3
-29 0 4 15769.8 1770.39 2
0 29 4 15207.8 2020.85 3
0 29 4 11724 1696.83 4
0 29 4 15875.4 1600.67 2
29 -29 4 13019.2 1762.57 1
-29 0 4 13272.6 1559.22 4
29 -29 4 19983.6 1977.5 3
29 -28 -3 2678.59 1391.11 1
29 -28 -3 3708.01 990.74 3
-1 29 0 2564.36 1463.91 3
29 -28 0 1980.45 952.704 3
29 -28 0 1271.82 1059.55 1
-1 29 3 2932.08 1458.65 3
-28 -1 3 4722.5 1228.63 2
-1 29 3 2729.65 1142.46 4
-1 29 3 5496.34 1079.56 2
-28 -1 3 3834.04 1103.98 4
29 -28 3 5361.8 1290.99 3
29 -28 3 4472.94 1299.66 1
29 -27 -4 2408.23 1327.5 1
29 -27 -4 589.331 767.705 3
29 -27 -1 1682.83 1159.51 1
-2 29 -1 3561.72 1488.59 3
29 -27 -1 2536.35 924.077 3
-2 29 2 2559.56 1430.37 3
-2 29 2 954.626 892.132 4
29 -27 2 -251.275 1005.07 1
-2 29 2 383.431 722.127 2
29 -27 2 -52.3546 839.719 3
-27 -2 5 1724.92 1092.3 2
-2 29 5 -86.1909 1302.36 3
-2 29 5 3187.83 1087.35 4
-2 29 5 2860.53 1033.84 2
-27 -2 5 2101.72 888.815 1
-27 -2 5 2554.91 1036.52 4
29 -27 5 2653.31 1173.09 3
29 -27 5 3348.22 1206.58 1
29 -26 -5 4577.9 1518.61 1
29 -26 -5 3539.03 884.461 3
29 -26 -2 17960.1 1504.96 3
29 -26 -2 17269.5 1859.3 1
-3 29 1 1904.46 1388.39 3
-3 29 1 -89.408 880.477 4
-3 29 1 1528.58 692.108 2
29 -26 1 1278.03 1095.88 1
29 -26 1 1227.19 895.507 3
-26 -3 4 8990.88 1371.77 2
-3 29 4 9954.38 1636.47 3
-3 29 4 10202.3 1498.3 4
-3 29 4 12125.9 1369.68 2
-26 -3 4 10623.1 1179.74 1
-26 -3 4 10799.9 1385.61 4
29 -26 4 10421.6 1457.41 3
29 -26 4 6741.02 1303.39 1
29 -25 -3 8854.44 1559.5 1
29 -25 -3 7933.48 1083.88 3
-4 29 0 1756.31 886.98 4
29 -25 0 2594.46 912.418 3
29 -25 0 3542.29 1182.51 1
29 -25 3 7029.82 1273.64 1
-4 29 3 6639.33 1500.69 3
-25 -4 3 6933.99 1324.85 2
-4 29 3 6136.08 1178.74 4
-4 29 3 6736.44 1091.13 2
29 -25 3 9250.06 1365.78 3
-25 -4 6 1735.89 1014.94 2
-4 29 6 401.776 1181.47 3
-4 29 6 829.839 1084.5 4
-25 -4 6 3797.25 1102.33 1
-4 29 6 3176.31 1104.75 2
-25 -4 6 3875.13 1125.14 4
29 -25 6 873.536 1028.91 1
29 -25 6 1897.83 1101.39 3
29 -24 -4 3808.26 1226.24 1
29 -24 -4 3142.99 842.787 3
-5 29 -1 295.637 747.836 4
29 -24 -1 -610.191 956.522 1
29 -24 -1 -975.402 787.102 3
-5 29 2 3510.56 1025.7 4
-5 29 2 4839.83 847.233 2
29 -24 2 3167.7 1091.71 1
29 -24 2 4241.31 1033.52 3
-24 -5 5 1389.01 912.13 2
-5 29 5 1509.17 985.627 4
-5 29 5 1504.63 875.696 2
-24 -5 5 37.2638 747.035 1
-24 -5 5 779.888 945.049 4
29 -24 5 1765.48 984.093 3
29 -24 5 1376.86 929.093 1
29 -23 -5 3421.46 799.845 3
29 -23 -2 19741.7 1876.72 1
-6 29 -2 20250 1502.71 4
29 -23 -2 19512.2 1498.27 3
-6 29 1 7068.42 1156.15 4
-6 29 1 7737.66 812.784 2
29 -23 1 7449.06 1176.5 3
29 -23 1 6056.12 1151.17 1
-23 -6 4 10343.8 1393.11 2
-6 29 4 12055.3 1461.86 4
-6 29 4 11368.7 1254.34 2
-23 -6 4 9624.31 1070.38 1
29 -23 4 8991.85 1283.38 1
29 -23 4 10061.8 1333.11 3
-23 -6 7 2481.21 1066.39 2
-6 29 7 3907.29 1324.44 4
-23 -6 7 6525.72 1269.76 1
-6 29 7 5548 1293.17 2
29 -23 7 4540.89 1138.67 1
-23 -6 7 5611.79 1274.29 4
29 -23 7 5432.5 1244.83 3
-7 29 -3 4771.99 879.518 4
29 -22 -3 3640.9 1233.12 1
-7 29 0 9024.5 1155.68 4
29 -22 0 6677.07 1179.79 1
29 -22 0 10486.4 1220.21 3
-7 29 3 9252.02 1297.83 4
-7 29 3 10967.7 1118.99 2
-22 -7 3 13043.9 1066.31 1
29 -22 3 10100 1344.3 3
29 -22 3 9508.67 1253.54 1
-22 -7 6 14320.8 1512.32 2
-7 29 6 15537 1710.78 4
-22 -7 6 14155.8 1490.37 1
29 -22 6 11265.4 1399.57 1
-7 29 6 12394.4 1470.13 2
-22 -7 6 15199.4 1676.39 4
29 -22 6 14070.3 1630.29 3
-8 29 -4 1658.78 663.406 4
29 -21 -4 1110.7 1034.17 1
29 -21 -4 1659.52 755.112 3
29 -21 -1 -67.6343 864.958 1
-8 29 -1 1129.2 731.337 4
29 -21 -1 1548.37 791.555 3
-8 29 2 5543.56 1082.11 4
-8 29 2 4495.22 746.123 2
29 -21 2 4937.18 1071.06 1
-21 -8 2 4845.54 690.26 1
29 -21 2 5757.13 1082.13 3
-21 -8 5 73.4416 932.327 2
-8 29 5 -1083.51 963.153 4
-8 29 5 878.121 801.907 2
-21 -8 5 -415.984 733.591 1
29 -21 5 -225.205 875.241 3
29 -21 5 525.497 868.407 1
29 -20 -5 6671.77 893.004 3
-9 29 -2 11950.1 1113.33 4
29 -20 -2 12930.6 1533.44 1
29 -20 -2 14983.1 1318.42 3
-9 29 1 13452 1311.8 4
29 -20 1 12993.9 1337.89 1
-9 29 1 13295.7 881.242 2
29 -20 1 13186 1332.27 3
-20 -9 1 13085.4 831.63 1
-20 -9 4 13718.5 1473.91 2
-9 29 4 16490.1 1566.7 4
-9 29 4 15402.6 1273.53 2
-20 -9 4 17431.8 1360.6 1
29 -20 4 14325.1 1475.86 3
29 -20 4 12628.4 1266.68 1
-20 -9 7 4498.03 1168.81 2
-9 29 7 9645.45 1466.36 4
-20 -9 7 7657.59 1297.94 1
-9 29 7 8112.04 1349.99 2
-20 -9 7 5835.36 1240.02 4
29 -20 7 6940.91 1300.74 3
-10 29 -3 4469.45 778.892 4
29 -19 -3 7086.55 998.809 3
29 -19 -3 6491.17 1271.75 1
-10 29 0 42609.4 1973.78 4
29 -19 0 44901.5 2132.8 3
29 -19 0 40639.9 2104.52 1
-10 29 3 10018.8 1332.07 4
-10 29 3 9789.47 987.44 2
-19 -10 3 7891.33 921.564 1
29 -19 3 8071.86 1189.78 3
29 -19 3 5871.95 976.408 1
-19 -10 6 16283 1599.11 2
-10 29 6 19326.1 1781.31 4
-19 -10 6 19919.9 1700.64 1
-10 29 6 21576 1673.46 2
29 -19 6 20746.7 1800.5 3
-11 29 -4 3626.08 674.307 4
29 -18 -4 3227.42 745.755 3
-11 29 -1 6952.42 917.446 4
29 -18 -1 6126.7 1161.91 1
29 -18 -1 6841.06 1034.04 3
-11 29 2 3066.94 937.305 4
29 -18 2 4763.52 906.248 1
-11 29 2 5517.29 725.94 2
29 -18 2 4758.56 1000.56 3
-18 -11 2 5136.99 760.874 1
-18 -11 5 -604.589 837.995 2
-11 29 5 759.997 894.834 4
-11 29 5 363.842 758.493 2
-18 -11 5 414.223 726.673 1
29 -18 5 -368.385 869.873 3
29 -18 5 -444.048 680.614 1
29 -17 -5 6486.39 883.969 3
29 -17 -2 5139.67 1114.2 1
-12 29 -2 5611.69 857.622 4
29 -17 -2 5431.46 965.89 3
-12 29 1 14143.3 1268.08 4
-12 29 1 13037 770.483 2
29 -17 1 13979.4 1366.6 3
29 -17 1 10501 1172.56 1
-17 -12 1 11292.3 921.02 1
-12 29 4 5202.08 1109.29 4
29 -17 4 4090.25 809.194 1
-12 29 4 6270.78 913.677 2
-17 -12 4 6011.44 1018.09 1
29 -17 4 4434.78 1057.79 3
-17 -12 7 1573.3 923.422 2
-12 29 7 6804.91 1317.78 4
-17 -12 7 3069.83 1087.4 1
-12 29 7 5528.39 1169.55 2
29 -17 7 1599.44 1020.27 3
29 -16 -6 39952.9 1683.21 3
-13 29 -3 3748.33 687.243 4
29 -16 -3 3269.62 786.896 3
-16 -13 0 27901.2 1273.43 1
-13 29 0 34693 1746.8 4
29 -16 0 37673.1 1949.91 3
29 -16 0 30278.2 1731.81 1
-13 29 3 417.341 794.763 4
-13 29 3 526.786 548.539 2
29 -16 3 1598.35 906.922 3
-16 -13 3 406.179 706.872 1
29 -16 3 738.778 605.73 1
-16 -13 6 27659.1 1842.32 2
-13 29 6 36682.5 2343.52 4
-16 -13 6 30233.1 1994.25 1
-13 29 6 34283.8 1958.41 2
29 -16 6 33028.3 2146.39 3
-14 29 -4 1111.15 476.243 4
29 -15 -4 2039.67 691.628 3
-14 29 -1 1024.04 597.34 4
29 -15 -1 1452.18 762.454 3
-15 -14 -1 645.474 514.229 1
29 -15 2 2287.17 683.58 1
-14 29 2 2233.11 826.624 4
-14 29 2 3030.22 579.37 2
29 -15 2 1659.34 875.959 3
-15 -14 2 1958.23 685.942 1
-14 29 5 4607.68 1164.42 4
-14 29 5 2959.58 855.428 2
-15 -14 5 3805.09 947.687 1
29 -15 5 2710.37 1010.06 3
-15 -14 8 1735.15 865.678 2
-14 29 8 2754.04 1155.31 4
-15 -14 8 2818.11 1141.65 1
-14 29 8 2918.69 1124.7 2
29 -15 8 506.38 1023.03 3
29 -14 -5 3474.82 734.685 3
-15 29 -2 1082.51 552.429 4
-14 -15 -2 317.7 483.564 1
29 -14 -2 831.377 711.915 3
-14 -15 1 384.7 547.539 1
-15 29 1 1088.51 751.529 4
29 -14 1 1469.49 664.333 1
-15 29 1 728.696 374.239 2
29 -14 1 675.957 760.283 3
-15 29 4 -1072.17 902.508 4
-15 29 4 796.905 651.958 2
29 -14 4 -3.03285 797.467 3
-14 -15 4 -169.048 752.157 1
-14 -15 7 2422.64 880.181 2
-15 29 7 3705.54 1190.97 4
-15 29 7 6197.73 1173.15 2
-14 -15 7 6019.42 1258.57 1
29 -14 7 6347.26 1259.39 3
29 -13 -6 21254 1360.17 3
-16 29 -3 4061.09 646.617 4
29 -13 -3 4868.29 912.002 3
-13 -16 0 25586.6 1383.78 1
-16 29 0 27134.4 1503.07 4
29 -13 0 29954 1813.48 3
-16 29 3 7770.35 1175.78 4
-16 29 3 9162.98 913.05 2
29 -13 3 9914.4 1352.81 3
-13 -16 3 6295.28 1012.14 1
-13 -16 6 34136 1937.7 2
-16 29 6 44145.5 2492.4 4
-13 -16 6 38974.9 2301.56 1
-16 29 6 40838.8 2138.92 2
29 -13 6 39559 2326.64 3
29 -12 -4 7115.65 1009.06 3
-17 29 -1 9502.72 943.55 4
-12 -17 -1 8537.18 935.476 1
29 -12 -1 9389.99 1176.87 3
-17 29 2 9876.14 1179.24 4
-17 29 2 10694.1 824.089 2
29 -12 2 9645.48 1272.8 3
-12 -17 2 8368.77 1031.4 1
-17 29 5 6734.15 1213.9 4
-17 29 5 5133.72 956.742 2
-12 -17 5 6273 1161.06 1
29 -12 5 5284.07 1155.99 3
-12 -17 8 1318.08 777.662 2
-17 29 8 2187.59 1182.8 4
-17 29 8 4082.88 1137.26 2
-12 -17 8 2799.57 1212.55 1
29 -12 8 3441 1163.95 3
29 -11 -5 -452.243 681.51 3
-18 29 -2 3613.65 645.108 4
-11 -18 -2 4902.77 849.66 1
29 -11 -2 4370.16 883.78 3
-18 29 1 7829.14 1025.5 4
-18 29 1 6242.19 599.291 2
-11 -18 1 6143.82 896.326 1
-18 29 4 4392.11 1046.19 4
-18 29 4 3396.48 784.09 2
29 -11 4 3624.27 1046.13 3
-11 -18 4 1904.54 882.092 1
-11 -18 7 1506.21 779.487 2
-18 29 7 2744 1118.03 4
-18 29 7 1858.65 947.431 2
-11 -18 7 2482.79 1096.86 1
29 -11 7 2330.67 1019.94 3
29 -10 -6 12802.9 1165.05 3
-10 -19 -3 11002.3 1142.93 1
-19 29 -3 10968.9 792.059 4
29 -10 -3 11934.1 1198.33 3
-19 29 0 39774.8 1764.65 4
29 -10 0 42368.5 2150.8 3
-19 29 3 10001 1253.13 4
-19 29 3 7659.85 861.915 2
29 -10 3 7639.02 1242.56 3
-10 -19 3 9624.47 1196.41 1
-19 29 6 23373.5 2002.55 4
-19 29 6 22800.4 1669.96 2
-10 -19 6 22387 1901.47 1
29 -10 6 25098.5 1948.01 3
-9 -20 -4 21673.1 1524.34 1
29 -9 -4 22648.4 1484.1 3
-20 29 -1 11886.1 1007.92 4
-9 -20 -1 8449.68 1121.1 1
29 -9 -1 11830.6 1254.1 3
-20 29 2 16981.4 1043.57 2
29 -9 2 17939.6 1634.59 3
-9 -20 2 15162.6 1331.76 1
-20 29 5 10587.2 1416.09 4
-20 29 5 9030.75 1135.2 2
-9 -20 5 8870.46 1308.58 1
29 -9 5 8843 1358.35 3
29 -8 -5 330.332 711.153 3
-8 -21 -5 1728.32 945.118 1
-8 -21 -2 2539.77 863.134 1
-21 29 -2 4159.3 658.174 4
29 -8 -2 3291.18 850.839 3
-8 -21 1 2060.11 838.842 1
-21 29 1 1441.65 697.91 4
29 -8 1 847.792 839.684 3
-21 29 1 1878.26 501.253 2
-21 29 4 5406.95 1161.51 4
-21 29 4 5163.52 839.936 2
29 -8 4 5190.01 1170.68 3
-8 -21 4 3338.38 1020.07 1
-21 29 7 970.046 1076.04 4
-21 29 7 546.103 903.702 2
-8 -21 7 1566.01 1116.58 1
29 -8 7 2073.88 1068.14 3
29 -7 -6 9497.56 1101.98 3
-7 -22 -6 9417.57 1321.69 1
29 -7 -3 8911.12 1108.44 3
-7 -22 -3 8999.63 1171.72 1
-7 -22 0 8114.97 1140.04 1
29 -7 0 9290.63 1245.9 3
-22 29 0 7127.95 623.057 2
-22 29 3 9022.42 1201.47 4
-22 29 3 7480.24 904.299 2
29 -7 3 7617.61 1233.31 3
-7 -22 3 7607.71 1180.78 1
-22 29 6 7031.24 1332.05 4
-22 29 6 3917.45 943.895 2
29 -7 6 3669.12 1118.66 3
-7 -22 6 3229.95 1120.91 1
-6 -23 -4 13726.1 1434.1 1
29 -6 -4 17155.7 1409.88 3
-23 29 -1 4883.36 745.349 4
-6 -23 -1 4393.16 995.823 1
29 -6 -1 4008.61 990.025 3
-23 29 2 29264.8 1748.68 4
29 -6 2 25774.2 1855.5 3
-23 29 2 23875.9 1267.65 2
-6 -23 2 20581.2 1629.52 1
-23 29 5 1416.79 998.295 4
-23 29 5 437.887 745.452 2
29 -6 5 -1096.06 1010.75 3
-6 -23 5 1016.26 931.144 1
-5 -24 -5 -328.985 909.611 1
29 -5 -5 463.596 735.232 3
-5 -24 -2 3022.27 949.967 1
-24 29 -2 2457.13 555.525 4
29 -5 -2 4412.17 1000.88 3
-5 -24 1 708.325 811.95 1
-24 29 1 139.447 687.858 4
29 -5 1 65.1738 789.018 3
-24 29 1 1189.8 558.43 2
-24 29 4 5255.88 1156.16 4
-24 29 4 5113.37 883.999 2
29 -5 4 5167.81 1159.09 3
-5 -24 4 4124.39 1098.35 1
-24 29 7 458.438 1103.62 4
-24 29 7 -1481.92 966.561 2
-5 -24 7 264.479 1025.69 1
29 -5 7 1850.17 1067.08 3
-4 -25 -6 -50.3052 1054.2 1
29 -4 -6 2649.53 931.777 3
-4 -25 -3 4984.11 1127.93 1
29 -4 -3 6905.56 1123.5 3
-25 29 0 814.129 490.764 2
-25 29 0 1798.38 716.901 4
-4 -25 0 2872.6 1005.75 1
29 -4 0 2603.33 962.896 3
-25 29 3 12419.9 1350.57 4
-25 29 3 13381.3 1114.07 2
29 -4 3 14944.1 1599.95 3
-4 -25 3 12576.7 1493.38 1
-25 29 6 105.281 938.174 4
-25 29 6 953.469 842.196 2
29 -4 6 992.659 1008.19 3
-4 -25 6 978.996 1007.69 1
-3 -26 -4 11096.6 1517.97 1
29 -3 -4 16421.3 1481.8 3
-26 29 -1 456.18 569.039 4
-3 -26 -1 -99.0894 937.726 1
29 -3 -1 330.485 881.469 3
-3 -26 2 17842 1650.53 1
-26 29 2 23584 1620.39 4
29 -3 2 19831.6 1736.6 3
-26 29 2 18815.8 1258.93 2
-26 29 5 75.0398 934.894 4
-26 29 5 522.761 810.438 2
29 -3 5 -170.482 1005.03 3
-3 -26 5 -299.754 1137.8 1
-2 -27 -5 2403.41 1250.52 1
29 -2 -5 86.8415 845.68 3
-2 -27 -2 3189.15 1118.35 1
29 -2 -2 2035.88 959.287 3
-27 29 1 1818.97 661.094 2
-27 29 1 2692.89 800.717 4
-2 -27 1 1174.1 993.549 1
29 -2 1 2701.23 1050.43 3
-2 -27 4 651.533 1048.02 1
-27 29 4 1583.52 893.863 4
29 -2 4 2277.77 1155.44 3
-27 29 4 1717.53 782.229 2
29 -1 -3 7069.05 1184.26 3
-1 -28 -3 7556.09 1404.23 1
-28 29 0 2414.05 751.262 4
-1 -28 0 1741.12 1113.17 1
29 -1 0 3498.54 1119.08 3
-28 29 3 7507.47 1189.86 4
-28 29 3 6788.58 971.119 2
29 -1 3 6052.35 1240.3 3
-1 -28 3 7646.37 1432.91 1
0 -29 -4 10386.6 1647.59 1
29 0 -4 14117.1 1580.28 3
-29 29 -1 -212.267 573.081 4
0 -29 -1 -105.706 1027.51 1
29 0 -1 -13.2105 962.187 3
0 -29 2 6740.3 1422.98 1
-29 29 2 7224.05 1140.22 4
29 0 2 5886.75 1228.48 3
-29 29 2 5243.35 894.57 2
0 -29 5 2145.78 1149.21 1
-29 29 5 283.65 931.956 4
-29 29 5 1756.66 895.687 2
29 0 5 1579.98 1135.08 3
1 -30 -2 1148.19 1113.43 1
29 1 -2 479.606 950.008 3
-30 29 1 1523.3 717.396 2
-30 29 1 3860.76 867.498 4
1 -30 1 3373.47 1259.37 1
29 1 1 2912.92 1074.83 3
1 -30 4 1277.1 1276.44 1
-30 29 4 2445.35 1032.97 4
29 1 4 3365.75 1187.87 3
-30 29 4 1942.28 827.055 2
2 -31 -3 361.251 1134.65 1
29 2 -3 1130.41 1054.03 3
-31 29 0 3716.37 816.441 4
2 -31 0 4407.78 1316 1
29 2 0 1219.12 1042.54 3
2 -31 3 3763.9 1356.83 1
-31 29 3 3433.54 1050.78 4
29 2 3 6375.1 1449.3 3
-31 29 3 4662.31 976.179 2
29 3 -1 -435.829 1006 3
3 -32 -1 -444.423 1124.21 1
-32 29 2 11051.9 1331.15 4
3 -32 2 6805.89 1479.75 1
29 3 2 11441.6 1680.65 3
-32 29 2 8662.12 1180.83 2
4 -33 -2 1132.51 1159.72 1
29 4 -2 1827.59 1105.19 3
-33 29 1 -660.567 730.112 2
-33 29 1 388.616 764.721 4
4 -33 1 -12.8075 1195.49 1
29 4 1 -1515.75 1123.01 3
3 30 0 564.875 1474.14 3
30 -33 0 1441.45 1263.85 1
2 30 -1 330.617 1460.04 3
30 -32 -1 -149.165 921.385 3
30 -32 -1 1178.62 1329.89 1
2 30 2 2481.67 1634.22 3
30 -32 2 -142.445 1204.28 1
2 30 2 1440.41 932.182 2
1 30 -2 641.519 1481.75 3
30 -31 -2 1145.17 1250.13 1
30 -31 -2 3013.15 1070.19 3
1 30 1 9927.88 1853.03 3
30 -31 1 7489.56 1603.93 1
30 -31 1 7090.45 1407.92 3
30 -30 -3 -116.819 1241.21 1
30 -30 -3 1548.33 923.575 3
30 -30 0 8918.11 1586.28 1
0 30 0 6708.96 1736.21 3
30 -30 0 7972.83 1280.33 3
30 -30 3 -173.21 1095.82 1
0 30 3 -1877.95 1466.68 3
0 30 3 669.994 1061.68 4
0 30 3 1864.24 968.557 2
-30 0 3 -111.496 992.596 4
30 -30 3 2333.7 1099.93 3
30 -29 -4 1447.9 1355.97 1
30 -29 -4 2278.26 892.329 3
30 -29 -1 2138.79 1320.18 1
-1 30 -1 5742.34 1623.25 3
30 -29 -1 2692.26 980.685 3
-1 30 2 255.78 1356.11 3
-1 30 2 1423.44 1075.49 4
30 -29 2 1746.53 1151.7 1
-1 30 2 1617.74 824.808 2
30 -29 2 -355.382 956.182 3
30 -28 -5 4524.45 1584.73 1
30 -28 -2 3804.46 1005.5 3
30 -28 -2 855.642 1198.05 1
-2 30 1 8245.67 1738.15 3
-2 30 1 5982.37 1283.53 4
30 -28 1 4975.63 1343.93 1
30 -28 1 7548.66 1229.89 3
-28 -2 4 4065.31 1196.7 2
-2 30 4 5948.89 1519.88 3
-2 30 4 5339.21 1357.96 4
-2 30 4 5459.51 1220.94 2
-28 -2 4 4620.77 1311.2 4
30 -28 4 5543.28 1385.07 3
30 -28 4 3160.19 1230.7 1
30 -27 -3 4599.8 989.989 3
30 -27 -3 1738.16 1233.28 1
-3 30 0 5325.52 1159.85 4
30 -27 0 5205.29 1150.42 3
30 -27 0 4239.14 1262.97 1
30 -27 3 335.065 984.672 1
-3 30 3 2760.41 1392.4 3
-3 30 3 447.295 1001.18 4
-3 30 3 -721.754 755.108 2
30 -27 3 1125.96 1047.48 3
30 -26 -4 3405.37 911.368 3
30 -26 -4 3723.35 1363.6 1
-4 30 -1 3160.43 1024.24 4
30 -26 -1 5881.75 1352.22 1
30 -26 -1 2945.72 922.061 3
-4 30 2 768.71 1243.57 3
-4 30 2 3638.59 1131.49 4
-4 30 2 2549.75 781.51 2
30 -26 2 1860.17 1088.41 1
30 -26 2 2714.59 1032.75 3
-26 -4 5 269.627 944.059 2
-4 30 5 -580.964 1314.13 3
-4 30 5 10.1964 1015.37 4
-4 30 5 445.132 867.556 2
-26 -4 5 59.8012 823.222 1
-26 -4 5 453.747 1013.81 4
30 -26 5 1449.01 1085.77 3
30 -26 5 -388.151 1036.35 1
30 -25 -5 17677.8 1354.92 3
30 -25 -5 11965 1947.84 1
-5 30 -2 6741.43 1086.85 4
30 -25 -2 3466.09 1303.96 1
30 -25 -2 3876.18 977.9 3
-5 30 1 5247.72 1150.24 4
-5 30 1 6795.68 836.088 2
30 -25 1 5047.14 1095.93 3
30 -25 1 5483.44 1255.54 1
-25 -5 4 4344.8 1213.53 2
-5 30 4 4349.83 1254.32 4
-5 30 4 3615.71 943.199 2
30 -25 4 2833.77 1096.14 3
30 -25 4 2532.53 1061.36 1
-6 30 -3 4519.63 940.165 4
30 -24 -3 4630.11 1371.95 1
30 -24 -3 5852.07 1009.77 3
-6 30 0 7840.05 1169.01 4
30 -24 0 5963.65 1242.07 1
30 -24 3 5934.13 1181.6 1
-6 30 3 4485.79 1171.1 4
-6 30 3 5981.07 979.641 2
30 -24 3 7973.17 1313.68 3
-24 -6 6 4847.79 1178.02 2
-6 30 6 5317.78 1393.52 4
-24 -6 6 7799.2 1253 1
-6 30 6 6681.13 1282.77 2
-24 -6 6 5497.29 1298.25 4
30 -24 6 6569.41 1388.8 3
30 -24 6 4653.26 1203.61 1
30 -23 -4 -445.987 1148.98 1
-7 30 -4 -453.016 660.029 4
30 -23 -4 442.792 733.333 3
-7 30 -1 2763.59 867.627 4
30 -23 -1 1606.62 815.52 3
30 -23 -1 1486.21 1053.83 1
-7 30 2 2671.72 962.012 4
-7 30 2 2263.11 672.016 2
30 -23 2 2365.72 974.423 1
30 -23 2 2618.5 990.466 3
-23 -7 5 553.005 890.027 2
-7 30 5 2045.16 1066.49 4
-7 30 5 1726.72 941.728 2
-23 -7 5 1326.53 826.569 1
30 -23 5 716.813 939.177 3
30 -23 5 72.9699 900.209 1
30 -22 -5 6551.58 943.55 3
-8 30 -2 8395.23 1049.74 4
30 -22 -2 9432.31 1427.56 1
30 -22 -2 11345.7 1219.55 3
-8 30 1 17105.1 1472.27 4
-8 30 1 15438 965.622 2
30 -22 1 18008.2 1529.51 3
30 -22 4 2654.2 907.287 1
-22 -8 4 2179.81 963.776 2
-8 30 4 4315.73 1134.6 4
-8 30 4 4818.46 969.654 2
-22 -8 4 3995.94 877.449 1
30 -22 4 4513.45 1143.16 3
-22 -8 7 7387.91 1306.35 2
-8 30 7 7941.64 1491.31 4
-22 -8 7 6226.04 1298.7 1
-8 30 7 6292.02 1271.13 2
-22 -8 7 7009.44 1316.31 4
30 -22 7 6295.84 1371.94 3
-9 30 -3 19870 1335.78 4
30 -21 -3 20423.5 1935.55 1
30 -21 -3 24778.2 1596.31 3
-9 30 0 13703.1 1300.32 4
30 -21 0 11698 1281.3 3
30 -21 0 10822.9 1369.02 1
-9 30 3 28395.9 1962.63 4
-9 30 3 28952.2 1538.32 2
-21 -9 3 27062.6 1452.95 1
30 -21 3 28661.6 1912.97 3
30 -21 3 24525.2 1759.68 1
-21 -9 6 11839.6 1480.89 2
-9 30 6 11770.6 1612.09 4
-21 -9 6 14714.1 1530.22 1
-9 30 6 13741.1 1490.39 2
30 -21 6 16762.2 1721.86 3
-10 30 -4 192.618 570.391 4
30 -20 -4 100.785 678.064 3
30 -20 -1 488.183 844.298 1
-10 30 -1 1630.75 772.499 4
30 -20 -1 1752.2 821.801 3
-10 30 2 3290.01 963.67 4
-10 30 2 1963.96 613.443 2
30 -20 2 1851.85 947.232 3
-20 -10 2 1977.76 604.681 1
30 -20 2 1108.05 845.208 1
30 -20 5 -775.612 780.884 1
-20 -10 5 87.4722 811.697 2
-10 30 5 1678.48 1034.29 4
-10 30 5 454.422 769.135 2
-20 -10 5 1319.17 847.66 1
30 -20 5 -758.636 944.728 3
30 -19 -5 3140.63 769.8 3
-11 30 -2 3181.51 773.407 4
30 -19 -2 2606.02 1038.26 1
30 -19 -2 4479.28 935.131 3
-19 -11 1 2493.08 574.638 1
-11 30 1 2357.92 819.539 4
-11 30 1 2014.36 485.279 2
30 -19 1 1605.98 763.51 1
30 -19 1 2406.36 863.787 3
-11 30 4 7138 1223.61 4
-11 30 4 8506.78 1051.82 2
-19 -11 4 10156.6 1104.82 1
30 -19 4 8815.32 1252.27 3
30 -19 4 7101.54 1043.56 1
-19 -11 7 6500.05 1246.61 2
-11 30 7 3104.34 1146.84 4
-19 -11 7 8109.12 1381.75 1
-11 30 7 4974.88 1140.2 2
30 -19 7 4620.74 1278.52 3
-12 30 -3 22361.4 1314.8 4
30 -18 -3 27986 1668.92 3
30 -18 0 1862.42 885.344 1
-12 30 0 3785.09 851.169 4
-18 -12 0 2052.66 539.607 1
30 -18 0 3039.73 909.272 3
30 -18 3 15085.7 1258.44 1
-12 30 3 16251.1 1592.62 4
-12 30 3 20689.8 1276.45 2
-18 -12 3 16797 1243.61 1
30 -18 3 20773.7 1673.8 3
-18 -12 6 5952.29 1161.88 2
-12 30 6 8253.83 1454.52 4
-18 -12 6 8559.81 1258.06 1
-12 30 6 7228.8 1194.81 2
30 -18 6 10840.1 1434.26 3
30 -17 -4 827.739 643.358 3
-13 30 -1 3948.9 811.305 4
30 -17 -1 3192.81 909.878 3
30 -17 -1 3392.74 949.804 1
-13 30 2 696.789 803.477 4
-13 30 2 933.953 493.79 2
30 -17 2 2127.98 899.214 3
30 -17 2 1295.55 746.028 1
-17 -13 2 571.972 600.911 1
-13 30 5 -396.727 904.68 4
-13 30 5 297.535 721.327 2
-17 -13 5 375.799 831.315 1
30 -17 5 1218.99 960.746 3
30 -16 -5 516.715 635.655 3
-14 30 -2 4972.29 781.406 4
30 -16 -2 4642.63 907.393 3
-16 -14 1 1448.21 662.47 1
-14 30 1 2087.38 796.725 4
30 -16 1 1987.88 749.904 1
-14 30 1 1892.87 421.373 2
30 -16 1 3053.52 938.694 3
-14 30 4 7520.09 1213.41 4
-14 30 4 5318.93 868.524 2
-16 -14 4 6673.32 996.565 1
30 -16 4 7209.09 1240.05 3
-16 -14 7 2260.1 930.948 2
-14 30 7 1657.86 1049.73 4
-14 30 7 1106.58 941.657 2
-16 -14 7 2002.98 1017.56 1
30 -16 7 3367.49 1127.58 3
30 -15 -6 5383.69 842.174 3
-15 30 -3 22673.3 1224.89 4
30 -15 -3 28187.9 1696.46 3
-15 30 0 4944.45 904.11 4
-15 -15 0 3185 745.36 1
30 -15 0 3571.61 907.216 3
-15 30 3 21172.7 1668.2 4
-15 30 3 20815 1271.43 2
30 -15 3 22832.3 1773.06 3
-15 -15 3 21132.8 1431.76 1
-15 -15 6 9223.74 1263.77 2
-15 30 6 10444.6 1460.19 4
-15 30 6 12606 1371.48 2
-15 -15 6 9722.75 1383.29 1
30 -15 6 13017.5 1562.42 3
30 -14 -4 3773.66 857.656 3
-16 30 -1 5778.64 841.917 4
30 -14 -1 4130.86 945.631 3
-14 -16 -1 3231.67 727.478 1
-16 30 2 1260.08 815.218 4
-16 30 2 1416.53 499.407 2
30 -14 2 3013.85 941.407 3
-14 -16 2 1300.02 636.102 1
-16 30 5 764.687 911.824 4
-16 30 5 -891.168 719.959 2
-14 -16 5 -280.011 844.691 1
30 -14 5 1258.3 978.365 3
30 -13 -5 1829.54 704.487 3
-17 30 -2 3709.87 706.447 4
-13 -17 -2 1982.53 653.866 1
30 -13 -2 4903.76 940.741 3
-13 -17 1 969.157 682.36 1
-17 30 1 1611.78 766.472 4
30 -13 1 1687.23 839.958 3
-17 30 1 840.664 381.399 2
-17 30 4 2952.8 975.29 4
-17 30 4 4104.19 827.967 2
30 -13 4 3190.27 953.311 3
-13 -17 4 3811.38 932.778 1
-13 -17 7 2926.45 892.261 2
-17 30 7 2319.04 1197.23 4
-17 30 7 811.536 859.864 2
-13 -17 7 4050.47 1245.7 1
30 -13 7 2392.39 1113.32 3
30 -12 -6 1089.8 704.932 3
-18 30 -3 25711.2 1184.28 4
-12 -18 -3 22527.4 1364.16 1
-18 30 0 2427.18 736.091 4
-12 -18 0 2233.51 785.751 1
30 -12 0 2440.76 930.224 3
-18 30 3 25270.4 1763.56 4
-18 30 3 23949.9 1326.85 2
30 -12 3 26857.2 1894.04 3
-12 -18 3 24060.7 1621.71 1
-18 30 6 6902.91 1279.97 4
-18 30 6 7976.59 1196.47 2
-12 -18 6 6787.34 1340.58 1
30 -12 6 6044.3 1297.19 3
30 -11 -4 6768.24 1070.33 3
-19 30 -1 6277.7 883.196 4
-11 -19 -1 5585.59 941.756 1
30 -11 -1 7577.08 1141.08 3
-11 -19 2 1304.23 778.591 1
-19 30 2 2902.61 867.505 4
-19 30 2 2529.14 590.132 2
30 -11 2 2489.46 958.146 3
-19 30 5 7699.98 1318.74 4
-19 30 5 9580.09 1165.2 2
-11 -19 5 7588.18 1243.58 1
30 -11 5 8565.34 1377.24 3
30 -10 -5 635.05 670.68 3
-10 -20 -2 3691.49 869.457 1
-20 30 -2 6111.53 744.91 4
30 -10 -2 6432.48 1050.88 3
-10 -20 1 273.82 742.31 1
-20 30 1 251.891 651.686 4
30 -10 1 247.343 785.373 3
-20 30 1 492.388 398.038 2
-20 30 4 981.579 843.756 4
-20 30 4 1203.78 681.57 2
30 -10 4 1771.42 991.16 3
-10 -20 4 2544.73 960.166 1
-20 30 7 473.789 1092.4 4
-20 30 7 433.666 883.071 2
-10 -20 7 -357.198 1021.03 1
30 -10 7 1426.25 1091.77 3
30 -9 -6 6641.28 1028.47 3
-9 -21 -3 20381.4 1559.11 1
30 -9 -3 20469 1526 3
-9 -21 0 7643.08 1115.47 1
-21 30 0 11771.2 1098.96 4
30 -9 0 10391.8 1276.7 3
-21 30 3 23436.2 1709.41 4
-21 30 3 19238.5 1257.57 2
30 -9 3 21605.1 1819.01 3
-9 -21 3 19375.4 1559.88 1
-21 30 6 4372.74 1212.88 4
-21 30 6 3863.99 971.868 2
30 -9 6 4732.64 1179.8 3
-9 -21 6 4096.91 1169.96 1
-8 -22 -4 1364.97 831.458 1
30 -8 -4 2066.73 866.795 3
-22 30 -1 16450.5 1163.98 4
-8 -22 -1 13519.2 1334.69 1
-22 30 2 10408 1197.15 4
30 -8 2 10838.7 1385.34 3
-22 30 2 10019 867.686 2
-22 30 5 10422.8 1458.29 4
-22 30 5 10407.6 1209.22 2
30 -8 5 11211.1 1456.92 3
-7 -23 -5 1292.38 960.088 1
30 -7 -5 1103.66 787.768 3
-7 -23 -2 -246.263 771.285 1
-23 30 -2 797.226 506.972 4
30 -7 -2 109.825 777.969 3
-7 -23 1 1204.46 851.75 1
-23 30 1 1014.19 731.645 4
30 -7 1 2037.4 959.458 3
-23 30 1 1216.05 489.776 2
-23 30 4 1523.28 907.825 4
-23 30 4 2639.89 787.81 2
30 -7 4 2500.9 1034.04 3
-7 -23 4 619.375 902.721 1
30 -6 -6 5679.26 1043.59 3
-6 -24 -3 4006.37 1093.42 1
30 -6 -3 4520.23 1041.61 3
-6 -24 0 7482.45 1198.16 1
-24 30 0 7171.63 933.485 4
30 -6 0 7122.44 1183.49 3
-6 -24 3 2419.2 1030.76 1
-24 30 3 2366.2 900.886 4
30 -6 3 1498.38 1055.16 3
-24 30 3 1948.64 692.404 2
-24 30 6 814.566 980.631 4
-24 30 6 2604.09 949.647 2
30 -6 6 2815.94 1101.38 3
-6 -24 6 3359.14 1185.87 1
-5 -25 -4 -209.679 960.524 1
30 -5 -4 1666.17 895.904 3
-25 30 -1 7259.02 877.327 4
-5 -25 -1 4444.88 1149.8 1
30 -5 -1 7212.56 1183.68 3
-5 -25 2 2956.64 1042.17 1
-25 30 2 3516.19 902.256 4
30 -5 2 4126.08 1118.72 3
-25 30 2 2564.68 674.919 2
-25 30 5 18322.5 1493.86 2
30 -5 5 19568.5 1872.89 3
-5 -25 5 17180.8 1783.74 1
-4 -26 -5 1546.35 1038.4 1
30 -4 -5 972.076 894.123 3
-4 -26 -2 677.187 878.161 1
30 -4 -2 -491.426 814.432 3
-26 30 1 5030.03 949.486 4
-4 -26 1 4596.67 1152.28 1
30 -4 1 4037.81 1112 3
-26 30 1 2250.08 626.772 2
-4 -26 4 340.526 960.268 1
-26 30 4 1038.79 922.261 4
-26 30 4 855.179 674.792 2
30 -4 4 951.688 996.382 3
-3 -27 -3 -604.093 959.876 1
30 -3 -3 898.268 903.811 3
-27 30 0 3122.67 734.764 4
-3 -27 0 2226.67 1070.42 1
30 -3 0 4664.96 1114.57 3
-3 -27 3 741.248 973.979 1
-27 30 3 707.612 834.119 4
30 -3 3 1743.95 1062.35 3
-27 30 3 674.661 640.974 2
30 -2 -4 2359.85 966.819 3
-2 -28 -4 1733.29 1118.16 1
-2 -28 -1 7854.58 1340.48 1
30 -2 -1 8700.16 1347.77 3
-2 -28 2 3441.99 1171 1
-28 30 2 3350.94 987.42 4
30 -2 2 4316.65 1204.85 3
-28 30 2 2547.96 751.697 2
-2 -28 5 4257.75 1360.22 1
-28 30 5 3954.97 1204.86 4
-28 30 5 3289.17 961.882 2
30 -2 5 3971.45 1269.11 3
-1 -29 -2 2552.98 1191.07 1
30 -1 -2 213.346 890.08 3
-29 30 1 5878.1 954.618 4
-1 -29 1 4245.78 1240.89 1
30 -1 1 6591.22 1315.27 3
-1 -29 4 1693.52 1199.81 1
-29 30 4 1001.29 917.874 4
30 -1 4 1043.18 1075.24 3
-29 30 4 -182.319 707.753 2
0 -30 -3 -128.26 1072.69 1
30 0 -3 681.37 957.619 3
-30 30 0 7221.08 1000.36 4
0 -30 0 6646.55 1369.45 1
30 0 0 7894.27 1429.13 3
0 -30 3 -513.643 1169.05 1
-30 30 3 1866.18 956.005 4
30 0 3 -471.108 1040.66 3
-30 30 3 704.238 733.59 2
1 -31 -1 6828 1419.81 1
30 1 -1 5423.68 1260.93 3
-31 30 2 2543.77 816.386 2
1 -31 2 2654.05 1214.78 1
-31 30 2 4567.58 1058.48 4
30 1 2 2657.54 1203.78 3
2 -32 -2 390.525 1164.94 1
30 2 -2 322.656 1034.42 3
-32 30 1 1816.69 805.966 4
2 -32 1 1622.62 1204.97 1
30 2 1 3723.16 1259.05 3
3 -33 0 1669.73 1252.66 1
30 3 0 148.225 1089.91 3
1 31 0 1384.09 1428.8 3
31 -32 0 1140.39 1047.42 3
31 -32 0 1880.86 1300.07 1
0 31 -1 898.265 1540.39 3
31 -31 -1 -91.792 1319.6 1
31 -31 -1 72.5219 901.085 3
0 31 2 17.3846 1472.57 3
0 31 2 1898.17 1139.83 4
31 -31 2 1695.12 1265.58 1
31 -31 2 1773.21 1141.07 3
31 -30 -2 5093.68 1216.6 3
31 -30 -2 2246.67 1318.43 1
-1 31 1 8725.41 1825.22 3
-1 31 1 5276.61 1276.06 4
31 -30 1 4956.75 1427.59 1
31 -30 1 6792.8 1318.88 3
31 -29 -3 4321.5 1067.52 3
31 -29 -3 5111.09 1605.47 1
-2 31 0 2715.47 1485 3
-2 31 0 6732.25 1342.22 4
31 -29 0 5170.8 1226.94 3
31 -29 0 1889 1248.73 1
-2 31 3 756.852 1353.09 3
31 -29 3 2542.59 1128.46 1
-2 31 3 3216.8 1205.06 4
-2 31 3 1641.94 848.859 2
31 -29 3 1467.54 1101.71 3
31 -28 -4 3537.55 1518.99 1
31 -28 -4 3332.93 936.459 3
-3 31 -1 1392.95 958.756 4
31 -28 -1 2567.31 1222.49 1
31 -28 -1 859.806 892.118 3
-3 31 2 2158.89 1467.79 3
-3 31 2 -353.825 988.835 4
31 -28 2 2365.13 1173.1 1
31 -28 2 637.345 889.588 3
31 -27 -5 981.749 1360.3 1
31 -27 -2 2076.56 1158.52 1
-4 31 -2 4893.93 1070.6 4
31 -27 -2 5135.02 1104.55 3
-4 31 1 4383.25 1126.23 4
31 -27 1 5569.42 1192.56 3
31 -27 1 5035.54 1257.04 1
31 -27 4 2406.33 1148.4 1
-27 -4 4 5996.18 1313.28 2
-4 31 4 3937.79 1311.49 4
-4 31 4 7200.89 1195.68 2
31 -27 4 4964.69 1268.08 3
-5 31 -3 8388.39 1161.51 4
31 -26 -3 7761.46 1613.73 1
31 -26 -3 7823.49 1164.08 3
31 -26 0 2537.86 1149 1
-5 31 0 2355.52 983.777 4
31 -26 0 3727.14 1060.6 3
-5 31 3 3193.41 1117.98 4
31 -26 3 2045.78 1121.08 1
-5 31 3 2981.2 851.231 2
31 -26 3 3669.96 1135.05 3
-6 31 -4 1706.39 794.18 4
31 -25 -4 2452.84 1262.34 1
31 -25 -4 1707.46 832.724 3
-6 31 -1 7685.89 1208.85 4
31 -25 -1 6372.92 1118.93 3
31 -25 -1 7875.38 1439.69 1
-6 31 2 560.851 921.746 4
-6 31 2 1328.84 680.076 2
31 -25 2 128.025 925.188 1
31 -25 2 2116.64 981.013 3
-25 -6 5 -134.812 940.52 2
-6 31 5 2676.91 1158.73 4
-6 31 5 857.56 928.212 2
31 -25 5 1712.3 1184.59 3
31 -25 5 2825.2 1138.31 1
31 -24 -5 6279.11 1010.64 3
31 -24 -2 4735.66 1293 1
-7 31 -2 4384.2 990.713 4
31 -24 -2 5370.67 1061.54 3
-7 31 1 6377.61 1140.9 4
31 -24 1 5879.38 1153.95 3
31 -24 1 3171.43 1153.55 1
-24 -7 4 7615.95 1335.44 2
-7 31 4 12554.8 1581.38 4
-7 31 4 9633.15 1168.44 2
31 -24 4 10881.9 1547.51 3
31 -24 4 9378.05 1385.89 1
31 -23 -3 5183.1 1384.79 1
-8 31 -3 6109.46 958.877 4
31 -23 -3 6475.05 1070.7 3
-8 31 0 3008.17 926.767 4
31 -23 0 2483.19 1046.08 1
31 -23 0 4687.95 1064.43 3
-8 31 3 11019 1450.16 4
-8 31 3 9968.62 1072.92 2
31 -23 3 6620.06 1224.05 1
31 -23 3 10287.1 1379.06 3
-23 -8 6 2346.55 1075.54 2
-8 31 6 1988.26 1200.39 4
-8 31 6 3296.4 1063.86 2
-23 -8 6 4521.51 1084.84 1
31 -23 6 2006.25 1155.33 3
-9 31 -4 523.46 683.115 4
31 -22 -4 1589.46 791.466 3
-9 31 -1 3118.03 874.552 4
31 -22 -1 1372.37 845.726 3
31 -22 -1 1238 988.905 1
-9 31 2 2326.03 972.774 4
-9 31 2 450.528 557.261 2
31 -22 2 928.826 843.458 3
31 -22 2 1052.31 946.813 1
-22 -9 5 6.95596 920.266 2
-9 31 5 3648.25 1217.86 4
-9 31 5 1012.46 847.638 2
-22 -9 5 849.726 815.047 1
31 -22 5 1100.75 1002.87 3
31 -21 -5 5021.52 907.803 3
31 -21 -2 5166.04 1192.25 1
-10 31 -2 4102.48 856.687 4
31 -21 -2 5209.35 998.259 3
-10 31 1 9548.93 1245.24 4
31 -21 1 7964.38 1202.26 1
31 -21 1 9457.89 1271.91 3
-10 31 4 6254.04 1315.68 4
31 -21 4 5295.17 1053.33 1
-10 31 4 4412.59 890.128 2
-21 -10 4 6948.52 1032.14 1
31 -21 4 6915.89 1335.69 3
-11 31 -3 4467.01 804.534 4
31 -20 -3 9187.12 1119.56 3
31 -20 0 9687.86 1302.94 1
-11 31 0 12719.2 1262.29 4
31 -20 0 10377.7 1280.24 3
31 -20 3 9986.95 1188.47 1
-11 31 3 12005.1 1440.25 4
-11 31 3 11512.3 1063.87 2
-20 -11 3 11882.7 1097.43 1
31 -20 3 14407.7 1508.31 3
-20 -11 6 3364.92 1127.71 2
-11 31 6 4191.61 1286.36 4
-11 31 6 3586.25 1029.35 2
-20 -11 6 4122.15 1130.3 1
31 -20 6 3151.94 1167.2 3
31 -19 -4 546.187 669.669 3
31 -19 -1 1831.35 907.183 1
-12 31 -1 1281.46 721.56 4
31 -19 -1 2129.96 858.091 3
-12 31 2 8097.76 1199.73 4
-12 31 2 8207.23 802.504 2
31 -19 2 7049.09 1040.11 1
31 -19 2 7678.74 1192.07 3
-19 -12 2 6922.44 856.244 1
-12 31 5 702.973 973.575 4
-12 31 5 -506.023 758.601 2
-19 -12 5 350.747 774.099 1
31 -19 5 331.451 970.554 3
31 -18 -5 957.601 738.634 3
-13 31 -2 9046.22 995.31 4
31 -18 -2 11133.8 1256.09 3
-18 -13 1 2452.11 611.572 1
-13 31 1 2399.91 882.563 4
31 -18 1 2759.98 958.85 3
31 -18 1 2588.3 858.586 1
-13 31 4 16953.2 1677.43 4
-13 31 4 18850.5 1369.71 2
-18 -13 4 19418.5 1491.64 1
31 -18 4 21222.3 1747.07 3
-14 31 -3 19328.8 1210.18 4
31 -17 -3 24524.4 1598.11 3
31 -17 0 7482.27 1085.07 1
-17 -14 0 8043.73 837.296 1
-14 31 0 11920.9 1184.65 4
31 -17 0 12792.3 1343.52 3
-14 31 3 17412 1544.39 4
-14 31 3 17825.4 1196.47 2
-17 -14 3 20059.5 1385.62 1
-17 -14 6 4418.93 1046.17 2
-14 31 6 8543.16 1520.88 4
-14 31 6 5328.74 1059.85 2
-17 -14 6 6922.22 1259.95 1
31 -17 6 6376.31 1280.59 3
31 -16 -4 10603.4 1157.88 3
-15 31 -1 2117.46 732.389 4
31 -16 -1 710.926 753.137 3
-15 31 2 9944.14 1281.47 4
-15 31 2 11197.3 887.497 2
-16 -15 2 10775 1079.91 1
-15 31 5 398.876 1011.77 4
-15 31 5 -471.066 744.559 2
-16 -15 5 1402.55 898.522 1
31 -16 5 1114.47 958.174 3
31 -15 -5 6210.28 956.357 3
-16 31 -2 5653.52 802.653 4
31 -15 -2 6459.1 1037.44 3
-15 -16 1 755.646 627.602 1
-16 31 1 3310.07 886.228 4
31 -15 1 1447.79 902.736 3
-16 31 4 7022.12 1216.84 4
-16 31 4 6527.04 914.951 2
-15 -16 4 8310.41 1148.65 1
31 -15 4 8147.03 1287.98 3
-15 -16 7 364.931 849.949 2
-16 31 7 -724.9 1171.13 4
-16 31 7 -148.753 851.437 2
-15 -16 7 -507.302 983.424 1
31 -15 7 527.45 1014.54 3
31 -14 -3 13020.6 1250.58 3
-14 -17 0 10810.2 1039.76 1
-17 31 0 12553.3 1212.04 4
31 -14 0 12413.9 1345.3 3
-17 31 3 15571.2 1516.63 4
-17 31 3 18672 1207.68 2
31 -14 3 17360 1642.31 3
-14 -17 3 16358.5 1376.44 1
-17 31 6 4528.48 1276.06 4
-17 31 6 5212.34 1027.83 2
-14 -17 6 3910.68 1198.57 1
31 -14 6 5995.43 1284.34 3
31 -13 -4 14776.5 1294.44 3
-18 31 -1 7531.28 913.667 4
-13 -18 -1 6970.05 946.985 1
31 -13 -1 6445.55 1114.56 3
-18 31 2 12314.3 1319.41 4
-18 31 2 11603.3 887.429 2
31 -13 2 9894.17 1346.49 3
-13 -18 2 8828.77 1094.96 1
-18 31 5 1035.97 960.966 4
-18 31 5 2271.33 812.636 2
31 -13 5 2254.19 1028.99 3
-13 -18 5 1851.18 974.938 1
31 -12 -5 727.932 734.607 3
-19 31 -2 6008.66 774.749 4
31 -12 -2 7022.26 1082.94 3
-12 -19 -2 5224.94 887.446 1
-12 -19 1 4340.81 897.16 1
-19 31 1 6495.47 994.476 4
31 -12 1 4598.59 1052.62 3
-19 31 4 920.772 913.708 4
-19 31 4 624.868 620.97 2
31 -12 4 879.598 933.167 3
-12 -19 4 270.077 805.082 1
31 -11 -6 4277.73 923.534 3
-11 -20 -3 6442.13 962.992 1
31 -11 -3 6583.9 1111.48 3
-11 -20 0 7229.06 1069.85 1
-20 31 0 9721.21 1077.72 4
31 -11 0 9727.48 1296.36 3
-20 31 3 10192.5 1296.86 4
-20 31 3 9597.03 949.245 2
31 -11 3 9388.7 1390.92 3
-11 -20 3 8656.69 1227.38 1
-20 31 6 5464.18 1333.33 4
-20 31 6 4053.25 1021.71 2
-11 -20 6 2995.8 1150.04 1
31 -10 -4 10753.1 1228.59 3
-21 31 -1 11501.7 1034.44 4
31 -10 -1 13804.7 1396.88 3
-21 31 2 8507.32 1169.81 4
-21 31 2 6759.69 750.985 2
31 -10 2 9022.63 1338.72 3
-10 -21 2 6939.44 1088.2 1
-21 31 5 9743.84 1446.84 4
-21 31 5 8706.45 1101.78 2
-10 -21 5 10061.6 1406.43 1
31 -10 5 8506.05 1412.11 3
31 -9 -5 617.112 791.835 3
-9 -22 -2 -245.202 863.926 1
31 -9 -2 -389.177 831.999 3
-9 -22 1 1843.42 857.854 1
-22 31 1 906.303 697.112 4
31 -9 1 1658.88 928.781 3
-22 31 4 1103.83 896.913 4
-22 31 4 461.306 661.759 2
31 -9 4 270.953 898.343 3
-9 -22 4 584.824 881.303 1
31 -8 -6 3065.22 942.122 3
-8 -23 -3 5835.47 1111.97 1
31 -8 -3 7291.79 1129.29 3
-23 31 0 1992.61 719.595 4
-8 -23 0 1755.04 861.05 1
31 -8 0 3107.94 1052.64 3
-8 -23 3 6212.47 1161.11 1
-23 31 3 6370.13 1134.73 4
-23 31 3 7051.89 876.156 2
31 -8 3 5551.14 1277.75 3
-23 31 6 10416.1 1563.95 4
-23 31 6 9029.83 1247.9 2
31 -8 6 6588.13 1432.75 3
-8 -23 6 5723.81 1340.06 1
-7 -24 -4 9004.01 1330.47 1
31 -7 -4 14484.3 1426.1 3
-24 31 -1 10446.1 996.129 4
31 -7 -1 9069 1273.76 3
-7 -24 2 258.13 899.218 1
-24 31 2 2544.11 872.441 4
31 -7 2 3267.74 1142.95 3
-24 31 2 1326.43 590.699 2
-24 31 5 12808.9 1613.22 4
-24 31 5 14351.5 1336.11 2
31 -7 5 14373.3 1774.22 3
-7 -24 5 10839.6 1527.12 1
-6 -25 -5 1435.52 988.566 1
31 -6 -5 1179.26 839.119 3
-6 -25 -2 3084.56 1038.76 1
31 -6 -2 4450.94 1058.05 3
-25 31 1 6277.56 1016.87 4
-6 -25 1 4730.79 1106.73 1
31 -6 1 5858.42 1154.32 3
-6 -25 4 490.273 932.566 1
-25 31 4 2844.68 1032.38 4
-25 31 4 1421.45 731.092 2
31 -6 4 937.968 1035.84 3
-5 -26 -3 317.073 874.019 1
31 -5 -3 1139.21 886.517 3
-26 31 0 2176.57 717.042 4
-5 -26 0 3042.54 1077.75 1
31 -5 0 1880.72 951.094 3
-5 -26 3 3417.91 1150.86 1
-26 31 3 6274.92 1147.64 4
31 -5 3 7082.07 1329.19 3
-26 31 3 6673.07 939.716 2
-4 -27 -4 4299.9 1220.42 1
31 -4 -4 9143.18 1296.76 3
31 -4 -1 6918.98 1246.81 3
-4 -27 -1 3798.92 1162.34 1
-4 -27 2 3988.68 1249.73 1
-27 31 2 4435.53 1042.45 4
31 -4 2 3283.86 1103.21 3
-27 31 2 3196.71 725.486 2
-4 -27 5 4457.89 1318.08 1
-27 31 5 7690.7 1353.69 4
-27 31 5 7200.47 1130.74 2
31 -4 5 8706.51 1526.22 3
-3 -28 -2 -18.0399 963.504 1
31 -3 -2 659.388 938.469 3
-28 31 1 3310.71 876.54 4
-3 -28 1 2873.94 1181.09 1
31 -3 1 2351.74 1117.02 3
-3 -28 4 2197.07 1167.32 1
-28 31 4 2275.64 1019.49 4
31 -3 4 3870.69 1220.76 3
-28 31 4 1734.97 782.097 2
-2 -29 -3 2269.69 1056.15 1
31 -2 -3 3903.66 1132.15 3
-29 31 0 2676.86 801.923 4
-2 -29 0 2369.82 1148.83 1
31 -2 0 2273.06 1076.93 3
-2 -29 3 2015.18 1204.69 1
-29 31 3 4463.06 1067.41 4
31 -2 3 4615.01 1269.04 3
-29 31 3 2831.42 805.109 2
31 -1 -1 6742.86 1363.88 3
-1 -30 -1 5602.42 1358.55 1
-1 -30 2 1220.66 1173.89 1
-30 31 2 2591.55 955.903 4
31 -1 2 1526.16 1143.02 3
0 -31 -2 3164.6 1302.03 1
31 0 -2 1249.06 1029.44 3
-31 31 1 267.24 720.866 4
0 -31 1 860.655 1084.84 1
31 0 1 -1532.54 1142.69 3
1 -32 0 -1221.33 1209.11 1
31 1 0 201.368 1083.27 3
-1 32 0 405.096 1393.22 3
-1 32 0 -819.597 1141.86 4
32 -31 0 228.6 966.144 3
32 -31 0 1057.79 1203.92 1
-2 32 -1 817.344 1039.54 4
32 -30 -1 428.068 1274.8 1
32 -30 -1 2489.63 1045.95 3
-2 32 2 1144.41 1443.02 3
-2 32 2 305.116 1014.94 4
32 -30 2 -838.171 1190.51 1
32 -30 2 1.24822 964.53 3
32 -29 -2 10639 1450.58 3
32 -29 -2 10377.5 1857.56 1
-3 32 1 1032.13 1047.56 4
32 -29 1 274.221 924.562 3
32 -29 1 -427.694 1127.93 1
32 -28 -3 1978.26 1350.43 1
32 -28 -3 1772.3 947.259 3
-4 32 0 1514.26 1014.14 4
32 -28 0 2116.03 1001.25 3
-4 32 3 189.509 1006.95 4
32 -28 3 1916.56 1158.11 1
32 -28 3 2832.67 1173.91 3
-5 32 -4 2375.62 871.731 4
32 -27 -4 2006.53 1321.37 1
32 -27 -4 3855.57 985.435 3
-5 32 -1 2786.04 1012.76 4
32 -27 -1 2812.83 995.444 3
32 -27 -1 3964.63 1317.84 1
-5 32 2 -129.696 977.996 4
32 -27 2 1035.59 1079.68 1
32 -27 2 788.785 954.608 3
-6 32 -2 4890.72 1061.35 4
32 -26 -2 2888.37 984.244 3
32 -26 -2 4445 1415.48 1
-6 32 1 4991.15 1166.8 4
32 -26 1 4718.66 1155.98 3
32 -26 4 6359.68 1379.11 1
-6 32 4 9586.41 1579.41 4
-6 32 4 8528.94 1187.04 2
32 -26 4 8646.53 1504.67 3
-7 32 -3 3839.72 951.203 4
32 -25 -3 3880.82 1003.06 3
32 -25 -3 4244.75 1398.3 1
-7 32 0 5720.14 1122.14 4
32 -25 0 2932.96 1113.93 1
32 -25 0 5683.68 1182.29 3
-7 32 3 5178.93 1264.71 4
32 -25 3 3138.37 1147.12 1
32 -25 3 4862.16 1199.22 3
-8 32 -4 2248.62 791.963 4
32 -24 -4 2802.93 865.025 3
32 -24 -4 1804.37 1194.14 1
-8 32 -1 5976.4 1058.24 4
32 -24 -1 4584.03 1216.42 1
32 -24 -1 2991.74 976.031 3
-8 32 2 2842.2 1074.3 4
32 -24 2 1143.06 941.996 3
32 -24 2 3499 1082.65 1
-24 -8 5 1714.04 1120.89 2
-8 32 5 2320.24 1173.21 4
-8 32 5 2934.44 975.243 2
32 -24 5 4121.88 1182.46 3
32 -23 -5 5231.07 937.453 3
-9 32 -2 3683.86 880.068 4
32 -23 -2 3519.43 1223.41 1
32 -23 -2 2971.3 945.559 3
-9 32 1 6423.29 1178.83 4
32 -23 1 5638.35 1204.04 1
32 -23 1 8828.25 1288.8 3
-9 32 4 4881.85 1278.15 4
32 -23 4 3261.04 1061.08 1
-9 32 4 4142.59 910.393 2
32 -23 4 6094.39 1225.37 3
-10 32 -3 5183.97 930.212 4
32 -22 -3 6945.99 1088.12 3
-10 32 0 10542.2 1307.67 4
32 -22 0 13184.4 1422.38 3
32 -22 0 11212.1 1450.31 1
-10 32 3 4297.59 1096.23 4
-10 32 3 5122.22 864.842 2
32 -22 3 5302.77 1189.14 3
32 -22 3 3880.38 997.142 1
32 -21 -4 1901.28 811.265 3
-11 32 -1 3090.55 852.47 4
32 -21 -1 4873.57 1159.61 1
32 -21 -1 3959.13 959.958 3
-11 32 2 2239.2 953.535 4
32 -21 2 3875.71 1024.42 1
32 -21 2 1468.21 995.036 3
-11 32 5 1569.55 1010.81 4
-11 32 5 563.738 768.563 2
-21 -11 5 822.135 775.592 1
32 -21 5 518.35 917.711 3
32 -20 -5 5336.53 971.086 3
-12 32 -2 3649.36 853.628 4
32 -20 -2 3644.97 966.394 3
32 -20 -2 4796.15 1200.67 1
32 -20 1 3605.84 973.122 1
-12 32 1 1729.72 871.018 4
32 -20 1 2947.47 994.33 3
-12 32 4 1849.72 1028.34 4
-12 32 4 5271.27 891.839 2
32 -20 4 3936.77 1154 3
-20 -12 4 4379.3 926.517 1
-13 32 -3 6372.17 886.338 4
32 -19 -3 7166.24 1074.87 3
-13 32 0 19854.1 1528.23 4
32 -19 0 17607.6 1582.86 3
32 -19 0 14675.7 1451.45 1
-13 32 3 -477.331 888.121 4
-13 32 3 990.436 622.589 2
32 -19 3 -801.925 937.022 3
-19 -13 3 19.0203 659.39 1
-19 -13 6 14188.3 1575.09 2
-13 32 6 17837.2 1913.14 4
-13 32 6 19292.1 1628.86 2
-19 -13 6 14731.1 1608.27 1
32 -19 6 14484.5 1688.05 3
32 -18 -4 2154.22 851.642 3
-14 32 -1 2666.85 799.524 4
32 -18 -1 2280.98 909.564 3
-14 32 2 2266.33 940.88 4
32 -18 2 571.765 911.796 3
-18 -14 2 1655.13 704.261 1
-14 32 5 2431.99 1105.53 4
-14 32 5 1093.4 782.477 2
-18 -14 5 3694.97 1002.6 1
32 -18 5 3219.9 1114.41 3
32 -17 -5 2222.42 783.909 3
-15 32 -2 948.947 684.952 4
32 -17 -2 -99.9617 800.443 3
32 -17 1 3489.37 892.28 1
-17 -15 1 2543.81 714.178 1
-15 32 1 5188.72 991.22 4
32 -17 1 4876.69 1030.1 3
-15 32 4 549.054 942.118 4
-15 32 4 182.713 679.998 2
32 -17 4 -107.274 995.88 3
-17 -15 4 736.055 750.418 1
32 -16 -3 1919.85 862.214 3
-16 32 0 29423.9 1693.38 4
32 -16 0 32049.8 1962.32 3
-16 32 3 344.399 882.143 4
-16 32 3 1837.35 646.289 2
32 -16 3 704.862 976.645 3
-16 -16 3 1586.83 777.1 1
-16 32 6 13830.7 1674.13 4
-16 32 6 12354.4 1359.7 2
-16 -16 6 9442.33 1417.18 1
32 -16 6 14472.1 1737.57 3
32 -15 -4 1957.37 799.173 3
-17 32 -1 3251.08 812.769 4
32 -15 -1 5033.48 1063.12 3
-15 -17 2 2110.99 785.471 1
-17 32 2 3864.03 992.88 4
32 -15 2 3972.87 1102.52 3
-17 32 5 2995.6 1142.2 4
-17 32 5 3854.84 917.491 2
32 -15 5 1298.37 1052.74 3
-15 -17 5 2892.1 990.415 1
32 -14 -5 1344.54 754.325 3
-18 32 -2 579.652 584.3 4
32 -14 -2 1244.45 835.054 3
-14 -18 1 2436.18 791.539 1
-18 32 1 3984.03 932.258 4
32 -14 1 4071.81 1041.8 3
-18 32 4 946.248 931.632 4
-18 32 4 1016.43 651.995 2
32 -14 4 -451.293 951.499 3
-14 -18 4 560.409 793.439 1
32 -13 -3 -147.824 780.109 3
-13 -19 0 17531.7 1332.31 1
-19 32 0 20951.6 1486.37 4
32 -13 0 22847.8 1763.57 3
-19 32 3 6734.15 1186.37 4
-19 32 3 6325.05 823.276 2
32 -13 3 5837.65 1226.41 3
-13 -19 3 4295.59 1000.91 1
-19 32 6 12695.5 1650.56 4
-19 32 6 11868.5 1363.79 2
-13 -19 6 12516.9 1561.37 1
32 -13 6 10732 1597.06 3
32 -12 -4 3609.75 909.196 3
-20 32 -1 4218.95 809.349 4
32 -12 -1 4570.86 1046.59 3
-20 32 2 12870.9 1357.85 4
32 -12 2 13306.3 1545.62 3
-12 -20 2 10716.5 1215.08 1
-20 32 5 3275.87 1149.84 4
-20 32 5 4007.96 916.755 2
32 -12 5 3911.13 1231.96 3
-12 -20 5 2957.31 1029.3 1
32 -11 -5 1375.03 759.898 3
-11 -21 -2 1905.27 848.763 1
32 -11 -2 2668.39 952.688 3
-11 -21 1 3542.25 900.374 1
-21 32 1 3867.89 892.072 4
32 -11 1 4933.14 1151.59 3
-21 32 4 2314.88 1035.25 4
-21 32 4 2412.21 748.167 2
32 -11 4 2316.72 1051.74 3
-11 -21 4 2663.7 999.402 1
32 -10 -3 3341.34 983.984 3
-10 -22 0 11714.3 1287.92 1
-22 32 0 10987 1134.88 4
32 -10 0 11924.2 1398.62 3
-10 -22 3 1340.1 887.218 1
-22 32 3 1404.86 932.58 4
-22 32 3 1089.93 623.539 2
32 -10 3 1767.02 980.393 3
32 -9 -4 7252.05 1144.76 3
-23 32 -1 3560.08 763.159 4
32 -9 -1 5103.19 1160.43 3
-9 -23 -1 2749.74 891.427 1
-9 -23 2 3991.99 1104.64 1
-23 32 2 4533.31 1007.84 4
32 -9 2 6404.98 1203.96 3
-23 32 5 2845.7 1079.12 4
-23 32 5 3655.29 910.37 2
32 -9 5 3359.56 1247.19 3
-9 -23 5 1794.01 1119.89 1
32 -8 -5 -38.4612 838.499 3
-8 -24 -2 3751.6 1019.52 1
32 -8 -2 4416.71 1085.43 3
-24 32 1 2840.43 814.842 4
-8 -24 1 343.837 869.125 1
32 -8 1 3521.66 1123.94 3
-8 -24 4 2483.49 1092.29 1
-24 32 4 5159.01 1123.78 4
-24 32 4 2648.25 800.835 2
32 -8 4 2897.45 1200.26 3
-7 -25 -3 3680.94 1117.27 1
32 -7 -3 4489.62 1057.63 3
-25 32 0 4565.21 880.969 4
-7 -25 0 2591.38 1002.08 1
32 -7 0 2112.86 992.948 3
-7 -25 3 2798.83 1098.58 1
-25 32 3 3266.15 993.224 4
-25 32 3 4100.14 811.209 2
32 -7 3 2027.3 1152.33 3
-6 -26 -4 7957.15 1338.35 1
32 -6 -4 8132.3 1291.94 3
32 -6 -1 3506.15 1074.17 3
-6 -26 -1 1417.17 1004.12 1
-6 -26 2 3732.26 1130.87 1
-26 32 2 6288.34 1156.27 4
32 -6 2 5824.18 1331.1 3
-5 -27 -2 3259.7 1129.7 1
32 -5 -2 2278.86 1010.21 3
-27 32 1 924.138 758.459 4
-5 -27 1 2904.12 1080.85 1
32 -5 1 2954.36 1164.03 3
-5 -27 4 4031.17 1269.01 1
-27 32 4 3165.87 1068.34 4
32 -5 4 3810.11 1159.4 3
-27 32 4 3900.04 859.47 2
-4 -28 -3 2066.87 1116.09 1
32 -4 -3 2057.7 993.29 3
-28 32 0 451.133 668.22 4
-4 -28 0 1060.79 1064.29 1
32 -4 0 -1074.12 1022.41 3
-4 -28 3 1855.29 1172.89 1
-28 32 3 3024.16 1023.18 4
32 -4 3 3898.43 1259.67 3
32 -3 -1 281.377 978.263 3
-3 -29 -1 -644.065 1129.2 1
-3 -29 2 11127.4 1637.45 1
-29 32 2 13636.7 1426.88 4
32 -3 2 16515.1 1766.65 3
-2 -30 -2 3530.35 1267.24 1
32 -2 -2 2057.44 1072.69 3
-30 32 1 1255.16 770.532 4
-2 -30 1 457.767 1087.1 1
32 -2 1 1845.61 1169.38 3
-1 -31 0 -1827.32 1166.6 1
32 -1 0 875.011 1097.22 3
33 -30 0 1171.69 1298.08 1
-3 33 0 1644.74 1096.09 4
33 -30 0 1953.83 1075.64 3
-4 33 -1 1010.07 972.581 4
33 -29 -1 1028.4 1000.46 3
33 -29 -1 1768.44 1307.03 1
-4 33 2 902.382 1122.99 4
33 -29 2 1014.21 1164.08 1
33 -29 2 812.804 1056.22 3
-5 33 -2 2558.37 992.096 4
33 -28 -2 2421.58 1092.79 3
33 -28 -2 -280.304 1310.94 1
-5 33 1 1756.26 1074.24 4
33 -28 1 2832.95 1074.34 3
33 -28 1 4030.5 1319.66 1
-6 33 -3 2088.72 910.275 4
33 -27 -3 2001.05 1389.9 1
-6 33 0 1860.96 988.925 4
33 -27 0 3101.41 1271.55 1
33 -27 0 1502.83 983.494 3
-6 33 3 -43.7813 1105.64 4
33 -27 3 1827.17 1100.75 1
33 -27 3 2168.6 1073.1 3
33 -26 -4 3719.16 1484.47 1
33 -26 -4 4168.89 1021.44 3
-7 33 -1 734.547 892.642 4
33 -26 -1 -968.644 1120.44 1
33 -26 -1 -105.791 884.36 3
-7 33 2 3370.77 1139.58 4
33 -26 2 4503.91 1193.56 3
33 -26 2 1039.98 1037.55 1
-8 33 -2 1338.99 851.542 4
33 -25 -2 518.184 1121.48 1
33 -25 -2 1198.39 911.816 3
-8 33 1 11160.6 1444.79 4
33 -25 1 9963.93 1512.64 1
33 -25 1 9534.63 1374.95 3
-8 33 4 2986.79 1238.99 4
33 -25 4 815.201 1013.93 3
-9 33 -3 8514.71 1128.48 4
33 -24 -3 8028.25 1171.43 3
33 -24 -3 8193.38 1594.01 1
33 -24 0 1185.23 1045.7 1
-9 33 0 2583.37 968.233 4
33 -24 0 3066.09 1005.35 3
33 -24 3 7239.38 1343.84 1
-9 33 3 8617.22 1375.04 4
33 -23 -4 992.853 835.268 3
-10 33 -1 638.122 783.688 4
33 -23 -1 -646.695 990.714 1
33 -23 -1 -1119.06 909.887 3
33 -23 2 782.594 930.693 1
-10 33 2 1750.3 998.186 4
33 -23 2 3431.21 1100.69 3
-10 33 5 168.785 1125.51 4
-10 33 5 1011.43 838.312 2
33 -23 5 531.235 1056.55 3
33 -22 -5 1868.24 793.478 3
-11 33 -2 5930.29 984.364 4
33 -22 -2 7600.59 1161.49 3
33 -22 -2 4320.17 1226.95 1
-11 33 1 9597.24 1292.19 4
33 -22 1 8314.58 1327.27 3
33 -22 1 7108.32 1201.74 1
-11 33 4 903.644 1031.61 4
-11 33 4 1480.71 788.441 2
33 -22 4 864.266 1001.67 3
-12 33 -3 16896.8 1308.06 4
33 -21 -3 21246.9 1593.33 3
33 -21 0 3893.62 1072.29 1
-12 33 0 4882.01 1040.6 4
33 -21 0 6196.15 1189.69 3
-12 33 3 7793.36 1341.4 4
33 -21 3 4612.44 1221.19 3
33 -20 -4 1169.38 771.218 3
-13 33 -1 2823.07 838.46 4
33 -20 -1 1870.29 910.179 3
33 -20 -1 2218.42 1023.61 1
-13 33 2 3536.28 993.737 4
33 -20 2 4475.99 1143.1 3
-13 33 5 -612.17 1055.39 4
-13 33 5 -166.943 755.083 2
-20 -13 5 537.493 817.411 1
33 -20 5 1804.83 1089.56 3
33 -19 -5 396.145 651.567 3
-14 33 -2 6460.28 947.206 4
33 -19 -2 6912.13 1084.53 3
-14 33 1 5566.05 1080.46 4
33 -19 1 5709.72 1181.58 3
-14 33 4 2249.36 1072.42 4
-14 33 4 3795.26 860.982 2
33 -19 4 4074.35 1138.68 3
-19 -14 4 3746.53 883.685 1
33 -18 -3 10882.1 1269.09 3
-15 33 0 1851.24 843.211 4
33 -18 0 4437.26 1091.13 3
-15 33 3 6867.85 1231.9 4
33 -18 3 9137.91 1396.41 3
-18 -15 3 8167.11 1039.38 1
33 -17 -4 3412.6 933.607 3
-16 33 -1 1458.52 699.695 4
33 -17 -1 3564.06 1007.25 3
-17 -16 2 369.044 638.678 1
-16 33 2 3033.76 988.29 4
33 -17 2 1692.63 994.848 3
-16 33 5 2040.54 1100.23 4
-16 33 5 4216.57 947.598 2
33 -17 5 3524.85 1178.2 3
-17 -16 5 2411.68 972.34 1
33 -16 -5 21.1137 728.773 3
-17 33 -2 3588.58 778.109 4
33 -16 -2 3522.45 978.524 3
-17 33 1 1230.79 798.205 4
-16 -17 1 237.845 674.838 1
33 -16 1 647.552 845.646 3
-17 33 4 5334.21 1237.68 4
-17 33 4 4709.28 883.11 2
33 -16 4 2675.01 1159.16 3
-16 -17 4 4184.75 968.331 1
33 -15 -3 10703.3 1264.85 3
-18 33 0 4350.59 922.559 4
33 -15 0 6165.12 1164.72 3
-18 33 3 7840.21 1288.27 4
33 -15 3 9891.79 1435.82 3
-15 -18 3 7795.53 1126.95 1
33 -14 -4 5714.19 1030.32 3
-19 33 -1 9249.38 1034.21 4
33 -14 -1 11896.9 1422.42 3
-14 -19 2 1862.63 831.171 1
-19 33 2 2412.63 912.415 4
-19 33 5 3952.5 1156.18 4
-19 33 5 5431.32 985.42 2
33 -14 5 3280.02 1170.38 3
-14 -19 5 3189.26 1077.77 1
33 -13 -5 2187.79 819.848 3
33 -13 -2 6158.52 1115.53 3
-20 33 1 957.554 752.53 4
-13 -20 1 1469.35 779.053 1
33 -13 1 2675.24 1063.73 3
-20 33 4 1292.19 1003.03 4
-20 33 4 1779.27 730.644 2
33 -13 4 2061.25 1091.54 3
-13 -20 4 1798.14 965.213 1
33 -12 -3 8502.45 1227.48 3
-21 33 0 5047.91 965.762 4
33 -12 0 6264.92 1253.74 3
-21 33 3 16241.8 1557.92 4
33 -12 3 19637.5 1861.42 3
33 -11 -4 1934.31 851.931 3
-22 33 -1 14793.2 1220.48 4
33 -11 -1 15129.8 1541.19 3
-11 -22 2 2279.05 993.977 1
-22 33 2 4543.29 1038.45 4
33 -11 2 4769.71 1190.83 3
-22 33 5 5479.14 1301.78 4
-22 33 5 2921.3 912.333 2
33 -11 5 4774.43 1316 3
-11 -22 5 3333.13 1182.25 1
33 -10 -5 -138.508 813.98 3
-10 -23 -2 1293.16 874.997 1
33 -10 -2 2137.08 978.591 3
-23 33 1 4133.61 945.932 4
-10 -23 1 3229.44 1012.13 1
33 -10 1 1600.8 1008.18 3
-23 33 4 1855.35 1020.31 4
-23 33 4 853.981 720.175 2
33 -10 4 2117.82 1050.46 3
-10 -23 4 249.889 927.067 1
33 -9 -3 5958.13 1097.67 3
-24 33 0 2164.48 752.635 4
-9 -24 0 1623.87 964.595 1
33 -9 0 2747.66 1051.12 3
-9 -24 3 3849.81 1126.22 1
-24 33 3 5553.31 1198.29 4
33 -9 3 4163.58 1271.55 3
33 -8 -4 4273.57 1042.01 3
-8 -25 -1 7530.97 1224.92 1
33 -8 -1 6615.67 1216.38 3
-8 -25 2 199.827 928.752 1
-25 33 2 1185.79 824.448 4
-7 -26 -2 145.905 945.503 1
33 -7 -2 1835.62 956.174 3
-26 33 1 2303.75 837.406 4
-7 -26 1 1782.61 1022.54 1
33 -7 1 764.312 922.872 3
-7 -26 4 3584.56 1248.92 1
-26 33 4 2806.56 1074.71 4
33 -7 4 1848.27 1150.36 3
-6 -27 -3 1273.94 1032.41 1
33 -6 -3 1366.16 932.503 3
-27 33 0 371.78 680.858 4
-6 -27 0 1.10016 917.25 1
33 -6 0 -539.555 967.861 3
-6 -27 3 2472.73 1140.67 1
-27 33 3 4143.77 1142 4
33 -6 3 4599.4 1270.54 3
33 -5 -1 3697.24 1142.15 3
-5 -28 -1 3504.79 1216.3 1
-5 -28 2 2574.98 1177.26 1
-28 33 2 3055.69 1001.66 4
33 -5 2 3419.42 1249.97 3
-4 -29 -2 252.248 1027.55 1
33 -4 -2 1880.2 1061.86 3
-29 33 1 518.998 738.52 4
-4 -29 1 838.513 1076.34 1
33 -4 1 2173.69 1070.78 3
-3 -30 0 1031.97 1097.08 1
33 -3 0 1342.07 1116.24 3
34 -28 -1 2793.8 1369.6 1
-6 34 -1 1995.07 1030.28 4
34 -28 -1 4232.64 1107.96 3
-7 34 -2 6552.37 1175.73 4
34 -27 -2 6271.61 1564.9 1
34 -27 -2 5886.39 1203.3 3
-7 34 1 2934.34 1096.62 4
34 -27 1 3222.18 1263.74 1
34 -27 1 4638.36 1232.81 3
-8 34 -3 1469.44 873.456 4
34 -26 -3 835.233 1285.99 1
34 -26 -3 1462.31 933.063 3
-8 34 0 2284.52 964.861 4
34 -26 0 1472.71 1003.13 3
34 -26 0 2550.95 1219.81 1
-8 34 3 852.742 1038.54 4
34 -26 3 423.053 1035.98 3
34 -26 3 495.209 1037.61 1
34 -25 -1 2589.63 1173.19 1
-9 34 -1 2609.17 962.024 4
34 -25 -1 3111.38 1031.61 3
34 -25 2 1267.09 1048.19 1
-9 34 2 1808.45 1058.96 4
34 -25 2 -223.069 909.002 3
34 -24 -2 7895.08 1588.76 1
-10 34 -2 5905.36 1081.61 4
34 -24 -2 8317.02 1279.43 3
-10 34 1 4889.88 1163.69 4
34 -24 1 3130.38 1045.1 3
34 -24 1 4059.14 1157.75 1
34 -23 -3 5040.36 1057.62 3
34 -23 0 3774.33 1170.67 1
-11 34 0 2130.84 947.761 4
34 -23 0 2336.32 1061.96 3
-11 34 3 3895.77 1160.79 4
34 -23 3 7582.37 1365.19 3
34 -22 -4 -811.661 830.168 3
34 -22 -1 4247.32 1173.69 1
-12 34 -1 4471.58 960.283 4
34 -22 -1 4073.61 1084.55 3
-12 34 2 2201.13 978.217 4
34 -22 2 2280.39 1000.98 3
-13 34 -2 8495.82 1088.32 4
34 -21 -2 8892.15 1292.11 3
-13 34 1 1272.72 905.93 4
34 -21 1 -285.264 907.108 3
-13 34 4 4228.38 1238.29 4
34 -21 4 2627.7 1157.4 3
34 -20 -3 3522.51 983.735 3
-14 34 0 7469.39 1127.41 4
34 -20 0 7072.09 1215.18 1
34 -20 0 8916.72 1346.37 3
-14 34 3 9231.33 1406.07 4
34 -20 3 10773.1 1455.32 3
34 -19 -4 3264.19 918.258 3
-15 34 -1 125.469 692.22 4
34 -19 -1 998.323 898.779 3
-15 34 2 5458.58 1133.63 4
34 -19 2 3391.51 1143.09 3
-16 34 -2 2079.13 755.832 4
34 -18 -2 4623.29 998.355 3
-16 34 1 1994.53 920.682 4
34 -18 1 119.609 897.483 3
-16 34 4 8337.11 1377.37 4
-18 -16 4 5992.63 1060.72 1
34 -17 -3 7690.51 1236.16 3
-17 34 0 6306.49 1055.11 4
34 -17 0 7121.08 1248.83 3
-17 34 3 10789.5 1411.94 4
34 -17 3 13462.1 1627.79 3
-17 -17 3 9539 1233.45 1
34 -16 -4 14012.2 1442.93 3
-18 34 -1 -376.076 663.076 4
34 -16 -1 -52.4984 835.272 3
-18 34 2 6225.16 1153.52 4
34 -16 2 6136.7 1227.5 3
34 -15 -2 1458.74 874.126 3
-19 34 1 4924.4 1014.71 4
34 -15 1 4092.6 1093.08 3
-19 34 4 3398.5 1163.45 4
34 -15 4 1415.66 1051.89 3
-15 -19 4 2187.9 970.146 1
34 -14 -3 8794.99 1213.93 3
-20 34 0 7585.08 1091.6 4
34 -14 0 9335.36 1347.17 3
-14 -20 3 4038.8 1055.1 1
-20 34 3 5242.78 1137.86 4
34 -14 3 6850.25 1322.81 3
34 -13 -4 3376.03 973.261 3
-21 34 -1 744.493 683.668 4
34 -13 -1 996.551 913.928 3
-21 34 2 9501.94 1327.12 4
34 -13 2 8386.68 1421.59 3
-13 -21 2 8513.17 1214.04 1
34 -12 -2 1585.97 963.252 3
-22 34 1 1917.54 854.778 4
-12 -22 1 2064.72 923.763 1
34 -12 1 1625.21 978.105 3
-22 34 4 -911.912 940.092 4
34 -12 4 865.379 1024.1 3
-12 -22 4 -162.902 886.324 1
34 -11 -3 1077.52 857.776 3
-23 34 0 2292.47 786.743 4
-11 -23 0 1007.18 827.752 1
34 -11 0 1775.04 1002.31 3
-11 -23 3 3256.25 1103.28 1
-23 34 3 5202.74 1154.1 4
34 -11 3 6583.64 1317.87 3
34 -10 -1 3199.63 1045.35 3
-10 -24 -1 2105.43 913.88 1
-10 -24 2 5266.01 1217.03 1
-24 34 2 8365.51 1243.02 4
34 -10 2 6779.67 1396.72 3
34 -9 -2 3846.47 1100.65 3
-25 34 1 3652.44 938.177 4
-9 -25 1 682.007 901.511 1
34 -9 1 3372.46 1089.57 3
34 -8 -3 751.789 882.198 3
-26 34 0 2934.83 856.784 4
-8 -26 0 1449.4 957.36 1
34 -8 0 4330.33 1191.57 3
-8 -26 3 -449.255 961.685 1
-26 34 3 2872.28 1027.43 4
34 -8 3 3131.68 1201.14 3
34 -7 -1 4839.18 1235 3
-7 -27 -1 1451.75 1050.55 1
-27 34 2 7222.73 1254.85 4
-7 -27 2 5125.15 1288.36 1
34 -7 2 5344.27 1316.88 3
-28 34 1 784.849 769.696 4
-6 -28 1 939.628 1036.5 1
34 -6 1 323.314 1008.47 3
-9 35 1 1573.19 1089.49 4
35 -26 1 2609.18 1132.72 3
35 -26 1 1871.72 1094.14 1
-10 35 0 1882.45 975.087 4
35 -25 0 3325.53 1102.72 3
35 -25 0 349.708 1136.81 1
-11 35 -1 1626.81 884.428 4
35 -24 -1 2285.71 1034.06 3
35 -24 -1 1318.9 1129.31 1
-11 35 2 2590.57 1111.4 4
35 -24 2 904.791 1024.37 3
-12 35 -2 1192.89 832.124 4
35 -23 -2 2164.51 1140.75 1
35 -23 -2 2045.66 970.5 3
-12 35 1 7803.19 1263.52 4
35 -23 1 12938.8 1561.66 3
35 -22 -3 3999.52 1064.79 3
-13 35 0 9945.88 1292.15 4
35 -22 0 10094.1 1424.16 3
35 -22 0 5761.76 1285.12 1
-13 35 3 1973.85 1055.46 4
35 -22 3 1896.62 1088.48 3
-14 35 -1 5578.81 1048.69 4
35 -21 -1 5249.22 1178.45 3
-14 35 2 3340.54 1076.73 4
35 -21 2 1125.48 988.087 3
-15 35 -2 -517.189 712.593 4
35 -20 -2 -832.595 911.516 3
-15 35 1 5645.34 1087.94 4
35 -20 1 5556.99 1266.59 3
35 -19 -3 -346.042 858.983 3
-16 35 0 7724.1 1141.32 4
35 -19 0 10689.6 1436.55 3
-16 35 3 1937.54 1071.93 4
35 -19 3 3008.53 1190.34 3
-17 35 -1 3397.3 902.359 4
35 -18 -1 5028.49 1183.36 3
-17 35 2 2029.33 1002.32 4
35 -18 2 -352.157 953.687 3
35 -17 -2 336.576 876.744 3
-18 35 1 2988.01 939.286 4
35 -17 1 5168.22 1202.2 3
35 -16 -3 163.027 868.528 3
-19 35 0 8979.98 1164.13 4
35 -16 0 10968 1498.25 3
-16 -19 3 1629.62 854.943 1
-19 35 3 -1181.25 1030.08 4
35 -16 3 -806.847 1053.24 3
-20 35 -1 5115.6 921.748 4
35 -15 -1 5540.28 1172.36 3
-20 35 2 -1623.13 919.493 4
35 -15 2 1056.78 1052.5 3
35 -14 -2 819.154 900.015 3
-21 35 1 5526.3 1048.71 4
35 -14 1 3360.92 1151.74 3
35 -13 -3 1450.63 930.857 3
-22 35 0 5071.4 980.848 4
35 -13 0 8190.48 1329.11 3
-13 -22 3 -570.6 879.202 1
-22 35 3 1775.08 985.583 4
35 -13 3 2035.16 1101.34 3
35 -12 -1 11287.5 1495.4 3
-12 -23 2 1319.88 986.429 1
-23 35 2 2787.58 986.008 4
35 -12 2 2321.32 1165.31 3
35 -11 -2 2476.05 1081.08 3
-24 35 1 1341.74 851.335 4
-11 -24 1 2406.48 1009.7 1
35 -11 1 2906.57 1095.76 3
-25 35 0 1435.31 800.91 4
-10 -25 0 105.61 923.504 1
35 -10 0 2827.01 1088.16 3
35 -9 -1 929.588 1037.91 3
-13 36 -1 1953.17 941.674 4
36 -23 -1 2255.39 1100.41 3
-14 36 1 5856.57 1219.68 4
36 -22 1 8113.42 1363.97 3
-15 36 0 795.672 834.662 4
36 -21 0 2891.28 1072.37 3
-16 36 -1 12.2694 754.192 4
36 -20 -1 621.343 898.072 3
-16 36 2 -978.819 962.691 4
36 -20 2 -561.625 978.125 3
36 -19 -2 5908.08 1192.05 3
-17 36 1 1424.92 900.671 4
36 -19 1 319.891 957.047 3
-18 36 0 3048.58 909.976 4
36 -18 0 1775.73 1027.73 3
36 -17 -1 2660.87 1089.39 3
-19 36 2 3163.46 1041.18 4
36 -17 2 4290.96 1234.13 3
36 -16 -2 2786.3 1042.58 3
-20 36 1 921.11 849.552 4
36 -16 1 -127.183 993.816 3
-21 36 0 257.153 782.44 4
36 -15 0 613.802 978.678 3
36 -14 -1 6117.21 1306.07 3
-23 36 1 1180.7 861.642 4
36 -13 1 -959.633 1087.75 3
