#------------------------------------------------------------------------------
#$Date: 2020-08-22 01:53:25 +0300 (Sat, 22 Aug 2020) $
#$Revision: 255529 $
#$URL: file:///home/coder/svn-repositories/cod/cif/4/13/51/4135176.cif $
#------------------------------------------------------------------------------
#
# This file is available in the Crystallography Open Database (COD),
# http://www.crystallography.net/
#
# All data on this site have been placed in the public domain by the
# contributors.
#
data_4135176
loop_
_publ_author_name
'Yan, Yong'
'Carrington, Elliot J.'
'P\'etuya, R\'emi'
'Whitehead, George F. S.'
'Verma, Ajay'
'Hylton, Rebecca K.'
'Tang, Chiu C.'
'Berry, Neil G.'
'Darling, George R.'
'Dyer, Matthew S.'
'Antypov, Dmytro'
'Katsoulidis, Alexandros P.'
'Rosseinsky, Matthew J.'
_publ_section_title
;
 Amino Acid Residues Determine the Response of Flexible Metal-Organic
 Frameworks to Guests.
;
_journal_name_full               'Journal of the American Chemical Society'
_journal_paper_doi               10.1021/jacs.0c03853
_journal_year                    2020
_chemical_formula_moiety         'C7 H7 N3 O3 Zn'
_chemical_formula_sum            'C7 H7 N3 O3 Zn'
_chemical_formula_weight         246.53
_space_group_crystal_system      trigonal
_space_group_IT_number           146
_space_group_name_Hall           'R 3'
_space_group_name_H-M_alt        'R 3 :H'
_atom_sites_solution_hydrogens   geom
_atom_sites_solution_primary     direct
_audit_creation_date             2019-08-19
_audit_creation_method
;
Olex2 1.2
(compiled 2018.05.29 svn.r3508 for OlexSys, GUI svn.r5506)
;
_cell_angle_alpha                90
_cell_angle_beta                 90
_cell_angle_gamma                120
_cell_formula_units_Z            18
_cell_length_a                   24.035(3)
_cell_length_b                   24.035(3)
_cell_length_c                   10.2251(5)
_cell_measurement_reflns_used    1428
_cell_measurement_temperature    195
_cell_measurement_theta_max      24.2130
_cell_measurement_theta_min      1.6410
_cell_volume                     5115.5(9)
_computing_cell_refinement       'CrysAlisPro 1.171.39.46 (Rigaku OD, 2018)'
_computing_data_collection       'CrysAlisPro 1.171.39.46 (Rigaku OD, 2018)'
_computing_data_reduction        'CrysAlisPro 1.171.39.46 (Rigaku OD, 2018)'
_computing_molecular_graphics    'Olex2 (Dolomanov et al., 2009)'
_computing_publication_material  'Olex2 (Dolomanov et al., 2009)'
_computing_structure_refinement  'ShelXL (Sheldrick, 2015)'
_computing_structure_solution    'XS (Sheldrick, 2008)'
_diffrn_ambient_temperature      195
_diffrn_detector                 'CCD plate'
_diffrn_measured_fraction_theta_full 0.997
_diffrn_measured_fraction_theta_max 0.997
_diffrn_measurement_details
;
List of Runs (angles in degrees, time in seconds):

  # Type    Start    End  Width  t~exp~   \w     \q     \k     \f   Frames
--------------------------------------------------------------------------
  1  \w   -112.00  26.00   0.20    0.20    --   30.00  45.00   0.00  690
  2  \w   -112.00  26.00   0.20    0.20    --   30.00  45.00  40.00  690
  3  \w   -112.00  26.00   0.20    0.20    --   30.00  45.00 160.00  690
;
_diffrn_measurement_device       'abstract diffractometer'
_diffrn_measurement_device_type
'dectris-CrysAlisPro-abstract goniometer imported dectris images'
_diffrn_measurement_method       '\w scans'
_diffrn_orient_matrix_type
'CrysAlisPro convention (1999,Acta A55,543-557)'
_diffrn_orient_matrix_UB_11      -0.0092527000
_diffrn_orient_matrix_UB_12      0.0133510000
_diffrn_orient_matrix_UB_13      0.0490444000
_diffrn_orient_matrix_UB_21      -0.0316582000
_diffrn_orient_matrix_UB_22      -0.0227372000
_diffrn_orient_matrix_UB_23      -0.0106749000
_diffrn_orient_matrix_UB_31      0.0024886000
_diffrn_orient_matrix_UB_32      -0.0199847000
_diffrn_orient_matrix_UB_33      0.0450052000
_diffrn_radiation_monochromator  synchrotron
_diffrn_radiation_probe          x-ray
_diffrn_radiation_type           synchrotron
_diffrn_radiation_wavelength     0.6889
_diffrn_reflns_av_R_equivalents  0.0556
_diffrn_reflns_av_unetI/netI     0.0644
_diffrn_reflns_Laue_measured_fraction_full 0.997
_diffrn_reflns_Laue_measured_fraction_max 0.997
_diffrn_reflns_limit_h_max       24
_diffrn_reflns_limit_h_min       -21
_diffrn_reflns_limit_k_max       24
_diffrn_reflns_limit_k_min       -21
_diffrn_reflns_limit_l_max       10
_diffrn_reflns_limit_l_min       -10
_diffrn_reflns_number            5294
_diffrn_reflns_point_group_measured_fraction_full 0.953
_diffrn_reflns_point_group_measured_fraction_max 0.953
_diffrn_reflns_theta_full        20.119
_diffrn_reflns_theta_max         20.119
_diffrn_reflns_theta_min         1.642
_diffrn_source                   synchrotron
_exptl_absorpt_coefficient_mu    1.981
_exptl_absorpt_correction_T_max  1.00000
_exptl_absorpt_correction_T_min  0.10781
_exptl_absorpt_correction_type   multi-scan
_exptl_absorpt_process_details
;
CrysAlisPro 1.171.39.46 (Rigaku Oxford Diffraction, 2018)
Empirical absorption correction using spherical harmonics,
 implemented in SCALE3 ABSPACK scaling algorithm.
;
_exptl_crystal_density_diffrn    1.440
_exptl_crystal_description       needle
_exptl_crystal_F_000             2232
_exptl_crystal_preparation       'In situ CO2 Loading 0.1bar CO2 195K'
_exptl_crystal_size_max          0.26
_exptl_crystal_size_mid          0.05
_exptl_crystal_size_min          0.05
_refine_diff_density_max         1.327
_refine_diff_density_min         -0.646
_refine_diff_density_rms         0.174
_refine_ls_abs_structure_details
;
 Flack x determined using 677 quotients [(I+)-(I-)]/[(I+)+(I-)]
 (Parsons, Flack and Wagner, Acta Cryst. B69 (2013) 249-259).
;
_refine_ls_abs_structure_Flack   -0.03(7)
_refine_ls_extinction_method     none
_refine_ls_goodness_of_fit_ref   1.062
_refine_ls_hydrogen_treatment    constr
_refine_ls_matrix_type           full
_refine_ls_number_parameters     255
_refine_ls_number_reflns         2275
_refine_ls_number_restraints     148
_refine_ls_restrained_S_all      1.040
_refine_ls_R_factor_all          0.1019
_refine_ls_R_factor_gt           0.0857
_refine_ls_shift/su_max          0.003
_refine_ls_shift/su_mean         0.000
_refine_ls_structure_factor_coef Fsqd
_refine_ls_weighting_details
'w=1/[\s^2^(Fo^2^)+(0.1787P)^2^] where P=(Fo^2^+2Fc^2^)/3'
_refine_ls_weighting_scheme      calc
_refine_ls_wR_factor_gt          0.2207
_refine_ls_wR_factor_ref         0.2345
_reflns_Friedel_coverage         0.912
_reflns_Friedel_fraction_full    0.909
_reflns_Friedel_fraction_max     0.909
_reflns_number_gt                1837
_reflns_number_total             2275
_reflns_threshold_expression     'I > 2\s(I)'
_cod_data_source_file            ZnAlaPyr_LowLoadingCO2_Insitu-SCXRD_195K.cif
_cod_data_source_block           ZnAlaPyr_LowLoadingCO2_Insitu_SCXRD
_cod_original_cell_volume        5115.4(11)
_cod_original_sg_symbol_H-M      'R 3'
_cod_database_code               4135176
_shelx_shelxl_version_number     2014/7
_chemical_oxdiff_formula         'Zn C7 H7 N3 O3'
_shelx_space_group_comment
;
The symmetry employed for this shelxl refinement is uniquely defined
by the following loop, which should always be used as a source of
symmetry information in preference to the above space-group names.
They are only intended as comments.
;
_shelx_estimated_absorpt_t_max   0.907
_shelx_estimated_absorpt_t_min   0.627
_reflns_odcompleteness_completeness 97.91
_reflns_odcompleteness_iscentric 1
_reflns_odcompleteness_theta     24.20
_olex2_refinement_description
;
1. Fixed Uiso
 At 1.2 times of:
  All C(H) groups, All N(H) groups
 At 1.5 times of:
  All C(H,H,H) groups
2. Restrained distances
 C7-C5
 1.5 with sigma of 0.02
 C12-C14
 1.5 with sigma of 0.02
3. Rigid bond restraints
 C7, C5
 with sigma for 1-2 distances of 0.005 and sigma for 1-3 distances of 0.01
4. Uiso/Uaniso restraints and constraints
N5 \\sim C9 \\sim C10 \\sim C8 \\sim N4: within 2A with sigma of 0.01 and sigma
for terminal atoms of 0.02
N2 \\sim N1 \\sim C1 \\sim C3 \\sim C2: within 2A with sigma of 0.01 and sigma
for terminal atoms of 0.02
O4 \\sim C13 \\sim O5: within 2A with sigma of 0.01 and sigma for terminal
atoms of 0.02
O1 \\sim C6 \\sim O2: within 2A with sigma of 0.01 and sigma for terminal atoms
of 0.02
C5 \\sim C7: within 2A with sigma of 0.01 and sigma for terminal atoms of 0.02
C11 \\sim O6 \\sim N6: within 2A with sigma of 0.01 and sigma for terminal
atoms of 0.02
N3 \\sim C4 \\sim O3: within 2A with sigma of 0.01 and sigma for terminal atoms
of 0.02
Uanis(N4) \\sim Ueq: with sigma of 0.1 and sigma for terminal atoms of 0.2
Uanis(O5) \\sim Ueq, Uanis(C13) \\sim Ueq, Uanis(O4) \\sim Ueq: with sigma of
0.05 and sigma for terminal atoms of 0.1
5.a Ternary CH refined with riding coordinates:
 C12(H12), C5(H5)
5.b Aromatic/amide H refined with riding coordinates:
 N3(H3), N6(H6), C2(H2), C9(H9), C8(H8), C1(H1)
5.c Idealised Me refined as rotating group:
 C14(H14A,H14B,H14C), C7(H7A,H7B,H7C)
;
_shelx_res_file
;
    znalapyr_26_0.res created by SHELXL-2014/7

TITL ZnAlaPyr_26_0 in R3 #146
REM reset to R3 #146
CELL 0.6889 24.034805 24.034805 10.225098 90 90 120
ZERR 18 0.00264 0.00264 0.000466 0 0 0
LATT -3
SYMM -Y,+X-Y,+Z
SYMM +Y-X,-X,+Z
SFAC C H N O Zn
DISP C 0.0032 0.0015 10.8482
DISP H -0 0 0.6228
DISP N 0.006 0.003 18.3366
DISP O 0.0108 0.0057 30.1916
DISP Zn 0.3262 1.3876 5404.7932
UNIT 126 126 54 54 18
DFIX 1.5 C7 C5
DFIX 1.5 C12 C14
DELU 0.005 0.01 C7 C5
SIMU 0.01 0.02 2 N5 C9 C10 C8 N4
SIMU 0.01 0.02 2 N2 N1 C1 C3 C2
SIMU 0.01 0.02 2 O4 C13 O5
SIMU 0.01 0.02 2 O1 C6 O2
SIMU 0.01 0.02 2 C5 C7
SIMU 0.01 0.02 2 C11 O6 N6
SIMU 0.01 0.02 2 N3 C4 O3
ISOR N4
ISOR 0.05 0.1 O5 C13 O4

L.S. 50
PLAN  20
SIZE 0.26 0.05 0.05
TEMP -78.15
BOND
ABIN
fmap 2
acta
SHEL 999 1
REM <olex2.extras>
REM <HklSrc "%.\\ZnAlaPyr_26_0.hkl">
REM </olex2.extras>

WGHT    0.178700
FVAR       1.70059
ZN2   5    0.681937    0.647669    1.219492    11.00000    0.07467    0.07020 =
         0.00864   -0.00199   -0.00076    0.03757
ZN1   5    0.348842    0.366037    1.048278    11.00000    0.07437    0.06994 =
         0.00782    0.00008   -0.00108    0.03893
N5    3    0.659603    0.592396    1.060082    11.00000    0.07042    0.03520 =
         0.00961    0.00181   -0.00354    0.02905
N2    3    0.326791    0.400233    0.896288    11.00000    0.06286    0.06718 =
         0.01271   -0.00150   -0.00643    0.03267
O5    4    0.427129    0.365079    1.032822    11.00000    0.09442    0.08580 =
         0.01386   -0.00365   -0.01672    0.04718
N4    3    0.663167    0.610109    0.946159    11.00000    0.07847    0.04662 =
         0.01318    0.00508   -0.00834    0.02925
O1    4    0.070098    0.432083    0.690683    11.00000    0.06115    0.07900 =
         0.02047   -0.00636   -0.00761    0.04212
O4    4    0.401355    0.306063    0.854098    11.00000    0.08569    0.08524 =
         0.02354   -0.00664   -0.00921    0.04429
O2    4    0.093926    0.395926    0.867688    11.00000    0.07785    0.09410 =
         0.01270   -0.00821   -0.00624    0.04900
O6    4    0.576468    0.424913    0.775507    11.00000    0.10116    0.07059 =
         0.01461    0.00893   -0.00391    0.03391
O3    4    0.238983    0.483516    0.610283    11.00000    0.08605    0.08781 =
         0.03288    0.00189   -0.00573    0.04905
N3    3    0.219022    0.492485    0.827348    11.00000    0.06096    0.08626 =
         0.03249   -0.00001   -0.00554    0.03878
AFIX  43
H3    2    0.233194    0.496478    0.908105    11.00000   -1.20000
AFIX   0
C4    1    0.248946    0.477510    0.731578    11.00000    0.05625    0.07790 =
         0.02592   -0.00558   -0.00473    0.03575
N6    3    0.552483    0.392765    0.981076    11.00000    0.10091    0.06878 =
         0.01774    0.00406   -0.00054    0.04405
AFIX  43
H6    2    0.563225    0.401339    1.063973    11.00000   -1.20000
AFIX   0
C3    1    0.285969    0.446012    0.778655    11.00000    0.05959    0.06508 =
         0.02120   -0.00037    0.00462    0.03602
N1    3    0.329539    0.384576    0.770660    11.00000    0.06984    0.07348 =
         0.01891    0.00187   -0.00937    0.02780
C11   1    0.589325    0.441167    0.892819    11.00000    0.10573    0.06350 =
         0.02430    0.00706   -0.00266    0.04435
C2    1    0.305834    0.442766    0.898144    11.00000    0.06347    0.06765 =
         0.02073   -0.00653    0.00527    0.03880
AFIX  43
H2    2    0.305345    0.466388    0.972198    11.00000   -1.20000
AFIX   0
C10   1    0.621421    0.505992    0.941027    11.00000    0.07879    0.05166 =
         0.01826   -0.00243   -0.00803    0.02308
C6    1    0.107600    0.438847    0.780466    11.00000    0.07042    0.08537 =
         0.01469   -0.00577   -0.01074    0.04598
C9    1    0.636663    0.533802    1.058685    11.00000    0.07084    0.04525 =
         0.01518    0.00523   -0.00982    0.02968
AFIX  43
H9    2    0.630170    0.509759    1.136581    11.00000   -1.20000
AFIX   0
C13   1    0.437580    0.335057    0.942034    11.00000    0.08725    0.08395 =
         0.01223   -0.00033   -0.01011    0.03731
C8    1    0.644276    0.558188    0.853687    11.00000    0.08420    0.05502 =
         0.01849   -0.00115   -0.00942    0.01971
AFIX  43
H8    2    0.646606    0.559035    0.760903    11.00000   -1.20000
AFIX   0
C14   1    0.492986    0.283704    1.049252    11.00000    0.05757    0.07429 =
         0.05605   -0.00464   -0.00139    0.02241
AFIX 137
H14A  2    0.497605    0.250049    1.005083    11.00000   -1.50000
H14B  2    0.450283    0.264765    1.089218    11.00000   -1.50000
H14C  2    0.525913    0.303628    1.117273    11.00000   -1.50000
AFIX   0
C12   1    0.500672    0.332400    0.954128    11.00000    0.06752    0.06885 =
         0.02162   -0.00804   -0.01253    0.03547
AFIX  13
H12   2    0.508853    0.318833    0.867153    11.00000   -1.20000
AFIX   0
C5    1    0.167316    0.501725    0.803542    11.00000    0.07981    0.10782 =
         0.04902   -0.01547   -0.02404    0.06717
AFIX  13
H5    2    0.159209    0.514063    0.891903    11.00000   -1.20000
AFIX   0
C1    1    0.304616    0.414170    0.690960    11.00000    0.06889    0.08277 =
         0.03105    0.00184   -0.00968    0.02604
AFIX  43
H1    2    0.301208    0.412832    0.598314    11.00000   -1.20000
AFIX   0
C7    1    0.185951    0.559116    0.728336    11.00000    0.10902    0.13322 =
         0.07189    0.01280   -0.01251    0.06274
AFIX 137
H7A   2    0.219409    0.596393    0.775391    11.00000   -1.50000
H7B   2    0.148544    0.564540    0.715270    11.00000   -1.50000
H7C   2    0.202573    0.555441    0.643205    11.00000   -1.50000
AFIX   0
HKLF 4

REM  ZnAlaPyr_26_0 in R3 #146
REM R1 =  0.0857 for    1837 Fo > 4sig(Fo)  and  0.1019 for all    2275 data
REM    255 parameters refined using    148 restraints

END

WGHT      0.1784      0.0000

REM Highest difference peak  1.327,  deepest hole -0.646,  1-sigma level  0.174
Q1    1   0.3519  0.3214  1.0443  11.00000  0.05    1.18
Q2    1   0.6883  0.7005  1.2163  11.00000  0.05    1.15
Q3    1   0.6486  0.6599  1.2204  11.00000  0.05    1.14
Q4    1   0.3876  0.3678  1.0481  11.00000  0.05    1.12
Q5    1   0.3522  0.3656  0.7214  11.00000  0.05    1.08
Q6    1   0.6313  0.6001  1.2140  11.00000  0.05    1.02
Q7    1   0.7282  0.6499  1.2213  11.00000  0.05    0.97
Q8    1   0.3024  0.3690  1.0446  11.00000  0.05    0.88
Q9    1   0.0657  0.4165  0.8786  11.00000  0.05    0.72
Q10   1   0.6310  0.5932  0.8966  11.00000  0.05    0.72
Q11   1   0.3050  0.3732  0.7254  11.00000  0.05    0.65
Q12   1   0.4051  0.3178  1.0420  11.00000  0.05    0.65
Q13   1   0.4574  0.4098  1.0539  11.00000  0.05    0.51
Q14   1   0.3506  0.1586  0.8342  11.00000  0.05    0.50
Q15   1   0.1539  0.5467  0.8867  11.00000  0.05    0.50
Q16   1   0.7296  0.6449  0.8815  11.00000  0.05    0.49
Q17   1   0.1182  0.3639  0.8901  11.00000  0.05    0.48
Q18   1   0.4046  0.4227  0.7093  11.00000  0.05    0.45
Q19   1   0.5792  0.5897  0.8917  11.00000  0.05    0.45
Q20   1   0.3544  0.1878  1.2293  11.00000  0.05    0.44
;
_shelx_res_checksum              34867
_shelx_hkl_file
;
   0   0 -12 116800. 4528.46   2
   0   0 -12 117731. 4791.80   1
   0   0  -9 2339.69 2264.56   2
   0   0  -9 2872.20 2490.14   1
   0   0  -6 999999. 27889.9   2
   0   0  -6 956338. 27841.0   1
   0   0  -3 14929.8 1321.16   2
   0   0  -3 16561.2 1589.69   1
   0   0   3 12805.6 1209.41   3
   1  -1 -10 6265.64 2146.64   2
   0   1 -10 7131.39 2159.96   2
  -1   0 -10 5779.92 2164.75   2
   1  -1 -10 7714.49 2346.24   1
   0   1 -10 6710.95 2370.95   1
  -1   0 -10 9111.88 2546.15   1
   0   1  -7 432.157 1984.17   2
   1  -1  -7 2559.88 2184.62   1
  -1   0  -7 358.590 1979.73   1
   1  -1  -7-708.464 2096.64   2
   0   1  -7 2329.40 2059.71   1
  -1   0  -7 1236.34 1906.09   2
   0   1  -4 65740.0 2411.24   2
  -1   0  -4 63274.5 2448.47   1
   1  -1  -4 64768.5 2499.81   1
   1  -1  -4 64042.9 2457.40   2
   0   1  -4 64174.3 2327.20   1
  -1   0  -4 61193.6 2322.88   2
   1  -1  -1 886.356 364.923   1
   0   1  -1 397.295 363.251   2
   0   1  -1 577.966 365.988   1
   1  -1  -1 508.099 398.682   2
  -1   0  -1 606.939 358.007   1
   0   1   2 161428. 4733.59   3
   1  -1   2 160292. 4684.82   3
  -1   0   2 163817. 4776.95   3
   0   1   5-505.020 1389.71   3
  -1   1 -11-331.487 2208.27   2
   0  -1 -11 1524.50 2184.29   2
   1   0 -11 1709.62 2221.21   2
   0  -1 -11 1176.80 2432.34   1
   0  -1  -8 10717.4 2454.41   2
   0  -1  -8 8780.85 2695.85   1
   1   0  -8 7009.63 2400.25   1
  -1   1  -8 7235.53 2528.03   1
  -1   1  -8 10081.1 2703.97   2
   1   0  -8 7631.14 2262.75   2
   1   0  -5 873.454 1536.89   2
   0  -1  -5-349.573 1337.65   2
   0  -1  -2 174083. 4855.44   1
  -1   1  -2 164904. 4798.02   1
   0  -1  -2 155173. 4815.95   2
   1   0  -2 169404. 4840.56   2
   1   0  -2 173399. 4871.24   1
  -1   1  -2 156737. 4812.42   2
  -1   1   1 2330.44 472.930   3
  -1   1   4 51210.8 2112.27   3
   1   0   4 51323.6 2036.97   3
  -1   1   7-2239.80 2412.58   3
  -2   1 -12 11804.5 2391.73   2
   1  -2 -12 12933.3 2830.76   1
   1   1 -12 7402.74 2205.79   2
   1  -2 -12 11783.8 2276.56   2
  -2   1 -12 14671.5 2759.08   1
   1   1  -9 148377. 5343.10   1
  -2   1  -9 168087. 5609.17   1
  -2   1  -9 176207. 5784.55   2
   1   1  -9 139105. 5307.27   2
   1  -2  -9 158466. 5457.96   1
   1  -2  -9 152181. 5397.72   2
   1   1  -6 185524. 6123.88   2
  -2   1  -6 193537. 6127.22   2
  -2   1  -6 212952. 6265.27   1
   1   1  -6 182114. 6066.24   1
   1  -2  -6 203713. 6234.89   1
   1  -2  -6 201786. 6249.19   2
  -2   1  -3 781339. 22230.7   2
   1  -2  -3 795352. 22267.4   1
   1   1  -3 781429. 22238.6   2
   1  -2  -3 783122. 22241.0   2
   1   1  -3 781382. 22217.2   1
  -2   1  -3 786877. 22203.3   1
   1   1   0 450741. 12675.2   3
   1   1   3 732548. 20775.4   3
  -2   1   6 207634. 6522.51   3
   1   2 -10 1347.06 2292.97   1
  -3   1 -10-1504.84 2621.90   2
  -3   1 -10 217.166 2563.05   1
   1   2 -10-790.758 2063.01   2
   2  -3 -10 2108.67 2268.62   1
  -3   1  -7 120616. 4153.02   1
  -3   1  -7 111676. 3953.47   2
   1   2  -7 91599.8 3750.88   1
   2  -3  -7 110190. 3998.32   1
   2  -3  -7 103320. 3941.61   2
   1   2  -7 101727. 3879.75   2
   2  -3  -4 13172.5 1544.00   2
   2  -3  -4 11240.3 1487.54   1
   1   2  -4 8677.29 1078.40   1
   1   2  -4 11220.0 1415.77   2
  -3   1  -4 12694.0 1276.03   1
  -3   1  -4 8838.65 1376.05   2
  -3   1  -1 85672.5 2497.49   1
   1   2  -1 81837.9 2496.72   2
   2  -3  -1 87870.9 2556.88   2
   2  -3  -1 90506.6 2566.40   1
   1   2   2 103709. 3255.57   3
   1   2   5 2649.76 1528.04   3
   1   2   8 8447.55 2845.60   3
   0   2 -11 2038.52 2132.73   2
  -2   0 -11 519.574 2314.70   2
  -2   0 -11 1844.52 2595.75   1
   2  -2 -11 1019.93 2551.54   1
   2  -2 -11 173.837 1988.44   2
  -2   0  -8 64026.8 3316.77   1
   2  -2  -8 64339.5 3224.89   1
   2  -2  -8 59458.3 3100.47   2
  -2   0  -8 64224.8 3209.68   2
   0   2  -8 66705.9 3280.68   2
   0   2  -8 69148.0 3469.17   1
  -2   0  -5 2823.97 1346.99   2
   2  -2  -5 3063.19 1521.46   1
  -2   0  -5 1499.88 1514.32   1
   2  -2  -5 1646.11 1424.53   2
   2  -2  -2 45363.2 1713.59   2
   2  -2  -2 45430.9 1756.30   1
  -2   0  -2 42619.4 1663.97   1
   0   2  -2 41146.2 1568.66   1
   0   2  -2 43115.3 1612.64   2
   0   2   1 476.630 590.756   3
   0   2   4 68810.3 2580.85   3
   0   2   7-35.5191 2249.60   3
  -1   2 -12 33699.9 2910.09   1
   2  -1 -12 28663.2 3011.89   1
  -1  -1 -12 33415.3 2684.07   2
  -1   2 -12 36850.8 2678.01   2
   2  -1 -12 28293.9 2586.74   2
  -1  -1 -12 40792.6 3042.78   1
  -1   2  -9 97908.1 4168.83   2
  -1   2  -9 109293. 4323.61   1
  -1  -1  -9 113983. 4474.74   2
  -1  -1  -9 122066. 4470.94   1
   2  -1  -9 108360. 4196.85   1
   2  -1  -9 98190.2 4168.17   2
   2  -1  -6 257832. 7939.34   2
  -1   2  -6 246610. 7836.66   1
  -1  -1  -6 254544. 7881.80   2
   2  -1  -6 258361. 7864.29   1
  -1   2  -6 273424. 7922.18   2
  -1  -1  -6 279095. 7985.59   1
  -1  -1  -3 685522. 19447.0   1
  -1  -1  -3 680479. 19465.2   2
   2  -1  -3 705731. 19475.4   2
  -1   2  -3 705551. 19446.2   2
   2  -1  -3 681279. 19447.8   1
  -1   2  -3 661941. 19411.2   1
   2  -1   0 532316. 14989.9   2
  -1   2   3 742031. 21161.7   3
   2  -1   3 747611. 21071.8   3
  -1   2   6 220654. 6979.14   3
  -2   2 -10 19894.9 2529.31   2
   0  -2 -10 19856.0 2433.83   2
   0  -2 -10 22656.3 2591.10   1
   2   0 -10 24003.6 2736.35   1
  -2   2 -10 25435.2 2816.43   1
   2   0 -10 20361.9 2335.29   2
  -2   2  -7 39.3566 1933.86   2
   2   0  -7-181.362 1828.99   2
  -2   2  -7-429.630 2103.67   1
   0  -2  -7-2143.93 2188.34   1
   2   0  -7 1595.10 1823.77   1
   0  -2  -7-341.026 1901.04   2
  -2   2  -4 68192.1 2410.29   1
   2   0  -4 65735.2 2470.89   1
   2   0  -4 69445.9 2566.42   2
  -2   2  -4 67389.6 2522.46   2
   0  -2  -4 74104.9 2528.99   2
   2   0  -1 731.264 410.369   1
   0  -2  -1 293.910 387.876   2
   2   0  -1 210.588 435.970   2
  -2   2  -1 304.821 240.085   1
   0  -2  -1-28.3649 517.756   1
   2   0   2 32591.2 1283.15   3
  -2   2   2 36297.0 1678.79   3
   2   0   5 998.701 1496.42   3
   1  -3 -11 2638.31 2482.29   1
   2   1 -11 1707.91 2111.86   2
   1  -3 -11 1833.66 2109.72   2
  -3   2 -11 1932.22 2293.46   2
   2   1  -8 2152.17 2303.53   1
  -3   2  -8 11.1905 2399.80   2
  -3   2  -8 1078.24 2474.05   1
   1  -3  -8 24.7814 2350.47   2
   1  -3  -8 1972.51 2428.81   1
   2   1  -8 1822.37 2034.29   2
   1  -3  -5 946.328 1374.73   2
  -3   2  -5 2472.82 1370.80   2
   2   1  -5 1923.74 1361.23   2
   1  -3  -5 1319.44 1616.52   1
   1  -3  -2 168653. 5176.46   2
   1  -3  -2 179560. 5277.70   1
   2   1  -2 181814. 5173.07   2
  -3   2  -2 183202. 5129.42   1
   2   1  -2 167739. 5136.30   1
   2   1   1 98484.9 2806.91   3
  -3   2   1 89151.3 2899.59   3
   2   1   4 8255.71 1534.61   3
  -3   2   7 88399.3 4150.86   3
   2   1   7 126131. 4464.59   3
   2   2 -12 24493.3 2500.77   2
  -4   2 -12 27524.1 3150.20   1
   2  -4 -12 25854.9 2410.62   2
   2  -4 -12 26787.3 2925.43   1
   2   2 -12 21898.7 3229.76   1
  -4   2 -12 23772.3 2613.39   2
  -4   2  -9 139588. 4821.40   1
   2  -4  -9 122744. 4500.17   2
   2   2  -9 109845. 4588.21   1
  -4   2  -9 123000. 4561.09   2
   2   2  -9 108311. 4389.05   2
   2  -4  -9 124632. 4496.79   1
   2  -4  -6 126517. 4285.81   1
  -4   2  -6 126326. 4207.03   2
   2  -4  -6 133333. 4367.17   2
  -4   2  -6 130308. 4191.93   1
   2   2  -6 123103. 4130.32   2
   2  -4  -3 409192. 11766.3   2
   2   2  -3 412371. 11734.8   2
   2  -4  -3 411672. 11765.9   1
  -4   2  -3 412234. 11705.0   1
   2   2  -3 401143. 11694.3   1
   2  -4   0 383705. 10740.5   1
   2   2   0 375873. 10749.4   3
   2   2   0 381503. 10798.9   2
  -4   2   3 433468. 12292.4   3
   2   2   3 421666. 12201.2   3
   2   2   9 114180. 4789.04   3
   2   3 -10 24624.0 2467.69   2
   2   3 -10 21833.9 2596.38   1
   2   3  -7 50673.9 2736.35   2
   3  -5  -7 54834.7 2828.05   1
  -5   2  -7 58321.8 2860.30   1
  -5   2  -7 53509.8 2729.37   2
   2   3  -7 51762.6 2655.10   1
   3  -5  -7 54440.8 2800.79   2
   2   3  -4 48765.4 1969.43   2
   2   3  -4 49130.1 1974.99   1
   3  -5  -1 205347. 5792.56   1
   3  -5  -1 200433. 5726.14   2
   2   3  -1 194863. 5732.06   3
   2   3  -1 199279. 5767.48   2
   2   3   2 75834.1 2542.71   3
   2   3   8 50150.4 4277.48   3
   1   3 -11 2190.02 2248.68   2
   3  -4 -11 4457.50 2547.81   1
  -4   1 -11 4339.98 2665.14   2
   3  -4 -11 919.976 1959.09   2
  -4   1 -11 3081.46 2662.66   1
  -4   1  -8 42054.8 2968.01   2
   1   3  -8 29006.3 2298.37   1
  -4   1  -8 48303.5 3356.11   1
   3  -4  -8 39269.6 2783.70   1
   1   3  -8 31441.6 2565.23   2
   3  -4  -8 36271.2 2636.90   2
   3  -4  -5 82961.7 3035.46   2
   1   3  -5 76789.8 2932.64   1
   3  -4  -5 85435.8 3044.33   1
  -4   1  -5 85806.1 3032.94   2
  -4   1  -5 87356.4 2986.84   1
   3  -4  -2 239781. 6938.10   2
   3  -4  -2 246550. 6994.13   1
   1   3  -2 236036. 6861.23   1
   1   3  -2 237225. 6916.16   2
  -4   1  -2 238020. 6887.04   1
   1   3   1 5426.06 1034.14   3
   1   3   4 16330.8 1329.97   3
   1   3   7 30406.4 2890.21   3
   3  -3 -12 50545.7 2955.28   2
   3  -3 -12 57237.2 3522.77   1
  -3   0 -12 57030.6 3177.52   2
   0   3 -12 48268.0 2997.77   2
   0   3 -12 49450.4 3440.80   1
  -3   0 -12 64785.7 3587.07   1
   3  -3  -9 3252.53 2403.99   1
   3  -3  -9-298.812 1921.66   2
   0   3  -9 1581.78 2043.50   2
   0   3  -9 3884.13 2521.92   1
  -3   0  -9 527.676 2215.47   2
  -3   0  -9 2228.32 2388.87   1
  -3   0  -6 705527. 20055.6   2
   0   3  -6 681734. 20021.0   1
   3  -3  -6 714568. 20046.5   1
   0   3  -6 683762. 20055.3   2
   3  -3  -6 685842. 20052.4   2
  -3   0  -6 719810. 20082.8   1
   3  -3  -3 1129.53 1311.10   1
   0   3  -3 1304.52 983.364   1
  -3   0  -3 3602.04 1105.84   1
   3  -3  -3 742.937 1196.42   2
   0   3  -3-158.076 1151.14   2
  -3   0  -3 3804.88 1209.14   2
   3  -3   0 784379. 21759.4   1
   0   3   0 773605. 21731.7   3
   3  -3   0 763964. 21711.5   2
   0   3   3 7601.98 1121.73   3
   0   3   6 408598. 12168.2   3
   0   3   9 2458.14 2833.81   3
   3  -2 -10 3201.70 2414.71   1
  -1   3 -10 2410.42 2319.40   1
  -1   3 -10 2353.23 2292.48   2
  -2  -1 -10 1915.38 2582.11   1
  -2  -1  -7 118156. 4219.41   2
   3  -2  -7 113798. 4165.56   1
  -1   3  -7 117415. 4290.66   2
   3  -2  -7 106309. 4085.06   2
  -1   3  -7 103408. 4048.11   1
  -2  -1  -4 7515.32 1189.19   1
   3  -2  -4 5916.99 1452.77   1
  -2  -1  -4 5683.32 1214.26   2
  -1   3  -4 4643.90 1123.14   2
   3  -2  -4 5753.76 1210.79   2
  -1   3  -4 4398.93 1129.11   1
   3  -2  -1 94895.6 2730.47   1
  -2  -1  -1 98736.1 2697.06   1
  -1   3  -1 93301.7 2656.01   3
   3  -2  -1 95243.6 2705.00   2
  -1   3   2 139533. 4288.00   3
  -1   3   8-1273.77 2820.11   3
  -1  -2 -11 1552.21 2268.07   2
  -1  -2 -11 3289.80 2399.42   1
   3  -1 -11-406.723 2092.15   2
  -2   3 -11 2411.19 2312.94   2
  -1  -2  -8 7879.83 2208.56   2
   3  -1  -8 7231.13 2055.91   2
  -2   3  -8 7200.99 2642.01   2
  -2   3  -8 9346.49 2528.40   1
  -1  -2  -8 10986.1 2561.67   1
   3  -1  -8 9184.99 2386.36   1
  -1  -2  -5 3840.20 1300.70   2
  -1  -2  -5 3422.70 1582.88   1
   3  -1  -5 4182.30 1390.03   2
  -2   3  -2 114101. 3699.82   1
   3  -1  -2 129938. 3847.53   1
   3  -1  -2 138605. 3807.78   2
  -1  -2  -2 129421. 3846.39   2
  -2   3  -2 125301. 3731.86   2
  -1  -2  -2 123038. 3785.05   1
  -2   3   1 82797.4 2544.15   3
   3  -1   4 8613.25 1132.44   3
  -2   3   4 8997.45 1617.86   3
  -2   3   7 82439.7 3686.77   3
   0  -3 -12 62386.8 3240.25   2
   0  -3 -12 66262.7 3450.68   1
  -3   3 -12 65137.4 3338.36   2
   3   0 -12 60465.6 3231.61   2
  -3   3 -12 61247.0 3549.81   1
  -3   3  -9 4899.10 2832.11   2
   3   0  -9 6280.79 2301.90   1
  -3   3  -9 8717.99 2562.34   1
   0  -3  -9 2298.28 2284.72   2
   0  -3  -9 6638.85 2504.22   1
   3   0  -9 3343.11 1953.92   2
   0  -3  -6 427813. 12479.3   2
   3   0  -6 407926. 12435.6   1
  -3   3  -6 416281. 12440.4   1
   0  -3  -6 442175. 12489.7   1
   3   0  -6 417600. 12430.4   2
  -3   3  -6 449106. 12500.2   2
  -3   3  -3 10487.9 1156.38   1
  -3   3  -3 8595.89 1052.80   2
   3   0  -3 10299.7 1138.78   1
   0  -3  -3 10781.2 1254.06   2
   0  -3  -3 8723.78 1357.01   1
   3   0  -3 10868.5 1336.33   2
   3   0   0 681812. 18985.3   2
  -3   3   0 667107. 18945.3   3
   3   0   3 2644.68 1028.71   3
  -3   3   3-315.448 1363.25   3
  -3   3   6 537995. 15647.5   3
  -4   3 -10 29086.2 2727.15   1
   3   1 -10 26206.6 2651.57   1
  -4   3 -10 31118.2 2891.68   2
   3   1 -10 24195.0 2479.42   2
   1  -4 -10 30104.9 2617.54   1
  -4   3  -7 41682.6 2555.48   2
   3   1  -7 40003.3 2520.29   1
  -4   3  -7 45796.2 2741.07   1
   1  -4  -7 39607.1 2657.82   2
   3   1  -7 40898.2 2417.40   2
   1  -4  -7 44279.4 2995.08   1
   3   1  -4 13981.6 1237.35   1
   3   1  -4 15407.2 1394.97   2
  -4   3  -4 14165.6 1309.03   2
  -4   3  -4 16845.8 1244.78   1
   1  -4  -4 16379.9 1417.72   2
   3   1  -1 5633.87 862.428   1
   1  -4  -1 5546.70 610.765   2
   1  -4  -1 6640.11 814.983   1
   3   1  -1 5175.09 702.476   2
  -4   3   2 151237. 4714.16   3
   3   1   2 155202. 4536.40   3
   3   1   5 51472.4 2441.73   3
  -4   3   5 41125.0 2308.26   3
   3   1   8 31247.4 3046.49   3
   3   2 -11 2865.21 2197.42   2
   2  -5 -11 559.966 2535.24   1
  -5   3 -11 3761.93 2820.53   2
   2  -5 -11 2950.54 2149.38   2
  -5   3  -8 62485.1 3359.35   1
   3   2  -8 48473.3 2900.95   1
  -5   3  -8 62442.0 3209.50   2
   3   2  -8 55965.0 3007.98   2
   2  -5  -8 58701.1 3177.64   2
   2  -5  -8 59070.0 3212.46   1
  -5   3  -5 16185.3 1522.72   2
  -5   3  -5 17479.0 1533.86   1
   2  -5  -5 17454.7 1779.12   1
   3   2  -5 18233.7 1585.55   2
   2  -5  -5 19303.3 1761.21   2
   2  -5  -2 101107. 3052.59   2
   3   2  -2 98226.0 3036.08   2
  -5   3  -2 101265. 2986.53   1
   3   2   1 196141. 5739.18   3
  -5   3   1 201938. 5891.00   3
   3   2   4 35960.5 1655.39   3
   3   2   7 65201.2 3495.82   3
  -6   3  -9 1726.72 2246.52   2
   3  -6  -9 3945.80 2237.77   1
  -6   3  -9 3368.94 2322.19   1
   3  -6  -9 3725.57 2008.05   2
   3   3  -9 1505.73 2137.00   2
   3   3  -9 2817.42 1888.54   1
  -6   3  -6 131501. 4467.02   2
   3  -6  -6 139887. 4597.27   2
   3  -6  -6 132852. 4469.63   1
   3   3  -6 142561. 4465.34   2
  -6   3  -6 141869. 4484.03   1
   3   3  -3 9572.66 1046.06   1
   3  -6  -3 9670.08 1362.52   1
  -6   3  -3 9019.80 957.305   1
   3  -6  -3 6090.30 1278.54   2
   3   3  -3 9557.70 1157.23   2
   3   3   0 288519. 8383.43   3
   3  -6   0 296184. 8398.35   1
   3   3   0 299695. 8562.41   2
  -6   3   3 20066.2 1648.49   3
   3   3   3 27450.6 1470.01   3
   3   4 -10 14964.0 2439.93   1
   3   4 -10 14360.2 2291.67   2
  -7   3 -10 14327.0 2786.70   1
  -7   3  -7 29610.1 2261.09   1
  -7   3  -7 27487.2 2267.27   2
   3   4  -7 28437.5 2202.85   2
   4  -7  -7 23199.3 2321.19   2
   4  -7  -7 24830.7 2489.24   1
   3   4  -7 19397.9 1869.69   1
   3   4  -4 74105.8 2635.84   1
   4  -7  -4 86400.8 2968.41   1
   4  -7  -1 71105.9 2257.42   2
   3   4  -1 72949.8 2321.13   3
   3   4  -1 67148.6 2534.86   2
   3   4   2 44443.2 1925.68   3
   3   4   8 6029.20 3421.22   3
   4  -6 -11 26002.4 2402.75   2
   4  -6 -11 29223.0 2817.10   1
  -6   2 -11 32643.7 2668.85   2
  -6   2 -11 33069.1 3033.58   1
   2   4 -11 27858.1 2597.97   2
   4  -6  -8 3183.32 2241.36   2
   4  -6  -8 4646.93 2691.30   1
   2   4  -8 2854.60 2065.98   1
  -6   2  -8 5265.02 2500.98   2
   2   4  -8 3924.00 2061.94   2
  -6   2  -8 4208.40 2735.71   1
   4  -6  -5 116619. 3821.66   1
  -6   2  -5 99468.8 3625.31   2
   4  -6  -5 109185. 3716.17   2
   2   4  -5 108900. 3670.23   2
   2   4  -5 107813. 3671.67   1
  -6   2  -5 112996. 3652.53   1
   2   4  -2 71796.1 2337.91   1
   4  -6  -2 77587.2 2396.65   2
   4  -6  -2 80074.9 2484.87   1
  -6   2  -2 77469.2 2326.17   1
   2   4   1 253434. 7378.23   3
   2   4   4 6803.05 1356.03   3
   2   4   7 116362. 4635.01   3
   4  -5  -9 44022.7 2730.81   2
   4  -5  -9 56140.4 3142.99   1
   1   4  -9 46810.8 2913.39   2
   1   4  -9 44280.7 2770.83   1
  -5   1  -9 52179.1 2941.73   2
  -5   1  -6 27367.1 1969.04   2
   1   4  -6 25110.3 1831.54   2
   4  -5  -6 26220.6 2239.39   1
  -5   1  -6 26218.8 1909.93   1
   4  -5  -3 336790. 10090.6   2
   4  -5  -3 362354. 10156.8   1
   1   4  -3 359922. 10025.7   1
   1   4  -3 344735. 10056.9   2
  -5   1  -3 347515. 10056.9   1
   4  -5   0 34270.6 1239.14   2
   4  -5   0 31440.8 1515.35   1
   1   4   0 32422.1 1353.91   3
   1   4   3 412579. 11868.8   3
   1   4   6 56886.1 2802.10   3
   1   4   9 92328.1 4649.84   3
  -4   0 -10 74586.3 3464.21   1
   0   4 -10 63042.2 3208.98   2
   0   4 -10 61821.8 3231.25   1
   4  -4 -10 71944.6 3496.33   1
   4  -4  -7 1971.04 1859.10   2
  -4   0  -7 2750.04 1891.47   2
   4  -4  -7 918.254 2250.36   1
  -4   0  -7-107.581 2299.88   1
   0   4  -7 3182.37 1806.51   1
   0   4  -7 364.400 2009.51   2
   0   4  -4 20129.5 1399.45   1
   0   4  -4 22759.3 1325.16   2
   4  -4  -1 845.832 611.960   2
   4  -4  -1 2316.79 1095.83   1
   0   4  -1 218.401 557.639   2
   0   4  -1 1411.15 672.371   3
   0   4   2 244574. 7175.25   3
   0   4   8 117868. 5138.29   3
  -3  -1 -11 4019.60 2846.77   1
  -1   4 -11 69.0467 2467.27   2
   4  -3 -11-920.896 2028.76   2
   4  -3 -11 1016.53 2450.00   1
  -3  -1 -11 2159.43 2713.45   2
   4  -3  -8 39625.4 3037.00   1
  -3  -1  -8 42705.5 2844.61   2
  -1   4  -8 33315.4 2683.82   2
  -3  -1  -8 49062.3 3289.46   1
   4  -3  -8 36426.3 2522.04   2
  -1   4  -8 41932.6 3362.31   1
   4  -3  -5 55625.4 2370.37   2
  -3  -1  -5 63562.2 2459.66   2
   4  -3  -5 66986.7 2666.83   1
  -1   4  -5 55207.7 2311.15   1
  -3  -1  -5 64533.8 2396.78   1
   4  -3  -2 198037. 5792.39   2
  -3  -1  -2 203320. 5775.31   1
  -1   4  -2 198942. 5770.08   2
  -1   4  -2 191629. 5659.43   1
   4  -3  -2 197173. 5849.23   1
  -1   4   1 4077.23 986.401   3
  -1   4   4 18900.3 1773.81   3
  -1   4   7 38667.3 3215.60   3
  -1   4  10 23220.7 3465.20   3
  -2  -2 -12 15787.4 2497.22   2
   4  -2 -12 13877.6 2885.74   1
   4  -2 -12 14799.5 2366.20   2
  -2   4 -12 13744.6 2428.22   2
  -2  -2 -12 17581.9 2705.50   1
  -2   4 -12 9629.40 2678.32   1
  -2   4  -9 127379. 4676.70   1
  -2  -2  -9 124285. 4563.18   2
   4  -2  -9 112219. 4376.46   2
  -2   4  -9 118218. 4486.16   2
  -2  -2  -9 123640. 4634.02   1
   4  -2  -9 127310. 4664.00   1
  -2   4  -6 47069.5 2364.79   1
   4  -2  -6 48261.1 2288.40   2
   4  -2  -6 54053.0 2637.88   1
  -2  -2  -6 47739.0 2344.40   2
  -2   4  -6 48456.8 2337.20   2
  -2  -2  -6 47110.3 2561.57   1
  -2  -2  -3 528703. 15036.4   2
  -2   4  -3 518784. 14960.9   1
   4  -2  -3 542228. 15059.9   2
  -2   4  -3 544518. 15014.8   2
  -2  -2  -3 518612. 15012.4   1
   4  -2  -3 514849. 15032.9   1
  -2   4   0 413131. 11824.9   3
   4  -2   0 422632. 11854.3   2
  -2   4   3 360161. 10439.3   3
   4  -2   3 360412. 10253.2   3
  -2   4   6 117223. 4318.98   3
  -2   4   9 116394. 5696.96   3
   4  -1 -10 40668.9 2936.33   1
  -3   4 -10 42823.7 2896.58   2
  -3   4 -10 46865.7 3452.01   1
  -3   4  -7 33585.4 2309.51   2
  -3   4  -7 32108.4 2438.24   1
  -1  -3  -7 30104.9 2541.87   1
   4  -1  -7 31101.2 2289.84   2
   4  -1  -7 34554.4 2501.24   1
  -1  -3  -7 33197.0 2362.88   2
  -3   4  -4 15809.0 1163.43   2
   4  -1  -4 15983.5 1395.20   1
  -3   4  -4 14191.4 1078.48   1
  -1  -3  -1 8947.86 729.293   1
   4  -1  -1 9996.46 789.833   2
   4  -1  -1 7877.71 1042.97   1
  -3   4   2 197727. 6320.27   3
   4  -1   2 220084. 6127.12   3
   4  -1   5 60259.9 2395.50   3
  -3   4   5 62360.5 2672.36   3
  -3   4   8 20730.1 3040.80   3
   0  -4 -11 543.787 2258.90   1
   0  -4 -11-1460.93 2161.71   2
  -4   4 -11-747.070 2450.61   2
   4   0 -11-260.986 2128.85   2
  -4   4  -8 156155. 5246.66   1
   4   0  -8 128964. 4844.59   2
   0  -4  -8 148377. 5160.49   1
   4   0  -8 118547. 4891.28   1
   0  -4  -8 138441. 5004.48   2
  -4   4  -8 137388. 4885.88   2
   0  -4  -5 1122.46 1458.22   1
   4   0  -5 129.105 1434.64   2
  -4   4  -2 263463. 7637.37   3
   4   0  -2 270996. 7841.84   1
   0  -4  -2 264382. 7779.11   2
   0  -4  -2 287528. 7856.42   1
   4   0  -2 283471. 7813.08   2
  -4   4  -2 272896. 7740.97   1
   4   0   1-130.429 612.897   3
  -4   4   1 1969.00 1209.30   3
   4   0   4 12717.7 1244.78   3
  -4   4   7-2642.44 2518.54   3
  -5   4  -9 124172. 4701.40   1
   4   1  -9 116150. 4610.81   1
   4   1  -9 105450. 4159.52   2
   1  -5  -9 116418. 4384.79   1
  -5   4  -9 110323. 4368.23   2
   1  -5  -9 108221. 4380.46   2
   1  -5  -6 24006.8 2058.01   2
   4   1  -6 26553.4 1864.25   1
  -5   4  -6 29692.9 2017.17   2
   1  -5  -6 20451.3 2132.20   1
  -5   4  -6 36555.1 2225.45   1
   4   1  -6 31230.5 1997.08   2
   4   1  -3 362599. 9906.17   2
  -5   4  -3 337953. 9825.74   1
   1  -5  -3 365077. 9972.92   1
   1  -5  -3 356276. 9899.11   2
   4   1   0 46522.3 1320.73   3
   4   1   0 48664.0 1677.65   2
   4   1   3 149684. 4667.02   3
  -5   4   3 171140. 4876.62   3
  -5   4   6 28401.8 2245.93   3
  -6   4 -10 9753.67 2761.01   1
  -6   4 -10 7267.44 2283.47   2
   4   2 -10 7108.26 2181.47   1
   2  -6  -7 84492.9 3973.05   1
   4   2  -7 87836.8 3668.02   1
  -6   4  -7 104770. 3876.77   2
  -6   4  -7 110739. 3860.55   1
   4   2  -7 112607. 3920.65   2
   2  -6  -7 133638. 4348.79   2
   4   2  -4 10764.4 1138.70   1
   2  -6  -1 309935. 9026.86   1
   2  -6  -1 323184. 8966.25   2
   4   2  -1 307143. 9060.06   2
  -6   4   2 78190.2 2895.87   3
   4   2   2 82101.5 2697.63   3
  -6   4   5 70530.2 2958.02   3
   4   2   5 78810.8 2913.25   3
  -7   4 -11 12183.1 2922.05   1
   3  -7 -11 12127.1 2212.53   2
  -7   4 -11 12557.8 2400.73   2
   3  -7 -11 10839.9 2504.33   1
   4   3 -11 12240.0 2182.24   2
   3  -7  -8 2896.78 2168.14   1
  -7   4  -8 6233.49 2212.13   1
   3  -7  -8 410.431 2219.31   2
   4   3  -8 1601.54 1956.74   1
   4   3  -8 3939.13 2099.90   2
  -7   4  -8 3750.73 2166.94   2
  -7   4  -5 17349.4 1567.53   2
  -7   4  -5 16703.4 1536.30   1
   4   3  -5 19066.2 1663.55   2
   3  -7  -5 18746.9 1761.57   1
   3  -7  -5 17308.0 1938.03   2
   3  -7  -2 27439.8 1401.38   1
   3  -7  -2 23024.3 1396.63   2
   4   3  -2 25992.5 1256.97   2
   4   3  -2 25880.7 1428.37   1
   4   3   1 122828. 3664.03   3
  -7   4   1 118739. 3889.36   3
   4   3   4 101592. 3294.62   3
  -7   4   4 95184.2 3401.04   3
   4   3   7 12544.7 2692.51   3
   4  -8  -9 29506.8 2391.68   2
  -8   4  -9 28079.5 2559.47   1
  -8   4  -9 28481.1 2293.26   2
   4   4  -9 22196.0 2091.81   1
   4   4  -9 29827.0 2532.58   2
   4  -8  -9 26013.4 2445.69   1
   4   4  -6 1943.99 1406.31   1
   4  -8  -6 2286.22 1740.88   2
   4  -8  -6 2602.03 2059.17   1
  -8   4  -6 2419.72 1614.50   2
  -8   4  -6 2823.72 1725.42   1
   4   4  -6 3142.14 1775.46   2
   4   4  -3 111925. 3732.02   2
   4   4  -3 107248. 3760.75   1
   4   4   0 727107. 21411.6   3
   4   4   0 685496. 21571.4   2
   4   4   3 82872.4 2850.56   3
   4   4   6 271.737 1727.91   3
   5  -9 -10 8765.60 2374.41   1
   5  -9 -10 9155.37 2078.45   2
   4   5  -7 60383.8 3058.21   1
   5  -9  -7 75133.2 3405.31   1
  -9   4  -7 62423.8 3071.63   2
   5  -9  -7 78529.2 3206.14   2
   4   5  -7 70637.3 3090.42   2
  -9   4  -7 76450.0 3204.97   1
   4   5  -4 28006.2 1626.09   1
  -9   4  -4 31508.2 1531.96   1
   5  -9  -4 33815.5 1950.05   1
   5  -9  -1 191385. 6057.27   2
   4   5  -1 202109. 6291.15   2
   5  -9  -1 219740. 6133.69   1
   4   5  -1 227541. 6092.60   3
   4   5   2 1408.73 1162.83   3
   4   5   8 20311.7 2987.51   3
   3   5 -11 8506.43 2292.03   2
   5  -8 -11 5462.86 2049.68   2
  -8   3 -11 9916.19 3023.18   1
   5  -8 -11 9636.86 2368.29   1
  -8   3 -11 8455.69 2251.68   2
  -8   3  -8 88786.6 3628.51   1
   3   5  -8 86451.6 3504.15   2
  -8   3  -8 80689.0 3588.88   2
   5  -8  -8 75388.5 3530.76   2
   3   5  -8 75298.4 3332.42   1
   5  -8  -8 92667.7 3743.76   1
   5  -8  -5 7062.48 1464.21   2
   3   5  -5 9610.47 1697.93   2
   5  -8  -5 10872.7 1828.10   1
   3   5  -5 8050.84 1400.95   1
  -8   3  -5 6241.36 1435.63   1
   5  -8  -2 190893. 5389.65   1
   5  -8  -2 186386. 5257.60   2
   3   5  -2 182855. 5229.23   3
   3   5   1 84947.1 2787.19   3
   3   5   7 14312.5 2529.47   3
   5  -7  -9 11589.1 2439.23   1
   2   5  -9 9172.46 2395.68   1
  -7   2  -9 9685.16 2375.70   1
  -7   2  -9 10834.1 2047.71   2
   5  -7  -9 6358.14 2040.14   2
   2   5  -9 9730.01 2208.86   2
   2   5  -6 80183.9 3110.34   2
  -7   2  -6 74255.2 3041.16   2
  -7   2  -6 79265.8 3032.41   1
   5  -7  -6 70647.6 3064.13   2
   5  -7  -3 178121. 5066.61   1
   2   5  -3 174780. 4867.24   1
   5  -7  -3 171546. 4957.66   2
  -7   2  -3 172712. 4931.69   1
   5  -7   0 210432. 6593.78   1
   5  -7   0 231463. 6453.53   2
   2   5   0 224819. 6506.87   3
   2   5   3 230734. 6867.68   3
   2   5   6 25253.8 2118.22   3
   2   5   9 63144.4 4129.66   3
   1   5 -10 3664.60 2115.12   1
   1   5 -10 2844.68 2085.82   2
   1   5  -7 99991.0 3810.29   1
   5  -6  -7 112922. 4243.67   1
  -6   1  -7 112893. 4133.62   2
   1   5  -7 108105. 3909.53   2
  -6   1  -7 119985. 4035.38   1
   5  -6  -7 108216. 4056.85   2
   1   5  -4 12140.8 1305.13   2
   5  -6  -4 10168.3 1452.26   1
   1   5  -4 9585.22 1134.70   1
   1   5  -1 85369.3 2615.98   2
   5  -6  -1 83093.8 2757.39   1
   1   5  -1 90249.2 2646.95   3
   1   5   2 4870.45 1375.23   3
   1   5   8 7910.79 3123.43   3
   5  -5 -11-759.216 1977.78   2
  -5   0 -11 2400.99 2615.72   1
   0   5 -11-1470.26 2295.44   2
   5  -5 -11 2560.82 2438.42   1
  -5   0 -11 3430.60 2376.63   2
   5  -5  -8 9405.67 2169.69   2
   0   5  -8 12599.0 2184.54   1
  -5   0  -8 12401.0 2385.31   2
   5  -5  -8 11555.6 2630.05   1
  -5   0  -8 10429.3 2585.97   1
   0   5  -8 9789.14 2010.96   2
   5  -5  -5 2192.85 1563.62   1
  -5   0  -5 2726.00 1346.72   1
   0   5  -5 1253.11 1455.29   1
  -5   0  -5 2552.73 1386.45   2
   5  -5  -5 141.763 1374.80   2
   0   5  -2 282894. 6655.80   2
  -5   0  -2 278301. 6687.90   1
   5  -5  -2 296189. 6850.09   1
   5  -5  -2 273862. 6714.90   2
   0   5  -2 266525. 6655.51   3
   0   5   1 3940.56 1476.85   3
   0   5   4 151189. 4687.62   3
   0   5   7 168.917 2411.07   3
   0   5  10 19380.6 3573.42   3
  -4  -1  -9 38274.8 2861.24   1
  -1   5  -9 25906.5 2459.05   2
  -1   5  -9 27620.7 2285.04   1
   5  -4  -9 23968.7 2250.24   2
   5  -4  -9 32653.7 2642.23   1
  -4  -1  -9 33477.8 2517.66   2
   5  -4  -6 52290.6 2551.29   1
  -4  -1  -6 51244.7 2457.15   1
  -4  -1  -6 49015.2 2403.35   2
   5  -4  -6 47484.5 2313.31   2
   5  -4  -3 239471. 7287.94   1
  -1   5  -3 244276. 7230.78   2
  -1   5  -3 251857. 7212.67   1
   5  -4  -3 251295. 7295.00   2
  -4  -1  -3 254014. 7261.70   1
  -1   5   0 44956.2 1678.88   3
   5  -4   0 35706.9 1621.90   2
  -1   5   3 358718. 10407.8   3
  -1   5   6 33698.5 2735.16   3
  -1   5   9 92968.7 4551.36   3
  -2   5 -10 14771.0 2304.29   2
  -2   5 -10 14298.9 2634.65   1
   5  -3 -10 13222.8 2561.07   1
  -3  -2  -7 82442.6 3238.17   2
   5  -3  -7 81231.2 3459.20   1
  -2   5  -7 69196.4 3093.00   1
   5  -3  -7 74772.6 3173.35   2
  -3  -2  -7 79144.0 3418.01   1
  -2   5  -7 78571.6 3515.94   2
  -2   5  -4 52884.1 1966.00   2
  -2   5  -4 52094.4 2048.04   1
  -3  -2  -1 232758. 6660.86   1
   5  -3  -1 229995. 6801.48   1
   5  -3  -1 232098. 6709.74   2
  -2   5  -1 234246. 6671.74   3
  -2   5   2 82421.3 2892.79   3
  -2   5   5 17866.5 1997.28   3
  -2   5   8 52449.7 4050.40   3
  -2  -3 -11 3292.42 2529.42   2
  -3   5 -11 5334.56 2330.39   2
   5  -2 -11 5414.82 2395.48   1
  -2  -3 -11 3560.03 2562.88   1
   5  -2 -11 3259.45 2051.31   2
   5  -2  -8 43652.1 2813.26   2
  -2  -3  -8 48035.9 2944.28   2
  -2  -3  -8 46503.4 3026.31   1
   5  -2  -8 51478.1 3032.20   1
  -3   5  -8 54438.6 3190.43   1
  -3   5  -8 52300.8 3167.23   2
   5  -2  -5 32786.7 1821.09   2
   5  -2  -5 33259.8 1856.88   1
  -2  -3  -5 32122.8 1931.63   2
  -3   5  -5 25638.0 1522.40   1
  -2  -3  -5 30329.4 1877.16   1
  -3   5  -2 98904.4 2965.67   3
  -2  -3  -2 99564.1 3133.93   1
   5  -2  -2 108762. 3318.05   1
   5  -2  -2 102739. 3169.98   2
  -3   5  -2 100000. 2983.24   1
  -3   5  -2 101928. 3027.77   2
  -3   5   1 188862. 5645.35   3
   5  -2   4 39807.6 1664.64   3
  -3   5   7 50280.3 3293.09   3
  -3   5  10 23601.7 3763.66   3
  -4   5  -9 115110. 4491.09   1
  -1  -4  -9 110622. 4343.51   2
   5  -1  -9 103898. 4163.81   2
   5  -1  -9 99100.2 4173.03   1
  -4   5  -9 123656. 4728.25   2
  -1  -4  -9 123926. 4466.21   1
   5  -1  -6 60284.3 2550.16   1
  -4   5  -6 52765.4 2532.82   2
  -1  -4  -6 48361.2 2626.62   1
  -1  -4  -6 54199.6 2596.46   2
   5  -1  -6 63537.4 2605.05   2
  -4   5  -6 55292.2 2389.61   1
  -1  -4  -3 429749. 11859.7   2
   5  -1  -3 411514. 11866.6   1
   5  -1  -3 435606. 11853.9   2
  -1  -4  -3 420681. 11862.9   1
  -4   5  -3 417875. 11792.6   2
  -4   5   0 44395.9 1808.11   3
  -1  -4   0 46766.7 1478.08   1
   5  -1   0 48056.3 1863.18   2
   5  -1   3 285719. 8069.81   3
  -4   5   3 272142. 8273.07   3
  -4   5   6 15657.3 2297.70   3
   5  -1   6 17141.7 1827.09   3
  -4   5   9 41623.7 3418.05   3
  -5   5 -10 23319.7 2712.88   1
   5   0 -10 22944.8 2461.57   1
  -5   5 -10 28420.0 3019.71   2
   5   0  -7 2918.81 1911.44   2
   5   0  -7 1295.90 1777.90   1
  -5   5  -7 38.3450 1838.83   2
   0  -5  -7-1031.50 1938.72   2
  -5   5  -7 9.33426 1771.30   1
   5   0  -4 170403. 5273.97   1
  -5   5  -4 175138. 5207.97   2
  -5   5  -4 174395. 5193.83   1
   5   0  -1 3946.30 1143.36   2
   0  -5  -1 5401.86 1044.01   1
  -5   5  -1 3785.53 934.969   3
  -5   5   2 256400. 7712.00   3
   5   0   2 266277. 7545.13   3
  -5   5   5-1295.65 1731.04   3
   5   0   5 2060.65 1686.18   3
  -5   5   8 4606.34 2801.15   3
   5   1 -11 13159.9 2146.55   2
  -6   5 -11 12294.7 2780.66   2
   1  -6 -11 11805.1 2257.63   1
   1  -6 -11 11006.6 2403.17   2
  -6   5  -8 3938.68 2684.21   1
   5   1  -8 5632.78 2154.16   2
   5   1  -8 6235.57 2298.27   1
  -6   5  -8 4367.45 2130.50   2
   1  -6  -8 4153.82 2327.89   1
   1  -6  -8 6107.33 2629.73   2
  -6   5  -5 67405.3 2531.40   1
   1  -6  -5 63535.4 2702.84   2
   1  -6  -5 58941.9 2679.35   1
   5   1  -5 69500.8 2602.90   2
  -6   5  -5 58027.2 2452.22   2
   1  -6  -2 1938.49 1110.51   1
   1  -6  -2 1802.54 858.560   2
   5   1  -2 2533.72 1037.27   2
   5   1  -2 1701.63 1027.94   1
   5   1   1 96079.6 2826.04   3
  -6   5   1 85515.6 3009.07   3
   5   1   4 2494.90 1170.80   3
  -6   5   7 61319.3 3254.57   3
   2  -7  -9 39423.4 2867.94   2
  -7   5  -9 38084.7 2637.04   2
   5   2  -9 42435.7 2529.03   2
  -7   5  -9 41053.1 2939.59   1
   2  -7  -9 40476.5 2570.92   1
   5   2  -9 38336.9 2595.93   1
  -7   5  -6 32676.0 1951.03   1
   2  -7  -6 33831.1 2352.47   1
   5   2  -6 28968.0 2011.98   1
   2  -7  -6 32468.8 2310.08   2
  -7   5  -6 34109.9 2029.71   2
   5   2  -6 38388.4 2175.17   2
   5   2  -3 202443. 6610.06   1
  -7   5  -3 219171. 6527.96   1
   5   2  -3 246397. 6659.23   2
   2  -7  -3 232129. 6605.40   2
   5   2   0 197891. 5791.64   2
   5   2   0 186378. 5537.58   3
   2  -7   0 194701. 5510.67   1
  -7   5   0 189484. 5634.97   3
  -7   5   3 173594. 5348.67   3
   5   2   3 173177. 5201.07   3
  -7   5   6 35905.4 2399.39   3
   3  -8 -10 28972.7 2638.62   1
  -8   5 -10 35102.1 3065.91   1
   5   3 -10 25553.5 2641.51   1
  -8   5  -7 14057.5 2006.35   2
   5   3  -7 16787.1 2145.50   2
   5   3  -7 11288.7 1838.07   1
   3  -8  -7 12351.1 2320.82   2
   3  -8  -7 18870.4 2165.08   1
  -8   5  -7 19398.8 2448.29   1
   5   3  -4 94923.3 3633.76   1
   3  -8  -4 124619. 3716.20   1
   3  -8  -1 150684. 4103.81   1
   5   3  -1 142643. 4294.65   2
   5   3  -1 153182. 4097.60   3
   5   3   2 137406. 4191.55   3
  -8   5   2 137275. 4385.82   3
  -8   5   5 15374.8 1789.38   3
  -9   5 -11 38118.3 2743.89   2
  -9   5 -11 39981.9 3257.40   1
   5   4 -11 36045.9 2579.53   2
   4  -9 -11 34703.4 2779.16   1
   4  -9 -11 37265.1 2606.20   2
   4  -9  -8 22012.6 2467.45   1
  -9   5  -8 21039.9 2296.20   2
   4  -9  -8 18546.0 2421.00   2
  -9   5  -8 19455.9 2215.92   1
   5   4  -8 14890.9 2043.23   1
   5   4  -8 17674.4 2149.87   2
   4  -9  -5 82729.4 3254.52   1
   5   4  -5 71403.4 2920.75   2
   4  -9  -5 77348.3 3067.91   2
  -9   5  -5 76180.6 2779.04   1
   4  -9  -2 5244.95 1048.04   1
   5   4  -2 4880.73 1081.73   2
   5   4   1 226109. 6621.22   3
   5   4   4 32306.8 1808.56   3
  -9   5   4 22248.9 1910.97   3
   5   4   7 56178.5 3207.58   3
   5 -10  -9 18347.9 2373.96   1
   5 -10  -9 21939.5 2224.14   2
 -10   5  -9 18666.4 2181.74   2
   5   5  -9 20113.8 2135.32   2
 -10   5  -9 19815.9 2361.16   1
 -10   5  -6 16759.1 1908.99   2
 -10   5  -6 17243.4 1817.84   1
   5   5  -6 17061.4 1888.38   2
   5   5  -6 18542.7 1820.69   1
   5 -10  -6 24167.3 2371.48   1
   5 -10  -6 18233.4 1978.80   2
   5   5  -3 7806.60 1733.84   1
 -10   5  -3 7654.08 1042.92   1
   5 -10  -3 6693.82 1027.09   2
   5   5   0 86167.7 2819.24   3
   5 -10   0 94314.1 2935.88   1
   5   5   0 88571.7 3289.36   2
   5   5   6 15277.5 2681.73   3
 -11   5 -10 13649.2 2417.85   1
   6 -11 -10 14693.5 2267.62   1
   6 -11 -10 14655.5 2281.15   2
 -11   5 -10 13178.5 2195.71   2
 -11   5  -7 23494.8 2263.44   2
   6 -11  -7 32273.1 2815.51   1
   5   6  -7 26399.9 2272.86   2
 -11   5  -7 30591.3 2332.97   1
   6 -11  -7 25643.6 2350.47   2
 -11   5  -4 39792.7 1883.81   1
   5   6  -4 34461.5 1890.01   2
   5   6  -4 32513.1 2048.07   1
   6 -11  -4 35375.4 1955.37   1
   6 -11  -1 165825. 4541.04   2
   6 -11  -1 154619. 4794.20   1
   5   6   5 73744.1 3184.10   3
   5   6   8 14796.1 2698.52   3
   4   6 -11 11292.5 2236.10   2
 -10   4 -11 11575.7 2360.04   2
 -10   4 -11 13769.4 2770.77   1
   6 -10 -11 13607.5 2251.57   1
   6 -10 -11 10174.2 2163.74   2
 -10   4  -8 36661.8 2519.62   1
   6 -10  -8 29578.1 2251.58   2
   4   6  -8 28138.9 2130.05   2
 -10   4  -8 29522.8 2423.98   2
   6 -10  -8 31725.1 2486.10   1
 -10   4  -5 43806.1 1999.47   1
   4   6  -5 42722.2 2045.43   2
   6 -10  -5 39059.5 1984.19   2
   6 -10  -2 57219.5 2008.40   1
   6 -10  -2 52884.5 1801.25   2
   4   6   1 103333. 3333.02   3
   4   6   7 26141.6 2601.16   3
  -9   3  -9 1112.79 2036.27   1
   6  -9  -9-561.160 1877.15   2
   3   6  -9 3960.40 2002.08   2
  -9   3  -9-151.805 2147.53   2
   6  -9  -9 2783.96 2057.04   1
  -9   3  -6 36570.9 2357.48   2
   6  -9  -6 31964.0 2085.35   2
   3   6  -6 29561.9 2028.22   2
  -9   3  -6 32650.4 2136.19   1
   6  -9  -6 36518.0 2425.34   1
   3   6  -3 1314.47 1039.07   2
   6  -9  -3 1114.01 857.514   2
  -9   3  -3 2801.88 973.259   1
   3   6  -3 1201.65 1142.79   1
   3   6   0 17419.9 1192.27   3
   6  -9   0 16386.8 1432.34   1
   6  -9   0 17814.2 1292.97   2
   3   6   6 13418.9 1908.02   3
   3   6   9 3083.01 2971.82   3
   6  -8 -10 20405.2 2478.53   1
   2   6 -10 18979.4 2320.07   2
   6  -8  -7 125750. 4352.56   1
   6  -8  -7 117679. 4140.30   2
   2   6  -7 100999. 3907.65   1
  -8   2  -7 123971. 4151.77   1
  -8   2  -7 107346. 4158.92   2
   2   6  -7 115594. 4052.06   2
  -8   2  -4 98042.6 3001.23   1
   6  -8  -4 100221. 3170.42   1
   6  -8  -1 43424.1 1542.81   2
   2   6  -1 45666.1 1899.19   2
   2   6  -1 46130.3 1644.61   3
   2   6   2 55332.9 2358.65   3
   2   6   5 34002.1 2115.68   3
   2   6   8 35985.3 3257.78   3
  -7   1 -11 37068.2 3000.33   1
   1   6 -11 31949.9 2642.93   2
  -7   1 -11 34970.6 2685.77   2
   6  -7 -11 33335.1 2729.41   1
   6  -7 -11 29662.3 2541.50   2
   6  -7  -8 14921.0 2518.97   1
  -7   1  -8 18561.4 2490.52   1
   6  -7  -8 11818.8 2168.15   2
  -7   1  -8 15454.2 2435.13   2
   1   6  -8 13252.6 2250.16   2
   1   6  -8 11712.6 1988.87   1
  -7   1  -5 164087. 5087.80   2
  -7   1  -5 168769. 5035.28   1
   1   6  -5 152426. 4879.39   1
   6  -7  -5 157911. 5059.50   1
   6  -7  -5 154627. 5035.09   2
   6  -7  -2 2748.59 888.643   2
   1   6  -2 2818.01 791.628   2
   6  -7  -2 3503.09 1171.84   1
   1   6  -2 3915.04 902.483   3
  -7   1  -2 3233.59 777.128   1
   1   6   1 168327. 5089.18   3
   1   6   7 33815.8 2912.40   3
   0   6  -9 1752.93 1884.19   1
   0   6  -9-530.798 2006.46   2
  -6   0  -9 1553.57 2298.78   1
   6  -6  -9 427.494 1883.61   2
  -6   0  -9 2734.20 2058.71   2
   6  -6  -9 2811.56 2253.11   1
   6  -6  -6 38261.7 2265.03   2
  -6   0  -6 46150.4 2318.09   1
  -6   0  -6 41322.7 2344.51   2
   6  -6  -6 46121.7 2398.59   1
   0   6  -6 37708.1 2009.09   2
   6  -6  -3 3279.03 1029.92   2
  -6   0  -3 2995.23 886.516   1
   0   6  -3 2238.24 930.613   2
   6  -6  -3 1251.10 1259.09   1
   0   6  -3 2598.94 853.583   1
   6  -6   0 374303. 11014.0   2
   0   6   0 395319. 11006.1   3
   0   6   3 4318.03 1468.45   3
   0   6   6 73652.8 3364.15   3
   0   6   9 166.153 3073.66   3
  -1   6 -10 10768.0 2142.95   1
  -1   6 -10 11410.7 2344.85   2
  -5  -1  -7 96089.0 3706.82   2
   6  -5  -7 99473.7 3877.22   1
  -1   6  -7 100791. 3597.58   1
  -5  -1  -7 90119.2 3675.19   1
  -1   6  -7 91787.4 3537.08   2
  -1   6  -4 1403.67 981.548   2
  -1   6  -4 2078.91 946.355   1
  -5  -1  -4 1985.48 1185.32   1
   6  -5  -1 98607.3 3171.30   1
  -1   6  -1 96070.3 2763.92   2
  -1   6  -1 97286.2 2894.07   3
  -1   6   2 4760.31 1482.17   3
  -1   6   5 46870.3 2307.69   3
  -1   6   8 3672.32 2999.17   3
   6  -4 -11 33286.6 2563.42   2
  -4  -2 -11 39639.8 2999.87   1
  -4  -2 -11 35500.8 2828.47   2
  -2   6 -11 32553.0 2503.16   2
   6  -4 -11 29979.7 2803.31   1
  -2   6  -8 4242.30 2168.48   1
   6  -4  -8 2459.78 2506.35   1
  -2   6  -8 2504.73 2235.39   2
  -4  -2  -8 2624.95 2615.72   1
  -4  -2  -8 4698.65 2210.99   2
   6  -4  -8 511.284 2098.72   2
  -4  -2  -5 90141.5 3320.59   2
   6  -4  -5 96871.3 3352.26   2
   6  -4  -5 92407.9 3387.74   1
  -4  -2  -5 92690.5 3278.58   1
  -4  -2  -2 91106.3 2740.24   1
  -2   6  -2 80893.2 2607.06   3
  -2   6  -2 81905.9 2625.53   2
   6  -4  -2 90690.5 2937.28   1
  -2   6  -2 88528.6 2594.50   1
   6  -4  -2 87421.5 2766.91   2
  -2   6   1 323817. 9383.09   3
  -2   6   7 96132.9 4175.67   3
  -2   6  10 5348.62 3411.26   3
  -3   6  -9 4543.05 2294.50   1
  -3   6  -9 1197.68 2049.05   2
   6  -3  -9 3539.99 2158.01   1
  -3  -3  -9 1187.39 2010.93   2
   6  -3  -9 1222.67 1917.84   2
  -3  -3  -9 4684.21 2115.96   1
   6  -3  -6 136676. 4467.93   2
  -3   6  -6 120504. 4311.14   1
  -3  -3  -6 131425. 4477.58   1
  -3   6  -6 137256. 4419.19   2
  -3  -3  -6 138990. 4512.17   2
   6  -3  -6 134304. 4463.93   1
  -3   6  -3 24823.8 1200.22   1
   6  -3  -3 31752.3 1648.39   1
  -3   6  -3 29280.7 1169.30   3
  -3   6  -3 26501.4 1278.34   2
   6  -3  -3 28148.2 1454.92   2
  -3  -3  -3 30123.7 1512.28   1
   6  -3   0 310592. 9100.34   2
  -3   6   0 315402. 9031.62   3
  -3   6   3 7617.56 1267.52   3
  -3   6   6 134117. 4805.46   3
  -3   6   9 1965.98 2961.57   3
   6  -2 -10 4235.49 2148.62   1
  -4   6 -10 3588.04 2340.92   2
  -4   6 -10 3632.06 2658.52   1
  -2  -4  -7 119190. 4292.73   2
   6  -2  -7 118350. 4341.10   2
  -2  -4  -7 104808. 4499.73   1
  -4   6  -7 121543. 4242.24   1
  -4   6  -7 121975. 4185.96   2
   6  -2  -7 123873. 4310.75   1
  -4   6  -4 9025.66 1053.42   1
  -4   6  -4 9251.21 977.611   2
  -4   6  -1 217864. 6608.39   3
  -2  -4  -1 234074. 6601.15   1
   6  -2  -1 227866. 6660.64   2
  -4   6   2 71746.5 2638.44   3
   6  -2   2 78383.4 2325.50   3
   6  -2   5 82500.3 2981.37   3
  -4   6   5 94603.3 3488.52   3
  -4   6   8 2816.67 3249.80   3
  -1  -5 -11 10969.7 2530.77   1
   6  -1 -11 7592.14 2026.23   2
  -1  -5 -11 7201.52 2522.34   2
  -5   6 -11 5042.25 2400.37   2
  -1  -5  -8 10412.8 2300.80   2
   6  -1  -8 11788.9 2145.13   2
  -1  -5  -8 7006.94 2325.32   1
  -5   6  -8 9465.03 2208.95   2
   6  -1  -8 13145.1 2740.67   1
  -5   6  -8 8453.98 2358.05   1
  -1  -5  -5 42353.6 2063.41   2
   6  -1  -5 44466.2 2065.82   2
   6  -1  -5 37894.9 2125.63   1
  -1  -5  -5 35404.3 2167.42   1
  -1  -5  -2 5509.63 888.984   1
   6  -1  -2 5300.08 1045.14   2
   6  -1  -2 4040.72 1247.05   1
  -5   6  -2 2735.88 627.406   3
  -5   6   1 78186.0 2720.58   3
   6  -1   1 79532.6 2358.81   3
   6  -1   4 14467.7 1301.02   3
  -5   6   7 101711. 4372.03   3
  -5   6  10 796.091 3276.64   3
   6   0  -9 2587.31 1936.94   2
   0  -6  -9 395.869 2339.60   2
  -6   6  -9 2410.01 2487.91   1
   6   0  -9 3454.06 2017.91   1
  -6   6  -9 2266.80 2003.16   2
   0  -6  -9 960.424 2189.24   1
   0  -6  -6 63989.9 2765.99   1
   0  -6  -6 70994.1 2934.12   2
  -6   6  -6 63169.7 2692.71   2
   6   0  -6 57778.8 2925.59   1
   6   0  -6 69246.8 2811.25   2
  -6   6  -6 58683.4 2524.12   1
  -6   6  -3 2538.43 761.695   1
  -6   6  -3 2525.53 478.750   3
   0  -6  -3 1695.59 987.164   2
   6   0  -3 1607.38 1126.41   2
   6   0  -3 2882.32 1143.44   1
   0  -6  -3 1646.75 1366.52   1
   6   0   0 316734. 7580.13   2
  -6   6   0 283072. 7459.30   3
  -6   6   3 1019.37 1420.75   3
   6   0   3 1608.00 964.389   3
  -6   6   6 35033.8 2579.88   3
   6   0   6 32856.7 2352.54   3
  -6   6   9-698.514 2664.19   3
  -7   6 -10 4004.27 2156.38   2
   6   1 -10 3557.05 2181.24   1
  -7   6 -10 4542.05 2841.31   1
   1  -7  -7 22957.5 2516.63   1
  -7   6  -7 33549.2 2359.87   1
   1  -7  -7 26503.2 2483.46   2
  -7   6  -7 27810.0 2063.76   2
   6   1  -7 22733.8 2160.91   1
   6   1  -7 28964.8 2328.61   2
   1  -7  -4 59312.9 2712.78   1
   6   1  -4 61890.4 2440.86   1
   6   1  -1 94248.0 2772.92   2
   1  -7  -1 93246.0 2498.44   2
   6   1   2 21642.7 1152.04   3
  -7   6   2 21828.3 1761.00   3
   6   1   5 72451.3 2860.77   3
  -7   6   5 97697.2 3239.67   3
  -7   6   8 11332.1 3020.64   3
   2  -8 -11 25203.0 2678.54   1
   2  -8 -11 29595.7 2637.26   2
  -8   6 -11 26013.1 2524.83   2
   6   2 -11 27092.4 2472.04   2
  -8   6 -11 30011.3 3359.49   1
   6   2  -8 66336.4 3000.90   2
   2  -8  -8 64557.3 3535.91   2
  -8   6  -8 65830.9 2984.03   1
   6   2  -8 45195.6 2879.61   1
  -8   6  -8 59082.4 2904.45   2
   2  -8  -8 51589.4 2980.29   1
   2  -8  -5 27038.7 2196.08   1
   2  -8  -5 34013.0 1872.41   2
  -8   6  -5 31060.1 1787.15   2
   6   2  -5 36816.7 1975.76   2
  -8   6  -5 32174.1 1714.76   1
   6   2  -2 51787.4 2057.24   2
   2  -8  -2 51985.6 1835.82   2
   6   2  -2 51227.2 2406.88   1
  -8   6   1 72223.9 2625.68   3
   6   2   1 75200.5 2353.25   3
   6   2   4 71762.2 2636.37   3
  -8   6   4 69053.7 2765.67   3
  -8   6   7 98285.4 4025.88   3
   6   3  -9 1148.93 1948.19   1
  -9   6  -9 4642.90 2307.87   1
  -9   6  -9 4236.76 1927.53   2
   3  -9  -9 3490.28 2092.68   2
   6   3  -9 4711.92 1894.87   2
   3  -9  -9 3236.14 2015.23   1
   3  -9  -6 21525.4 2195.12   2
   6   3  -6 21011.0 1992.48   1
   6   3  -6 21674.9 2020.42   2
  -9   6  -6 20049.2 1760.05   2
  -9   6  -6 19918.1 1897.64   1
   3  -9  -6 24249.4 2192.23   1
   3  -9  -3 144.108 934.771   2
   6   3  -3 665.675 1506.47   1
   6   3   0 10852.1 1869.04   2
   6   3   0 10439.2 895.929   3
   3  -9   0 9674.60 898.557   1
   6   3   3 4668.25 1328.03   3
  -9   6   6 19460.9 2224.02   3
   4 -10 -10 23062.6 2468.79   1
   4 -10 -10 28562.7 2562.61   2
   4 -10  -7 33749.4 2844.59   1
 -10   6  -7 27423.9 2232.00   2
   6   4  -7 31120.2 2631.69   2
 -10   6  -7 31123.3 2517.34   1
   6   4  -7 25172.2 2200.59   1
   4 -10  -7 31772.0 2495.95   2
   6   4  -4 25323.8 1959.66   1
   6   4  -4 30979.9 1910.25   2
 -10   6  -4 30567.7 1609.56   1
   4 -10  -4 31742.2 2020.06   1
   4 -10  -1 96716.6 2906.52   1
   4 -10  -1 88776.7 2804.33   2
 -10   6   2 50282.6 2254.16   3
   6   4   2 47820.2 1906.23   3
 -10   6   5 27588.1 2107.07   3
 -11   6 -11 15754.2 2328.14   2
 -11   6 -11 15571.1 2766.52   1
   6   5 -11 14820.6 2239.89   2
   5 -11 -11 16958.8 2228.08   2
   5 -11 -11 15200.2 2338.56   1
   5 -11  -8 19503.8 2129.09   2
 -11   6  -8 16263.2 2016.76   2
 -11   6  -8 19723.9 2221.17   1
   6   5  -8 20006.8 2327.10   2
   5 -11  -8 21418.1 2295.94   1
 -11   6  -5 65170.1 2517.87   1
   5 -11  -5 58016.9 2599.89   2
   6   5  -5 58683.3 2657.78   2
   5 -11  -2 15832.8 958.389   2
   6   5  -2 16713.1 1010.25   3
   5 -11  -2 15066.4 1109.23   1
   6   5   7 19417.4 2568.95   3
 -12   6  -9 2980.71 2201.68   2
   6 -12  -9 2388.55 1966.62   2
 -12   6  -9 4598.27 2091.00   1
   6   6  -9 1977.66 2017.85   2
   6 -12  -6 8161.94 1739.43   2
   6   6  -6 7313.50 1965.34   2
 -12   6  -6 6039.39 1833.02   1
   6 -12  -6 11875.8 2304.29   1
   6 -12  -3 26168.3 1335.78   2
   6   6  -3 28850.1 1320.20   3
   6 -12  -3 26037.4 1567.83   1
   6   6   0 12119.4 1151.11   3
   6   6   0 10484.8 1863.54   2
   6   6   6 11530.4 2759.91   3
   7 -13 -10 14089.7 2175.43   2
 -13   6 -10 13797.1 2286.62   2
 -13   6 -10 16558.1 2367.46   1
   7 -13 -10 13124.4 2154.84   1
 -13   6  -7 13219.8 2144.65   2
   7 -13  -7 14011.1 1971.95   2
   7 -13  -7 19421.1 2308.93   1
 -13   6  -7 13094.6 2000.44   1
   6   7  -7 14506.6 2128.28   2
   6   7  -4 43188.7 2305.16   2
 -13   6  -4 48066.9 2090.41   1
   6   7  -4 41825.2 1818.77   3
   7 -13  -4 40948.2 2272.70   1
   7 -13  -1 11265.3 834.505   2
   6   7  -1 11198.1 1101.98   3
   7 -13  -1 11506.7 1349.48   1
   6   7   2 76222.0 2821.90   3
   6   7   5 37400.3 2773.10   3
   7 -12 -11 16533.9 2380.60   2
 -12   5 -11 12073.1 2788.16   1
   5   7 -11 14009.3 2271.02   2
 -12   5 -11 17038.2 2382.53   2
   7 -12 -11 18957.2 2239.19   1
   7 -12  -8 6787.96 1978.68   2
   5   7  -8 9671.98 2025.98   2
   7 -12  -8 11601.0 2205.70   1
 -12   5  -8 8852.71 1890.51   1
 -12   5  -8 6129.29 1910.77   2
   7 -12  -5 65114.0 2741.68   2
 -12   5  -5 70982.0 2719.21   1
   5   7  -5 73464.0 3067.83   2
   7 -12  -2 8458.76 866.251   2
   5   7  -2 11501.3 998.064   3
   5   7  -2 12170.5 1663.83   2
   5   7   1 90422.9 3094.80   3
   5   7   4 25386.8 2134.29   3
   5   7   7 2604.92 2445.72   3
   7 -11  -9 1938.61 2092.75   2
   4   7  -9 2467.35 1764.45   2
 -11   4  -9 4005.82 2134.65   2
 -11   4  -9 6679.17 1997.25   1
 -11   4  -6-1681.24 1834.58   1
   7 -11  -6 6131.85 2159.95   1
   7 -11  -6 2539.02 1808.58   2
   4   7  -6 3259.43 1782.05   2
   4   7  -3 17374.5 1214.67   3
   7 -11  -3 16009.6 1498.81   1
   4   7  -3 14490.4 1364.86   2
 -11   4  -3 18200.6 1298.01   1
   7 -11   0 42665.5 2216.12   1
   7 -11   0 66345.1 2561.55   2
   4   7   3 31329.2 1965.07   3
   4   7   6 16607.7 2911.44   3
   7 -10 -10 27778.9 2478.43   2
 -10   3 -10 28749.2 2706.52   1
 -10   3 -10 30973.4 2560.67   2
   7 -10 -10 28461.8 2500.12   1
 -10   3  -7 8924.48 2149.51   1
 -10   3  -7 5908.08 2024.24   2
   3   7  -7 5801.16 1946.41   2
   7 -10  -7 7931.06 2242.42   1
   7 -10  -7 4703.52 2127.52   2
 -10   3  -4 198096. 5859.99   1
   7 -10  -4 213867. 6047.61   1
   7 -10  -1 3525.56 1125.12   1
   7 -10  -1 4349.67 784.915   2
   3   7  -1 2760.02 1237.55   2
   3   7   5 4668.67 2070.35   3
   3   7   8 53990.2 3325.57   3
   7  -9 -11 29152.2 2598.29   2
   7  -9 -11 33069.5 2543.00   1
  -9   2 -11 31822.4 2600.32   2
  -9   2 -11 35291.3 3104.64   1
   2   7 -11 30656.9 2500.15   2
  -9   2  -8 11853.8 2270.53   2
   2   7  -8 9000.30 2039.10   2
   7  -9  -8 8290.96 2025.91   2
  -9   2  -8 12324.2 2065.82   1
   7  -9  -8 11176.2 2173.05   1
  -9   2  -5 173934. 5095.88   1
   7  -9  -5 156114. 5100.18   2
   2   7  -5 155644. 4955.34   1
   7  -9  -5 174177. 5202.96   1
   2   7  -5 156573. 5062.15   2
   7  -9  -2 78820.3 2844.95   1
   7  -9  -2 77771.8 2667.40   2
   2   7   1 64907.6 2381.76   3
   2   7   4 7055.30 1882.31   3
   2   7   7 33265.0 2841.85   3
   7  -8  -9 7540.04 2233.27   1
   1   7  -9 8109.23 1937.74   2
  -8   1  -9 6193.70 2280.13   2
  -8   1  -9 6562.82 2116.33   1
   7  -8  -9 4999.10 2072.13   2
   7  -8  -6 12050.8 1887.06   2
  -8   1  -6 15077.1 1782.41   1
   7  -8  -6 12940.7 1944.19   1
   1   7  -6 12029.1 1641.19   2
  -8   1  -6 14099.6 1953.70   2
   1   7  -3 16923.3 1105.10   2
   7  -8  -3 17552.9 1178.82   2
   1   7   0 19814.8 1187.36   3
   7  -8   0 21107.6 1508.65   2
   1   7   6 1454.95 1783.31   3
   1   7   9 37704.6 3386.43   3
   0   7 -10 97945.6 3957.16   2
   7  -7 -10 92362.9 3872.53   2
   0   7  -7-547.398 1572.91   1
  -7   0  -7 6189.02 1860.40   1
   7  -7  -7 3396.43 2088.96   2
  -7   0  -7 1870.82 2032.49   2
   7  -7  -7 3833.77 2196.93   1
   0   7  -7 1391.43 1669.62   2
   0   7  -4 179393. 5627.17   2
   0   7  -4 198019. 5574.33   1
   7  -7  -4 182163. 5756.75   1
  -7   0  -4 188609. 5661.25   1
   7  -7  -1-255.945 1403.47   1
   7  -7  -1 1303.77 939.128   2
   0   7  -1 1463.55 968.598   3
   0   7  -1 1802.19 1126.56   2
   0   7   2 392661. 11379.1   3
   0   7   5 2264.65 1551.24   3
   0   7   8 155860. 5875.76   3
  -1   7 -11 15067.5 2366.20   2
  -6  -1 -11 20299.0 2675.75   1
  -6  -1 -11 22940.5 2500.94   2
   7  -6 -11 18935.7 2420.90   1
   7  -6 -11 17240.1 2291.06   2
   7  -6  -8 19267.7 2420.17   2
   7  -6  -8 21793.7 2445.11   1
  -1   7  -8 20088.9 2129.56   2
  -6  -1  -8 22446.9 2541.00   1
  -6  -1  -8 20010.5 2416.06   2
  -1   7  -8 19460.6 2057.27   1
   7  -6  -5 143808. 4491.75   2
  -6  -1  -5 130965. 4340.06   1
  -6  -1  -5 128201. 4438.47   2
   7  -6  -5 132786. 4437.99   1
  -1   7  -5 143271. 4291.61   1
   7  -6  -2 25232.7 1354.04   2
   7  -6  -2 25854.8 1696.10   1
  -6  -1  -2 28202.4 1322.78   1
  -1   7  -2 27675.8 1227.80   3
  -1   7   1 131246. 4158.74   3
  -1   7   7 27440.7 2720.23   3
  -1   7  10 2801.77 3767.68   3
   7  -5  -9 21429.8 2179.18   2
  -5  -2  -9 18639.4 2245.86   2
  -2   7  -9 14110.9 2096.54   2
  -5  -2  -9 23053.1 2698.31   1
   7  -5  -9 17661.8 2341.68   1
  -2   7  -9 19224.0 2152.04   1
   7  -5  -6 56054.9 2512.02   2
  -2   7  -6 46126.4 2274.83   2
  -5  -2  -6 46553.4 2495.56   2
   7  -5  -6 54412.2 2662.79   1
  -5  -2  -6 53607.0 2377.32   1
   7  -5  -3 215306. 6609.70   2
  -2   7  -3 237013. 6513.87   2
  -5  -2  -3 221117. 6601.86   1
  -2   7  -3 208633. 6503.78   3
  -2   7  -3 242907. 6471.34   1
   7  -5  -3 205541. 6651.52   1
  -2   7   0 232463. 6366.25   3
   7  -5   0 198900. 6350.62   2
  -2   7   3 226912. 6814.20   3
  -2   7   6 38485.0 2614.38   3
  -2   7   9 38803.7 3516.28   3
  -3   7 -10 15740.4 2375.07   2
   7  -4  -7 13825.9 2049.44   2
  -3   7  -7 12747.7 2307.49   2
  -3   7  -7 8388.16 1765.71   1
  -4  -3  -7 14151.0 2146.01   2
  -4  -3  -7 9273.09 2161.55   1
   7  -4  -7 13888.7 2175.96   1
   7  -4  -4 126168. 4183.27   1
  -4  -3  -4 118790. 3989.21   1
  -4  -3  -4 132381. 4082.99   2
  -3   7  -4 127756. 4009.47   2
   7  -4  -4 122712. 4046.79   2
  -3   7  -4 128104. 3872.81   1
  -4  -3  -1 125873. 3743.82   1
  -3   7  -1 123342. 3788.48   3
  -3   7   2 35147.3 1813.88   3
  -3   7   5 21808.1 2308.84   3
  -3   7   8-1438.88 3063.23   3
  -3  -4 -11 3548.52 2487.47   1
  -3  -4 -11 4974.20 2337.65   2
  -4   7 -11 7298.29 2328.39   2
   7  -3 -11 4608.29 2525.62   1
   7  -3 -11 6035.53 1995.69   2
  -4   7  -8 7230.69 2415.03   2
   7  -3  -8 8509.74 2305.37   1
  -3  -4  -8 10851.5 2302.43   2
  -4   7  -8 7402.40 2232.07   1
  -3  -4  -8 8756.78 2453.08   1
   7  -3  -8 8175.40 2145.51   2
  -3  -4  -5 5773.42 1415.93   1
   7  -3  -5 5187.32 1728.97   1
  -4   7  -5 9800.44 1245.99   1
  -3  -4  -5 6506.73 1501.15   2
   7  -3  -5 8000.47 1491.69   2
  -4   7  -2 31170.9 1171.44   2
  -4   7  -2 26796.4 1050.41   1
  -3  -4  -2 28991.9 1327.97   1
  -4   7  -2 27298.4 1136.10   3
   7  -3  -2 28014.7 1712.47   1
   7  -3  -2 31121.4 1471.68   2
  -4   7   1 81615.1 2911.21   3
  -4   7   4 89570.0 3029.80   3
   7  -3   4 73754.3 2523.65   3
  -4   7   7 26291.5 3290.34   3
  -4   7  10 10607.7 3464.58   3
  -5   7  -9 70249.6 3544.51   1
  -2  -5  -9 69062.1 3232.04   2
  -2  -5  -9 62236.1 3233.11   1
   7  -2  -9 61008.2 3185.21   1
  -5   7  -9 71083.9 3515.52   2
   7  -2  -9 66661.0 3018.65   2
  -2  -5  -6 28519.0 2040.43   2
  -5   7  -6 18170.8 1558.94   1
  -5   7  -6 24342.9 1810.86   2
   7  -2  -6 30883.7 2040.32   2
   7  -2  -6 22159.6 2109.00   1
  -2  -5  -6 25569.0 2200.50   1
   7  -2  -3 224740. 6216.83   1
   7  -2  -3 235469. 6108.74   2
  -5   7  -3 183111. 5910.51   1
  -5   7  -3 202264. 5871.11   3
  -5   7  -3 209963. 5965.39   2
  -5   7   0 196125. 5875.35   3
  -2  -5   0 205028. 5688.37   1
  -5   7   3 151821. 4913.83   3
   7  -2   3 159893. 4621.73   3
  -5   7   6 68130.1 3261.19   3
  -5   7   9 11010.3 2953.76   3
  -6   7 -10 8451.80 2638.93   1
  -6   7 -10 7813.81 2641.45   2
   7  -1 -10 6376.03 2328.40   1
  -6   7  -7 30236.8 2116.07   1
  -1  -6  -7 23903.1 2333.76   1
   7  -1  -7 28757.2 2458.30   1
  -1  -6  -7 31659.0 2428.72   2
   7  -1  -7 33281.9 2451.92   2
  -6   7  -7 28072.9 2153.27   2
  -6   7  -4 105925. 3252.94   1
   7  -1  -4 106264. 3337.80   2
  -6   7  -4 105776. 2982.06   3
  -1  -6  -4 85287.1 3405.84   1
  -6   7  -4 82129.3 3079.91   2
  -1  -6  -1 120800. 3662.94   1
  -6   7  -1 127482. 3762.83   3
   7  -1  -1 124769. 3819.42   2
   7  -1   2 2638.65 768.772   3
  -6   7   2 4945.09 1455.02   3
   7  -1   5 137401. 4226.98   3
  -6   7   5 119064. 4419.13   3
  -6   7   8 10967.5 2894.86   3
  -7   7 -11 3713.96 2555.15   2
   0  -7 -11 3645.63 2162.89   1
   7   0 -11 4646.16 2103.58   2
   0  -7 -11 1501.74 2428.22   2
  -7   7  -8 152426. 5570.07   2
   0  -7  -8 169359. 5744.92   2
   0  -7  -8 178328. 5782.61   1
   7   0  -8 169428. 5649.59   2
   7   0  -8 158860. 5786.40   1
  -7   7  -8 175464. 5763.15   1
   7   0  -5 1801.52 1457.64   2
   0  -7  -5 963.981 1436.41   2
   7   0  -5 1951.70 1326.35   1
  -7   7  -5 270.386 1196.05   1
   0  -7  -5 630.646 1563.27   1
  -7   7  -5 1792.15 1197.13   2
   0  -7  -2 369544. 10838.3   2
   7   0  -2 354639. 11020.6   1
   7   0  -2 375490. 10894.3   2
  -7   7  -2 369998. 10751.4   3
   7   0   1 1691.14 674.471   3
  -7   7   1 1968.66 1176.32   3
  -7   7   4 149675. 4598.54   3
   7   0   4 133413. 4320.73   3
  -7   7   7-4025.30 2811.92   3
   1  -8  -9 58376.7 2946.58   1
   1  -8  -9 67780.7 3524.35   2
  -8   7  -9 63043.9 3158.49   1
   7   1  -9 56972.7 2993.35   2
  -8   7  -9 54156.8 2913.84   2
  -8   7  -6 507.101 1504.83   1
   7   1  -6 1586.54 1793.65   2
   1  -8  -6 2292.30 2037.39   1
   1  -8  -6 1475.72 1880.96   2
   7   1  -6 2700.27 1609.22   1
  -8   7  -6 2171.93 1413.65   2
   1  -8  -3 93585.4 2574.50   2
  -8   7  -3 80215.0 2361.18   1
   7   1  -3 60220.2 2596.63   1
   7   1   0 14321.9 1542.04   2
   7   1   0 10819.0 775.666   3
  -8   7   0 8019.92 1035.54   3
   1  -8   0 4861.92 750.417   1
   7   1   3 9086.94 1115.23   3
  -8   7   6 18328.0 2275.41   3
   7   1   6 24844.8 2290.74   3
  -8   7   9 1622.14 2472.69   3
   2  -9 -10 14415.1 2492.38   2
   7   2 -10 15083.2 2614.97   1
  -9   7 -10 18164.5 3128.78   1
   2  -9 -10 12737.2 2140.77   1
  -9   7  -7 18019.9 2143.66   1
   2  -9  -7 16273.7 2395.79   1
   7   2  -7 15645.2 2024.15   1
  -9   7  -7 17003.1 2087.18   2
   7   2  -7 18382.0 2273.72   2
   2  -9  -7 16342.8 2260.56   2
  -9   7  -4 19428.3 1343.13   1
   7   2  -4 19683.9 1652.15   2
   2  -9  -4 15509.9 1731.90   1
  -9   7  -1 49440.3 1987.42   3
   2  -9  -1 54447.5 1904.70   1
   2  -9  -1 55155.3 1776.38   2
  -9   7   2 126906. 4024.66   3
   7   2   2 120803. 3788.67   3
   7   2   5 142865. 4688.12   3
  -9   7   5 139574. 4739.30   3
  -9   7   8 2240.62 2365.29   3
   7   3 -11 2942.45 2117.52   2
   3 -10 -11 2214.89 2225.85   1
   3 -10 -11 5350.16 2225.68   2
 -10   7 -11 3063.60 2152.27   2
 -10   7 -11 4184.49 2727.69   1
   3 -10  -8 65104.1 3075.96   2
   7   3  -8 46902.2 2656.25   1
   3 -10  -8 58962.6 2843.83   1
 -10   7  -8 50843.8 2657.64   2
 -10   7  -8 54136.6 2766.93   1
   7   3  -8 61395.4 2831.03   2
   3 -10  -5 7426.48 1621.43   2
 -10   7  -5 10511.5 1469.38   1
   7   3  -5 10235.6 1892.29   2
   3 -10  -5 11816.7 1845.24   1
   3 -10  -2 71692.4 2412.71   2
   3 -10  -2 80186.0 2583.03   1
 -10   7   1 12060.3 1362.90   3
   7   3   4 148496. 4770.68   3
 -10   7   4 140566. 4776.01   3
 -10   7   7-431.050 2227.33   3
 -11   7  -9 8169.09 2174.93   1
   7   4  -9 6670.56 2077.18   2
   4 -11  -9 8427.20 2106.80   2
 -11   7  -9 7006.76 1947.80   2
   4 -11  -6 17469.6 2447.91   1
   4 -11  -6 15346.6 2329.45   2
 -11   7  -6 14447.8 1855.67   1
 -11   7  -6 12814.4 1869.31   2
   7   4  -6 12939.2 1945.27   2
   7   4  -6 14024.1 1945.09   1
   7   4  -3 35526.6 1874.83   2
   4 -11  -3 45267.7 1981.82   2
   4 -11   0 65961.0 2343.65   1
   7   4   0 76029.5 3027.73   2
 -11   7   3 16006.0 1849.82   3
   7   4   6 2421.99 3048.92   3
 -11   7   6-695.959 2040.74   3
   7   5 -10 7883.49 2073.80   2
   5 -12 -10 7669.19 2135.08   2
 -12   7 -10 9529.62 2255.49   2
   5 -12 -10 9094.16 2245.92   1
   5 -12  -7 13802.4 2436.69   1
 -12   7  -7 9116.94 2021.88   1
 -12   7  -7 10214.2 1929.12   2
   7   5  -7 12640.3 2426.90   2
   5 -12  -7 12477.3 2049.21   2
   7   5  -4 34165.5 2153.07   2
 -12   7  -4 37427.6 1939.15   1
   7   5  -4 36178.9 2704.47   1
   5 -12  -4 39034.9 2420.82   1
   7   5  -1 70976.5 1839.54   3
   5 -12  -1 67296.6 1783.73   1
   7   5   5 74508.1 3482.25   3
 -13   7  -8 25785.7 2313.53   1
   6 -13  -8 27276.1 2150.52   2
   7   6  -8 25570.6 2217.45   2
   6 -13  -8 31149.8 2437.15   1
   6 -13  -5 28372.9 1925.36   2
   7   6  -5 32152.4 2286.12   2
 -13   7  -5 34095.4 1992.71   1
   7   6  -2 72947.1 2313.95   3
   6 -13  -2 61935.5 2231.27   2
   7   6   1 19315.4 1452.26   3
   7   6   4 41148.1 2368.04   3
   7   6   7 18095.9 2865.25   3
   7   7  -9-570.513 2240.31   2
   7 -14  -9 409.278 2091.18   1
   7 -14  -6 9799.25 1672.32   2
   7   7  -6 12978.3 2244.25   2
 -14   7  -6 11483.5 1808.89   1
   7 -14  -6 14044.3 2380.65   1
   7   7  -3-1836.01 1735.96   2
   7 -14  -3 755.856 1299.40   1
   7   7  -3-490.105 1034.31   3
   7 -14  -3 171.871 1024.77   2
   7 -14   0 26340.4 2143.32   1
   7   7   0 21562.0 1471.57   3
   7   7   3-522.608 2044.10   3
   7   7   6 18022.4 3016.35   3
   8 -15 -10 9596.39 2045.61   2
 -15   7 -10 10735.1 2244.78   2
   7   8 -10 13478.0 2665.74   2
   8 -15 -10 13363.5 2159.88   1
 -15   7 -10 15556.9 2262.86   1
   8 -15  -7 6839.77 1798.03   2
 -15   7  -7 7859.69 1969.95   1
   8 -15  -7 7727.28 2150.91   1
   7   8  -7 11161.9 2393.81   2
   7   8  -4 46063.5 2092.42   3
   7   8  -4 48168.5 2722.57   2
 -15   7  -4 53114.3 2412.23   1
   8 -15  -4 39597.4 2059.20   2
   8 -15  -4 43590.0 2380.71   1
   7   8  -1 18985.9 1263.92   3
   7   8  -1 28169.5 2971.42   2
   7   8   2 45598.1 2239.38   3
   7   8   5 20430.6 3085.21   3
   8 -14  -8 8573.57 1836.99   2
   8 -14  -8 15249.4 2182.05   1
   6   8  -8 15919.2 2357.93   2
 -14   6  -8 9869.97 2011.61   1
 -14   6  -8 10708.1 2025.38   2
   6   8  -5 19880.8 2159.76   2
 -14   6  -5 22212.2 1923.67   1
   6   8  -5 16883.4 1595.97   3
   8 -14  -5 17828.1 2223.41   1
   6   8  -2 22947.9 1281.48   3
   8 -14  -2 17473.9 1053.40   2
   6   8   1 20226.3 1585.47   3
   6   8   4 38974.0 2513.38   3
   6   8   7 6345.97 2837.33   3
   5   8  -9 9517.09 2239.21   2
   8 -13  -9 9271.55 2166.60   1
 -13   5  -6 2188.79 1762.54   1
   5   8  -6 1399.80 1966.52   2
   8 -13  -6 5203.51 2344.74   1
   8 -13  -6 1572.47 1607.22   2
   5   8  -3 9183.54 1137.63   3
   8 -13  -3 8561.83 1247.19   1
   8 -13  -3 5887.61 1041.58   2
   5   8   0 20231.8 1468.90   3
   8 -13   0 19193.7 1942.90   1
   5   8   3 30432.9 2216.57   3
   5   8   6 5009.26 2690.36   3
   8 -12 -10 28021.2 2471.37   2
 -12   4 -10 29057.1 2483.07   2
 -12   4 -10 29610.4 2373.72   1
   8 -12 -10 26584.8 2315.94   1
 -12   4  -7 40129.8 2854.96   2
   8 -12  -7 49815.7 2843.10   1
   4   8  -7 42848.5 2463.21   2
   8 -12  -7 44060.9 2536.76   2
 -12   4  -7 46666.1 2556.05   1
   4   8  -4 48243.8 1986.17   3
   8 -12  -4 45032.9 2452.79   1
   4   8  -1 86306.6 3360.72   2
   8 -12  -1 93978.9 2716.43   2
   8 -12  -1 73949.4 2989.11   1
   4   8  -1 79686.2 2718.69   3
   4   8   2 157897. 4958.81   3
   4   8   5 56109.8 3093.68   3
   4   8   8 16734.2 2648.96   3
   3   8 -11 4244.92 2123.31   2
 -11   3 -11 4053.06 2472.95   1
   8 -11 -11 5197.23 2127.96   2
 -11   3 -11 4901.46 2187.39   2
   8 -11 -11 6860.19 2049.25   1
 -11   3  -8 18582.0 1996.16   1
   8 -11  -8 19314.4 2146.76   1
 -11   3  -8 17404.1 2284.79   2
   3   8  -8 16318.7 1848.16   2
   8 -11  -8 13797.2 2033.73   2
 -11   3  -5 47864.8 2058.90   1
   8 -11  -5 47380.8 2649.94   1
   8 -11  -2 54456.0 2064.15   2
   3   8  -2 56620.4 1984.84   3
   3   8   4 96898.2 3852.31   3
   3   8   7 5716.20 2199.99   3
   8 -10  -9 12756.9 2159.47   2
 -10   2  -9 12521.0 2011.30   1
 -10   2  -9 11775.0 2307.37   2
   2   8  -9 13003.1 2082.85   2
 -10   2  -6-2056.19 1785.86   1
   8 -10  -6 4333.16 1767.07   2
   8 -10  -6 3632.63 2076.31   1
   2   8  -6 4894.56 1731.38   2
   2   8  -3 29945.8 1487.31   3
   2   8  -3 27378.3 1569.23   2
   8 -10  -3 27996.3 1672.22   1
 -10   2  -3 30010.6 1450.35   1
   8 -10  -3 25184.2 1459.62   2
   8 -10   0 14804.0 1772.17   2
   2   8   3 37835.1 2464.52   3
   2   8   6 3654.66 2172.41   3
   2   8   9 12720.1 3163.29   3
   1   8 -10 6894.49 2130.03   2
  -9   1 -10 5311.07 2312.06   1
  -9   1 -10 7342.11 2150.10   2
   8  -9 -10 9210.68 2191.50   2
   8  -9 -10 8637.74 2175.96   1
  -9   1  -7 101637. 3700.24   1
  -9   1  -7 96716.6 3878.41   2
   8  -9  -7 95880.9 3782.78   2
   8  -9  -7 100599. 3843.16   1
   1   8  -4 98651.4 3078.62   3
  -9   1  -4 96977.0 3083.32   1
   1   8  -4 106513. 3247.99   2
   8  -9  -4 109123. 3390.19   1
   8  -9  -4 92043.0 3114.77   2
   1   8  -1 101542. 2897.43   3
   8  -9  -1 92586.6 3090.55   1
   8  -9  -1 96690.8 2842.84   2
   1   8   5 39533.8 2447.25   3
   1   8   8 21550.9 2839.77   3
   8  -8 -11 3636.76 2171.42   2
   0   8 -11 2546.78 2235.12   2
  -8   0 -11 3940.57 2247.25   2
   8  -8 -11 4534.74 2291.15   1
  -8   0 -11 6018.14 2647.92   1
   8  -8  -8 28333.5 2425.65   1
   0   8  -8 25368.2 2384.86   2
  -8   0  -8 26960.3 2510.32   2
   8  -8  -8 25050.6 2322.02   2
  -8   0  -8 28029.5 2211.72   1
   8  -8  -5 3399.05 1504.34   2
   0   8  -5-1157.25 1412.28   1
   8  -8  -5 3313.20 1710.63   1
  -8   0  -5 3549.07 1389.97   1
   8  -8  -2 312527. 8518.08   1
   0   8  -2 301618. 8286.84   3
   0   8  -2 296278. 8218.00   2
   0   8   1-920.166 1302.29   3
   0   8   4 120191. 4084.75   3
   0   8   7 5817.12 2796.12   3
  -7  -1  -9 5339.20 2122.39   1
  -1   8  -9 3905.22 1973.58   2
   8  -7  -9 6939.21 2138.47   1
   8  -7  -9 6922.01 2039.22   2
  -7  -1  -9 4636.12 2092.97   2
  -7  -1  -6 26200.9 1931.03   1
  -1   8  -6 17375.1 1710.26   2
  -7  -1  -6 23168.7 2033.14   2
   8  -7  -6 22465.1 2270.62   1
   8  -7  -6 22510.4 2017.64   2
  -1   8  -3 21649.8 1136.89   3
  -1   8  -3 20291.2 1157.26   2
  -1   8   0 15432.2 1288.10   3
   8  -7   0 14860.0 1658.26   2
  -1   8   6 4340.39 2041.70   3
  -1   8   9 47224.0 3589.99   3
  -6  -2 -10 17038.3 2376.44   2
  -2   8 -10 13517.9 2335.39   2
  -6  -2 -10 18661.1 2676.53   1
   8  -6 -10 15924.8 2123.33   2
  -6  -2  -7 141521. 4763.81   1
  -6  -2  -7 143831. 4906.51   2
   8  -6  -7 144554. 4803.52   2
  -2   8  -7 132453. 4639.88   2
   8  -6  -7 143432. 4936.41   1
  -2   8  -7 138137. 4852.17   1
  -2   8  -4 99190.4 3071.57   2
   8  -6  -4 96751.4 3309.04   1
  -2   8  -4 93892.2 3075.71   3
   8  -6  -4 92415.7 3225.13   2
  -2   8  -4 89768.9 3067.56   1
  -6  -2  -4 100230. 3256.52   1
   8  -6  -1 74327.0 2537.84   2
  -2   8  -1 81860.1 2533.33   3
  -6  -2  -1 74404.7 2391.03   1
  -2   8   2 66661.6 2633.46   3
  -2   8   5 27730.7 2011.78   3
  -2   8   8 52234.7 3571.39   3
  -5  -3 -11 11875.2 2343.16   1
  -5  -3 -11 16917.7 2465.01   2
   8  -5 -11 14836.9 2571.82   1
   8  -5 -11 14393.8 2130.17   2
  -3   8  -8 59212.7 3003.67   1
  -3   8  -8 54878.4 2903.50   2
   8  -5  -8 64951.0 3005.36   2
  -5  -3  -8 66780.2 3272.88   1
  -5  -3  -8 65831.7 3146.26   2
   8  -5  -8 64078.2 3268.85   1
   8  -5  -5 25616.2 2213.62   1
  -5  -3  -5 23054.9 1775.60   2
   8  -5  -5 26316.0 1834.00   2
  -3   8  -5 18980.7 1516.30   1
  -5  -3  -5 23427.2 1687.66   1
  -3   8  -2 170390. 4561.26   2
  -3   8  -2 158092. 4499.85   1
  -5  -3  -2 149206. 4634.65   1
   8  -5  -2 160256. 4903.94   1
  -3   8  -2 142242. 4602.70   3
   8  -5  -2 156358. 4742.99   2
  -3   8   1 173414. 5316.51   3
  -3   8   4 95524.1 3340.46   3
  -3   8   7 14822.9 2789.06   3
  -3   8  10 25844.8 3701.69   3
  -4  -4  -9 17806.4 2308.17   2
  -4   8  -9 21609.5 2690.29   2
  -4   8  -9 14408.5 2224.48   1
   8  -4  -9 16771.1 2436.02   1
  -4  -4  -9 17119.4 2438.79   1
   8  -4  -9 15761.6 2044.00   2
   8  -4  -6 5362.82 1740.19   2
  -4  -4  -6 3588.30 1824.51   2
  -4  -4  -6 2290.57 1735.60   1
   8  -4  -6 1338.45 2020.21   1
  -4   8  -6 1086.47 1685.64   2
  -4   8  -3 85260.9 2583.24   2
  -4   8  -3 91792.1 2573.81   1
   8  -4   0 774043. 22565.4   2
  -4   8   0 813315. 22532.4   3
  -4   8   6 2791.19 2299.20   3
  -4   8   9 26196.7 3230.25   3
  -3  -5 -10 44125.6 2808.02   2
  -3  -5 -10 39699.0 2893.77   1
  -5   8 -10 41627.0 2833.03   2
   8  -3 -10 38767.6 2592.51   2
  -5   8  -7 10026.0 2049.02   1
  -3  -5  -7 12979.8 2091.55   2
   8  -3  -7 11030.4 2373.57   1
  -5   8  -7 8219.02 1905.82   2
   8  -3  -7 12982.8 2026.02   2
  -3  -5  -7 13756.4 2319.28   1
   8  -3  -4 111809. 3789.73   2
  -5   8  -4 107483. 3628.95   1
  -3  -5  -4 120905. 3846.37   2
  -5   8  -4 116172. 3643.59   2
   8  -3  -4 104845. 3867.31   1
  -3  -5  -4 118138. 3800.10   1
  -5   8  -1 84138.6 2912.34   3
   8  -3  -1 84121.5 2914.68   2
   8  -3   2 164810. 4861.43   3
  -5   8   2 189247. 5277.07   3
  -5   8   5 10225.9 1934.03   3
   8  -3   5 4444.06 1110.17   3
  -5   8   8 79775.5 4085.03   3
  -5   8  11 2189.68 3275.76   3
  -6   8 -11 39176.2 2953.89   2
  -2  -6 -11 37188.0 2932.50   1
   8  -2 -11 38700.0 2638.43   2
   8  -2 -11 33666.7 3020.15   1
  -6   8  -8 44424.6 2658.23   2
  -6   8  -8 46182.2 2829.75   1
  -2  -6  -8 56567.0 3058.51   2
  -2  -6  -8 39109.5 2813.79   1
   8  -2  -8 47995.8 3278.47   1
   8  -2  -8 50322.1 2855.20   2
   8  -2  -5 40045.8 2152.85   1
   8  -2  -5 45300.1 2134.57   2
  -2  -6  -5 48276.2 2187.70   2
  -2  -6  -5 36722.3 2198.99   1
  -6   8  -2 42436.0 1646.17   3
   8  -2  -2 50235.5 1843.46   2
   8  -2  -2 54531.7 2383.82   1
  -2  -6  -2 44656.6 1668.98   1
  -6   8   1 36676.7 1825.17   3
   8  -2   1 33289.7 1184.75   3
  -6   8   4 81250.6 3122.20   3
  -6   8   7 105819. 4458.28   3
  -7   8  -9 38705.8 2562.10   2
   8  -1  -9 40974.0 2583.24   2
  -1  -7  -9 49353.8 2876.49   1
  -1  -7  -9 45301.1 2776.73   2
  -7   8  -9 38069.1 2777.52   1
   8  -1  -9 33421.5 2662.72   1
  -7   8  -6 2283.31 1432.61   2
  -1  -7  -6 3350.92 1980.06   1
  -7   8  -6 3593.31 1386.77   1
   8  -1  -6 2806.99 1916.40   1
  -1  -7  -6 4106.18 2014.93   2
   8  -1  -6 4159.35 1757.34   2
  -1  -7  -3 78699.8 2300.61   2
   8  -1  -3 80919.5 2620.55   1
  -7   8   0 16429.2 1432.35   3
  -1  -7   0 15142.6 802.809   1
   8  -1   0 15390.0 1278.07   2
   8  -1   3 8042.76 1021.15   3
  -7   8   6 10464.5 2402.73   3
  -7   8   9 8756.33 3082.54   3
   0  -8 -10 72642.0 3653.14   2
   0  -8 -10 55031.5 3018.04   1
  -8   8 -10 60171.6 3434.80   1
   8   0 -10 43862.5 3036.60   1
   8   0 -10 46927.5 2803.09   2
  -8   8 -10 58258.8 3302.98   2
   0  -8  -7 1746.73 2188.81   1
   8   0  -7 747.715 1978.59   2
  -8   8  -7 1265.23 1760.08   1
   8   0  -7 3068.91 1858.23   1
   0  -8  -7-1375.96 2113.95   2
  -8   8  -7-1630.07 1953.55   2
  -8   8  -4 98080.9 3167.90   3
   8   0  -4 130547. 3668.68   2
  -8   8  -4 105118. 3387.34   2
   0  -8  -4 126230. 3657.44   1
  -8   8  -1-31.9461 1003.78   3
   0  -8  -1 480.064 957.762   1
   8   0  -1 1085.23 1265.84   2
  -8   8   2 285089. 7674.66   3
   8   0   2 245996. 7389.31   3
  -8   8   5-2326.49 1894.12   3
   8   0   5 2050.11 1467.55   3
  -8   8   8 22802.1 2732.63   3
  -9   8 -11 22409.9 2447.91   2
   1  -9 -11 23039.1 2301.77   1
   8   1 -11 17948.3 2173.20   2
  -9   8 -11 20008.8 3234.84   1
   1  -9 -11 23214.5 2575.90   2
   8   1  -8 4511.63 1911.69   2
  -9   8  -8 4865.55 1930.92   1
   1  -9  -8 2680.70 2175.60   1
   8   1  -8 7858.18 2066.17   1
  -9   8  -8 4421.60 1966.97   2
   1  -9  -8 2420.41 2146.53   2
  -9   8  -5 42292.2 1896.81   1
   1  -9  -5 50108.1 2120.36   2
  -9   8  -5 37182.8 1868.65   2
   1  -9  -5 36624.0 2396.87   1
   8   1  -5 36996.7 2222.31   1
   8   1  -5 49857.0 2305.92   2
  -9   8  -2 19579.9 1000.25   3
   1  -9  -2 23947.2 1062.28   2
  -9   8   1 69293.0 2672.77   3
   8   1   1 77686.8 2380.86   3
   8   1   4 104442. 3590.21   3
  -9   8   4 112489. 3904.37   3
  -9   8   7 58325.4 3268.46   3
   8   2  -9 7871.29 1950.88   1
   2 -10  -9 11967.1 2030.12   1
 -10   8  -9 9430.49 1903.16   2
   2 -10  -9 10791.2 2416.74   2
   8   2  -9 9562.82 2217.59   2
 -10   8  -9 11586.2 2297.21   1
 -10   8  -6 3629.28 1506.99   1
   2 -10  -6 6825.30 2123.47   1
   2 -10  -6 4260.04 1813.40   2
   8   2  -6 5935.70 2098.96   1
 -10   8  -6 3924.82 1462.64   2
   8   2  -6 4724.08 2206.99   2
   2 -10  -3 35711.2 1517.75   2
   8   2  -3 34183.3 1864.89   2
   8   2   0 11818.7 877.490   3
   2 -10   0 9918.09 734.553   1
   8   2   3 30846.1 1783.71   3
 -10   8   3 27901.2 2046.78   3
 -10   8   6-10.7651 2089.85   3
   3 -11 -10 9969.28 2240.74   1
   8   3 -10 8987.39 2155.01   2
   3 -11 -10 12965.0 2479.07   2
   3 -11  -7 16730.0 2180.70   1
 -11   8  -7 9092.93 2066.06   1
   8   3  -7 10938.3 2174.22   1
   8   3  -7 14037.7 2211.79   2
   3 -11  -7 10683.7 2378.89   2
 -11   8  -7 8582.52 1819.40   2
   3 -11  -4 92172.0 3190.65   1
 -11   8  -4 83958.8 2984.93   1
   8   3  -4 82364.7 3191.16   2
   3 -11  -1 20347.8 1059.72   1
 -11   8  -1 19907.9 1591.39   3
   8   3   2 35130.6 1573.21   3
 -11   8   5 37908.6 2521.21   3
 -11   8   8 12890.8 2337.91   3
   4 -12 -11 28162.1 2468.37   2
   4 -12 -11 23677.6 2488.79   1
 -12   8 -11 22351.1 2474.35   2
   4 -12  -8 17968.9 2249.88   1
 -12   8  -8 15432.8 2128.18   1
   4 -12  -8 14622.7 2086.52   2
 -12   8  -8 13875.7 1923.22   2
   8   4  -8 16188.1 2210.41   2
   4 -12  -5 56182.3 2585.72   2
 -12   8  -5 52843.5 2407.47   1
   8   4  -5 56411.0 2777.93   2
   4 -12  -5 65864.2 2970.52   1
   8   4  -5 43690.4 2856.76   1
   8   4  -2 113286. 3588.80   3
   8   4  -2 121713. 4028.20   2
   4 -12  -2 119815. 3684.40   2
   4 -12  -2 120948. 3828.95   1
 -12   8   1 57123.2 2479.53   3
 -12   8   4 35256.8 2326.63   3
   8   5  -9 1127.54 2116.48   2
 -13   8  -9 1113.42 2295.42   1
   5 -13  -9 3677.52 2145.76   2
 -13   8  -9 2594.79 2116.51   2
   8   5  -6 1529.67 2152.76   2
   5 -13  -6 2578.64 1743.08   2
   8   5  -6-323.880 3053.85   1
 -13   8  -6 771.111 1677.96   1
   5 -13  -6 4981.43 2826.90   1
   8   5  -3 25418.7 1313.70   3
   5 -13  -3 25039.2 1460.92   2
   8   5  -3 21704.1 1893.57   2
   5 -13  -3 25949.7 1587.88   1
   5 -13   0 7581.75 1314.25   1
   8   5   0 5111.62 1018.27   3
 -13   8   3 8691.54 1874.95   3
   8   5   3 8782.44 1543.03   3
   8   5   6 6070.90 3081.03   3
   6 -14 -10 17290.5 2270.45   2
 -14   8 -10 14666.0 2236.68   2
   8   6 -10 13793.0 2304.35   2
 -14   8 -10 15420.2 2362.80   1
   6 -14 -10 16156.8 2258.76   1
   8   6  -7 14862.9 2228.29   2
 -14   8  -7 13255.2 1946.39   1
   6 -14  -7 13980.2 1832.28   2
 -14   8  -7 11513.9 1942.57   2
   6 -14  -7 18052.9 2379.58   1
   6 -14  -4 27169.8 1650.13   2
   6 -14  -4 31426.1 2222.26   1
 -14   8  -4 29433.5 1826.72   1
   8   6  -1 23876.3 1321.85   3
   8   6  -1 22644.8 2126.14   2
   6 -14  -1 19980.2 1285.76   1
   8   6   2 23642.4 1740.91   3
   8   6   5 24223.9 2857.99   3
 -15   8  -8 25237.3 2312.28   2
   7 -15  -8 37019.1 2547.56   2
   8   7  -8 31621.6 2892.64   2
 -15   8  -8 35909.9 2534.53   1
   7 -15  -8 42901.6 2705.14   1
   7 -15  -5 10296.3 1523.64   2
 -15   8  -5 17284.3 2102.99   1
   8   7  -5 13491.4 2241.57   2
   7 -15  -5 15964.4 2352.84   1
   8   7  -2 37193.8 1619.36   3
   8   7  -2 42638.1 2822.55   2
   8   7   1 23277.7 1858.84   3
   8   7   4 30755.4 2261.31   3
   8 -16  -9 4584.04 2133.71   1
 -16   8  -9 664.783 2274.57   1
 -16   8  -9-93.5762 2051.90   2
   8   8  -6 3198.54 2212.60   2
 -16   8  -6 1823.07 1694.86   1
   8 -16  -6 9.06416 1404.42   2
   8 -16  -6 2197.08 2195.19   1
   8   8  -6 447.668 1470.49   3
   8 -16  -3 4056.74 1367.09   1
   8   8  -3 1961.31 1161.65   3
   8   8  -3 3133.77 2461.57   2
   8   8   0 3045.61 1424.35   3
   8 -16   0 5564.07 2368.23   1
   8   8   3 2445.39 1832.79   3
   8   8   6 3351.68 2828.47   3
   9 -17  -7 5625.29 1657.01   2
 -17   8  -7 7995.58 1983.17   1
   8   9  -7 6540.72 1746.65   3
   9 -17  -7 7411.96 2489.88   1
   8   9  -7 4959.17 2188.08   2
   8   9  -4 16927.7 3364.83   2
   9 -17  -4 15507.1 2222.64   1
   8   9  -4 11708.5 1517.13   3
 -17   8  -4 16103.7 1927.85   1
   8   9  -1 3861.02 1304.63   3
   8   9  -1 4500.85 2755.77   2
   8   9   2 23051.9 2207.77   3
   8   9   5 6425.08 2748.95   3
   9 -16  -8 5613.81 1962.44   2
   7   9  -8 10603.5 2403.21   2
   7   9  -5 29064.3 1904.99   3
 -16   7  -5 36345.4 2450.30   1
   7   9  -5 30379.5 2748.52   2
   9 -16  -5 34520.1 2864.09   1
   9 -16  -5 26335.2 2176.25   2
   7   9  -2 26754.7 1491.09   3
   7   9  -2 22660.3 2639.69   2
   7   9   1 6300.38 1692.95   3
   7   9   4 6951.26 2257.28   3
   7   9   7 10930.3 3220.80   3
 -15   6  -9-1991.45 2104.27   2
 -15   6  -9 1513.42 2058.81   1
   6   9  -9-813.423 2253.03   2
   9 -15  -9 2286.89 2139.05   1
   6   9  -6 554.573 2268.31   2
   9 -15  -6 599.510 1549.53   2
 -15   6  -6 148.006 1664.65   1
   9 -15  -6 448.358 2320.01   1
   6   9  -6 1514.85 1515.12   3
   9 -15  -3 7218.31 1372.60   1
   6   9  -3 7108.06 1117.47   3
   6   9  -3 3870.82 2674.68   2
   6   9   0 33077.9 1835.04   3
   6   9   3 6558.67 1975.31   3
   6   9   6 7906.97 2857.79   3
 -14   5 -10 8757.15 2058.18   1
   9 -14 -10 7131.69 2089.22   2
   9 -14 -10 6721.55 2104.95   1
 -14   5 -10 8225.97 2323.64   2
   9 -14  -7 17035.6 2308.58   2
 -14   5  -7 14551.6 1899.57   1
   5   9  -7 19749.7 2104.44   2
   9 -14  -7 17841.9 2290.97   1
   5   9  -4 19344.1 1528.80   3
   5   9  -4 11816.3 1861.65   2
   9 -14  -4 20676.7 1884.58   1
 -14   5  -4 22239.0 1832.14   1
   9 -14  -4 12332.6 1395.40   2
   5   9  -1 29834.0 1552.33   3
   9 -14  -1 33988.9 1464.57   2
   5   9   2 23994.7 1809.77   3
   5   9   5 61373.2 3418.50   3
   5   9   8 5719.82 2569.91   3
   4   9  -8 7689.51 1839.21   2
   9 -13  -8 10041.6 2070.63   1
 -13   4  -8 6427.29 1891.47   1
   9 -13  -8 7657.65 1989.82   2
 -13   4  -8 8991.86 2027.49   2
   9 -13  -5 44161.1 2578.48   1
   4   9  -5 36758.9 2370.98   2
   4   9  -5 39298.0 1958.01   3
 -13   4  -5 39316.2 2194.92   1
   9 -13  -5 35467.6 2009.42   2
   4   9  -2 9728.29 1135.33   3
   9 -13  -2 6558.95 889.405   2
   4   9  -2 8198.18 2102.69   2
   9 -13  -2 7582.75 1436.99   1
   4   9   1 170564. 5226.97   3
   4   9   4 19102.2 2467.20   3
   4   9   7 11313.0 2529.45   3
   3   9  -9 6116.93 2066.63   2
   3   9  -6 6488.56 1634.46   3
 -12   3  -6 7136.42 1752.45   1
   3   9  -6 9116.60 2025.52   2
   9 -12  -6 10549.3 2307.06   2
   9 -12  -6 5475.11 2236.39   1
   3   9  -3 17874.0 1245.45   3
   3   9  -3 20349.4 1827.41   2
   9 -12  -3 17494.2 1544.72   1
 -12   3  -3 18047.6 1320.65   1
   3   9   0 13770.9 1277.33   3
   9 -12   0 23540.8 2707.29   2
   3   9   3 25162.5 1966.78   3
   3   9   6 44296.4 3451.58   3
   3   9   9 3878.37 3307.88   3
 -11   2 -10 21495.2 2429.96   2
   9 -11 -10 17398.2 2286.26   1
 -11   2 -10 22353.3 2270.13   1
   9 -11 -10 25206.3 2440.75   2
   2   9 -10 21206.1 2283.25   2
   9 -11  -7 46607.3 2612.55   2
 -11   2  -7 43633.6 2590.89   1
   2   9  -7 40559.4 2412.12   2
   9 -11  -7 45028.6 2838.35   1
 -11   2  -7 42276.8 2733.28   2
   2   9  -4 44792.3 1896.67   3
 -11   2  -4 41234.4 1848.89   1
   9 -11  -4 46096.4 2274.71   1
   2   9  -1 110501. 3262.75   3
   9 -11  -1 103365. 3180.89   2
   2   9   2 43698.9 2249.51   3
   2   9   5 22843.7 2419.21   3
   2   9   8 31569.7 2989.34   3
 -10   1 -11 13911.2 2548.36   1
 -10   1 -11 15245.9 2261.96   2
   1   9 -11 14116.5 2351.88   2
   9 -10 -11 14167.8 2351.22   1
   9 -10 -11 15991.7 2277.59   2
   9 -10  -8 2175.93 1991.32   1
   1   9  -8 5771.25 1703.21   2
   9 -10  -8 4403.01 1999.55   2
 -10   1  -8 4697.46 1921.10   2
 -10   1  -8 6023.21 1891.93   1
 -10   1  -5 60068.0 2428.39   1
   1   9  -5 54115.3 2327.59   3
   9 -10  -5 64080.4 2797.23   1
   9 -10  -5 57905.3 2549.70   2
   1   9  -2 20040.0 1432.29   2
   9 -10  -2 18258.0 1219.09   2
   1   9   4 35266.4 2366.71   3
   1   9   7 28612.9 2701.43   3
   1   9  10 12433.0 3519.59   3
  -9   0  -9 1952.43 2058.58   2
   0   9  -9 3999.90 1840.25   2
   9  -9  -9 3699.77 1949.73   2
   9  -9  -9 1689.67 2131.40   1
  -9   0  -9 2776.70 1964.61   1
  -9   0  -6 18399.9 1892.92   1
  -9   0  -6 20142.7 2139.17   2
   9  -9  -6 14170.8 2307.22   1
   0   9  -6 19129.7 1699.38   2
   0   9  -3 398.922 1055.84   2
  -9   0  -3 1708.97 1072.00   1
   9  -9  -3 2798.94 1614.31   1
   9  -9   0 80579.4 2959.10   2
   0   9   3-1645.45 1910.96   3
   0   9   6 12424.3 2050.89   3
   0   9   9 4347.36 2916.04   3
  -8  -1 -10 13241.0 2514.09   1
   9  -8 -10 12293.6 2532.38   1
  -8  -1 -10 13272.1 2247.10   2
  -1   9 -10 13998.9 2545.56   2
   9  -8 -10 14922.1 2245.97   2
  -1   9  -7 68170.6 3100.31   2
  -8  -1  -7 73541.8 3209.85   2
   9  -8  -7 75702.8 3478.03   1
  -8  -1  -7 78282.8 3145.17   1
   9  -8  -7 73744.1 3172.01   2
   9  -8  -4 127774. 3853.09   1
  -8  -1  -4 133635. 3718.69   1
  -1   9  -4 128452. 3673.07   2
   9  -8  -1 108501. 3429.68   1
  -1   9  -1 98625.4 2973.92   3
  -1   9   5 52721.1 2857.16   3
  -1   9   8 6030.35 2576.41   3
  -7  -2 -11 31719.1 2699.02   2
  -7  -2 -11 31002.0 2810.76   1
   9  -7 -11 27411.6 2784.84   1
   9  -7 -11 32112.1 2450.78   2
  -2   9  -8 2353.83 1713.16   2
  -7  -2  -8 5282.63 1980.98   1
   9  -7  -8 6319.06 2153.45   2
  -7  -2  -8 4239.31 2112.45   2
   9  -7  -8 4161.40 2403.19   1
  -7  -2  -5 165613. 5090.03   1
  -2   9  -5 157312. 4915.92   1
   9  -7  -5 155443. 5151.06   1
   9  -7  -5 163518. 5186.14   2
   9  -7  -2 124279. 4181.84   2
  -7  -2  -2 130872. 4133.63   1
  -2   9  -2 130415. 4163.64   3
  -2   9   1 53782.2 2322.81   3
  -2   9   4 17113.1 1929.13   3
  -2   9   7 22377.2 2813.52   3
  -2   9  10 8766.37 3493.77   3
  -6  -3  -9 5441.85 2212.14   1
  -3   9  -9 9430.98 2175.00   2
  -6  -3  -9 6168.58 2002.78   2
   9  -6  -9 5273.74 2411.04   1
   9  -6  -9 8358.92 1970.75   2
  -6  -3  -6 33527.4 2232.29   2
   9  -6  -6 33487.9 2596.81   1
   9  -6  -6 36503.3 2193.95   2
  -6  -3  -6 34494.1 2135.05   1
  -3   9  -3 4411.17 813.274   1
  -3   9  -3 2697.38 793.524   3
  -3   9   0 17793.9 1595.20   3
   9  -6   0 14787.2 1478.69   2
  -3   9   3 12119.5 1649.42   3
  -3   9   6 30411.0 2535.76   3
  -3   9   9 198.506 2810.45   3
  -4   9 -10 23937.6 2413.04   2
  -5  -4 -10 19800.5 2431.11   2
  -5  -4 -10 18578.4 2517.54   1
   9  -5 -10 18978.1 2223.79   2
  -4   9  -7 59138.2 2979.99   1
  -5  -4  -7 67015.9 3068.37   1
  -4   9  -7 56566.7 2867.59   2
  -5  -4  -7 70211.8 3240.86   2
   9  -5  -7 68549.3 3372.37   1
   9  -5  -7 72679.8 3064.44   2
  -5  -4  -4 41612.4 1884.74   1
  -4   9  -4 38544.0 1592.23   3
  -4   9  -4 39523.7 1770.57   2
   9  -5  -4 39809.9 1874.76   2
   9  -5  -4 43035.9 2174.82   1
  -5  -4  -1 213931. 6423.56   1
  -4   9  -1 221888. 6504.16   3
   9  -5  -1 231758. 6737.00   1
   9  -5  -1 231754. 6570.93   2
  -4   9   2 8824.34 1524.09   3
  -4   9   5 70414.2 2995.64   3
  -4   9   8 19075.7 2933.50   3
  -4   9  11 41421.3 3980.53   3
  -4  -5 -11 30136.7 2628.93   2
  -4  -5 -11 31969.2 2776.18   1
   9  -4 -11 26369.2 2853.50   1
   9  -4 -11 30413.5 2404.43   2
  -4  -5  -8 19930.3 2533.65   1
  -4  -5  -8 18897.2 2282.18   2
  -5   9  -8 16013.4 2346.07   1
   9  -4  -8 15784.1 2631.69   1
   9  -4  -8 17590.8 2088.37   2
  -5   9  -8 13905.8 2171.50   2
  -5   9  -5 67256.2 2488.71   1
  -5   9  -5 62051.6 2348.55   3
  -4  -5  -5 69814.6 2674.36   2
   9  -4  -5 63372.1 2799.61   1
  -4  -5  -5 70886.4 2641.09   1
   9  -4  -5 66703.0 2669.60   2
   9  -4  -2 3157.87 1164.95   2
   9  -4  -2 4788.03 1527.10   1
  -5   9  -2 2858.24 696.151   2
  -5   9  -2 2290.93 839.744   3
  -4  -5  -2 1294.80 929.687   1
  -5   9   1 252571. 7406.69   3
   9  -4   1 242797. 7577.66   2
  -5   9   4 26351.6 1834.39   3
  -5   9   7 68206.2 3993.22   3
  -3  -6  -9 1439.60 2018.04   1
   9  -3  -9 2889.28 1874.79   2
  -6   9  -9-950.424 2178.93   2
  -3  -6  -9 2728.29 2213.28   2
   9  -3  -9 345.512 2149.58   1
   9  -3  -6 20605.4 2106.37   1
  -6   9  -6 15286.8 1612.41   2
  -6   9  -6 18331.7 1658.26   1
  -3  -6  -6 22446.4 2209.18   2
  -3  -6  -6 18557.8 2368.90   1
   9  -3  -6 20871.6 1992.06   2
   9  -3  -3 945.980 1205.99   2
  -6   9  -3 1624.82 799.708   3
  -6   9  -3 1724.46 836.505   2
  -6   9  -3 942.809 757.755   1
  -6   9   0 13351.8 1302.19   3
  -3  -6   0 10199.1 782.310   1
   9  -3   0 10687.7 1372.51   2
   9  -3   3 3452.09 872.759   3
  -6   9   3 1831.45 1435.98   3
  -6   9   6 28453.4 2682.45   3
  -6   9   9 3494.22 2784.57   3
  -2  -7 -10 5093.48 2340.24   1
   9  -2 -10 5521.69 1964.62   2
  -2  -7 -10 6941.02 2302.22   2
  -7   9 -10 6489.62 2567.23   2
   9  -2  -7 29145.5 2465.85   1
  -7   9  -7 30314.0 2399.88   2
  -2  -7  -7 28062.3 2526.79   1
   9  -2  -7 33828.5 2460.99   2
  -7   9  -7 29448.0 2119.64   1
  -7   9  -4 4766.92 716.814   3
  -7   9  -4 5658.26 948.526   1
   9  -2  -4 3987.42 1789.37   1
  -7   9  -4 4584.38 1068.86   2
  -2  -7  -4 4593.67 1287.72   2
   9  -2  -4 5492.06 1409.83   2
  -7   9  -1 66353.8 2391.54   3
   9  -2  -1 71407.8 2490.82   2
  -2  -7  -1 68580.0 2175.47   1
   9  -2   2 78965.7 2439.61   3
  -7   9   5 168664. 5616.58   3
  -7   9   8 7846.75 2680.15   3
  -7   9  11 24522.0 3344.52   3
  -1  -8 -11 15547.6 2331.35   1
   9  -1 -11 15409.8 2541.29   1
  -1  -8 -11 12500.4 2699.49   2
   9  -1 -11 11615.7 2109.44   2
  -8   9 -11 14492.1 2682.87   2
  -8   9  -8 10228.3 1912.48   2
  -8   9  -8 12283.8 1981.49   1
  -1  -8  -8 17210.0 2377.42   1
  -1  -8  -8 17004.3 2249.25   2
   9  -1  -8 15652.3 2311.01   1
   9  -1  -8 12953.9 2065.50   2
  -8   9  -5 31128.2 1722.32   1
  -1  -8  -5 44393.5 2371.41   2
  -1  -8  -5 31461.9 2267.60   1
   9  -1  -5 32698.7 2180.82   1
   9  -1  -5 40644.6 2054.42   2
   9  -1  -2 22775.3 1914.47   1
  -8   9  -2 22486.4 1160.74   3
  -8   9   1 71413.0 2653.19   3
   9  -1   1 81307.1 2429.32   3
   9  -1   4 91584.0 3114.35   3
  -8   9   4 96540.9 3631.04   3
  -8   9   7 81456.2 3932.95   3
  -9   9  -9-762.073 2334.57   1
   9   0  -9-445.135 1960.47   2
   0  -9  -9 1857.32 2118.68   2
   0  -9  -9 2993.83 2120.78   1
   9   0  -9 4098.03 2142.58   1
  -9   9  -9 1350.77 1868.85   2
  -9   9  -6 13017.8 1772.51   1
   0  -9  -6 14819.0 1861.46   2
  -9   9  -6 13036.9 1585.24   2
   0  -9  -6 13657.4 2098.51   1
   9   0  -6 13346.8 2031.50   1
   9   0  -6 17859.4 2026.49   2
   9   0  -3-18.8569 1283.04   2
  -9   9  -3-1680.58 831.775   3
   0  -9  -3 1369.02 1032.79   2
   0  -9   0 71639.6 2493.21   1
   9   0   0 74690.2 2332.40   3
  -9   9   0 78270.1 2603.79   3
  -9   9   3-216.199 1827.12   3
   9   0   3 333.721 1116.24   3
  -9   9   6 13426.3 2485.28   3
  -9   9   9-1863.81 2502.50   3
   1 -10 -10 6755.77 2583.63   2
   1 -10 -10 12410.3 2134.39   1
   9   1 -10 10782.0 2433.02   1
   9   1 -10 9669.79 2203.32   2
 -10   9 -10 5195.16 2492.87   1
 -10   9  -7 31163.6 2260.47   1
 -10   9  -7 33897.9 2192.54   2
   1 -10  -7 35651.2 2708.22   1
   1 -10  -7 34503.5 2711.96   2
   9   1  -7 28739.0 2563.30   1
 -10   9  -4 21643.7 1368.98   1
   9   1  -4 12535.3 1801.93   1
   9   1  -4 25691.8 1858.44   2
   1 -10  -4 13061.2 1805.74   1
   1 -10  -4 21153.4 1353.51   2
   1 -10  -1 30893.9 1574.53   1
 -10   9  -1 31685.2 1501.75   3
   9   1   2 44626.8 1776.94   3
 -10   9   5 33709.7 2531.88   3
   9   1   5 32878.0 2280.33   3
 -10   9   8 9419.08 2461.95   3
   2 -11 -11 22183.6 2418.97   1
 -11   9 -11 19648.4 3022.28   1
 -11   9 -11 26034.5 2484.57   2
   9   2 -11 15735.9 2243.02   2
   2 -11 -11 21930.4 2549.85   2
   2 -11  -8 48315.8 2934.14   2
   9   2  -8 41617.6 2506.56   2
 -11   9  -8 38259.9 2356.66   2
   2 -11  -8 44172.7 2460.04   1
 -11   9  -8 41295.0 2557.34   1
   2 -11  -5 11839.3 2015.04   1
 -11   9  -5 16862.2 1654.36   1
   2 -11  -5 12553.3 1571.76   2
   9   2  -5 9422.66 2309.22   1
   9   2  -5 14993.0 2074.35   2
   2 -11  -2 60435.9 2066.64   2
   9   2  -2 53932.9 2462.62   2
 -11   9  -2 56751.2 2271.57   3
   9   2   1 97651.9 3078.98   3
 -11   9   1 98158.5 3318.51   3
 -11   9   4 41196.2 2633.05   3
   9   2   4 40887.6 2253.57   3
 -11   9   7 40478.3 2898.77   3
 -12   9  -9 2622.75 2183.89   1
   3 -12  -9 3079.09 2118.24   2
 -12   9  -9 2479.45 2055.03   2
   3 -12  -6 41479.8 2427.03   1
 -12   9  -6 35738.0 2104.60   1
   3 -12  -6 39185.1 2503.89   2
 -12   9  -6 27912.7 1949.02   2
   9   3  -6 29137.6 2900.87   1
   9   3  -6 36437.5 2533.19   2
   3 -12  -3 24116.5 1433.92   2
   9   3  -3 25628.1 1829.69   2
 -12   9   0 4866.06 1386.96   3
   3 -12   0 5388.31 811.654   1
   3 -12   0 2444.40 504.753   2
 -12   9   3 27666.4 2064.79   3
 -12   9   6 2592.33 2173.22   3
   4 -13 -10 6471.78 2188.82   1
   9   4 -10 4839.43 2126.92   2
 -13   9 -10 4335.51 2115.81   2
 -13   9 -10 5519.57 2367.50   1
   4 -13 -10 5910.77 2178.41   2
   4 -13  -7 17800.3 2328.41   1
 -13   9  -7 13206.6 1931.71   1
 -13   9  -7 14323.6 1834.40   2
   4 -13  -7 19647.8 2101.38   2
   9   4  -7 15159.5 2300.65   2
   4 -13  -4 12586.7 1569.97   2
   9   4  -4 15914.5 2021.76   2
 -13   9  -4 13542.8 1671.88   1
   4 -13  -4 17278.4 2211.98   1
   4 -13  -1 162438. 4528.27   2
   9   4  -1 155944. 4635.73   3
   9   4  -1 147014. 4962.72   2
   4 -13  -1 145633. 4559.55   1
 -13   9   2 8832.10 1625.01   3
 -13   9   5 29449.2 2685.28   3
   9   4   5 42779.0 2919.75   3
   5 -14  -8 15666.4 2014.84   2
 -14   9  -8 13854.1 2160.34   2
 -14   9  -8 12871.6 2144.45   1
   9   5  -8 17747.7 2591.05   2
   5 -14  -8 16954.5 2322.14   1
 -14   9  -5 59182.7 2563.13   1
   9   5  -5 57278.1 4117.78   1
   9   5  -5 53239.8 2807.78   2
   5 -14  -5 60957.4 3116.29   1
   9   5  -2 23487.4 1302.72   3
   5 -14  -2 23736.7 1281.58   2
   9   5  -2 23955.4 2381.18   2
   9   5   1 37593.2 1881.25   3
 -14   9   4 25617.7 2676.18   3
   9   5   4 24646.1 2129.24   3
   6 -15  -9 2532.49 2105.04   1
   6 -15  -6 4471.00 1604.88   2
 -15   9  -6 2923.41 1662.26   1
   9   6  -6 4852.92 2417.57   2
   6 -15  -6 7717.17 2373.38   1
   9   6  -3 4213.48 2499.00   2
   6 -15  -3 2808.10 1051.21   2
   9   6  -3 1493.29 1119.28   3
   6 -15  -3 3150.71 1371.03   1
   6 -15   0 21583.7 1852.35   1
   9   6   0 16986.5 2542.46   2
   9   6   0 18436.6 1560.18   3
   9   6   3 5401.54 1892.53   3
   9   6   6 7346.86 3272.45   3
   9   7 -10 4497.90 2584.21   2
   7 -16 -10 5932.22 2014.22   1
 -16   9 -10 3943.62 2121.48   2
   7 -16 -10 250.255 1887.09   2
 -16   9 -10 4077.28 2185.21   1
   9   7  -7 13861.8 2440.42   2
   7 -16  -7 9474.78 1689.33   2
 -16   9  -7 12408.2 2006.44   1
   7 -16  -7 17054.8 2708.28   1
   9   7  -4 13122.0 2633.72   2
   9   7  -4 8577.52 1325.54   3
   7 -16  -4 12956.3 2265.95   1
 -16   9  -4 11808.3 1717.86   1
   7 -16  -1 5619.97 1281.21   1
   9   7  -1 7043.57 1268.49   3
   9   7   2 29566.0 2009.07   3
   9   7   5 28610.8 3007.97   3
   9   8  -8 2394.90 2499.12   2
   8 -17  -8 350.682 1684.41   2
   9   8  -5 15742.3 2894.52   2
   9   8  -5 9067.64 1509.73   3
   8 -17  -5 8688.20 2410.15   1
 -17   9  -5 12404.9 2079.77   1
   9   8  -2 10725.7 1292.05   3
   8 -17  -2 8460.25 1269.13   1
   9   8  -2 9923.47 2300.63   2
   9   8   1 10186.9 1735.78   3
   9   8   4 14550.7 2534.78   3
   9 -18  -9 2903.54 2215.57   1
 -18   9  -9 4411.17 2263.90   2
 -18   9  -9 365.150 2179.77   1
   9   9  -9 2526.80 1812.34   3
   9   9  -6 9844.57 2596.74   2
   9 -18  -6 9341.18 2474.10   1
   9   9  -6 10531.7 1602.08   3
 -18   9  -6 7944.37 1852.51   1
   9 -18  -3 3848.70 1299.58   1
   9   9  -3 1430.34 1201.34   3
   9   9  -3-217.953 2992.60   2
   9   9   0 35870.7 2267.10   3
   9   9   3 2188.78 2144.94   3
   9   9   6 7780.84 2983.87   3
   9  10  -4 4541.29 1146.53   3
  10 -19  -4 5120.10 1471.27   1
 -19   9  -4 4589.12 1700.09   1
   9  10  -4 3247.63 2776.83   2
   9  10  -1 14372.2 1609.78   3
   9  10  -1 11497.6 3066.19   2
   9  10   2 8560.57 2063.68   3
   9  10   5 10517.5 2328.04   3
   8  10  -8 10046.2 1886.62   3
  10 -18  -8 9084.42 2741.06   1
 -18   8  -8 8896.46 2119.81   1
   8  10  -5 1478.29 2559.71   2
 -18   8  -5 302.769 1917.42   1
  10 -18  -5 3859.39 2019.30   1
   8  10  -5-1175.44 1462.59   3
   8  10  -2 23185.2 2580.06   2
   8  10  -2 26246.0 1476.64   3
   8  10   1 3416.86 1731.82   3
   8  10   4 17491.5 2506.87   3
 -17   7  -9 1423.63 2143.71   2
 -17   7  -9 1224.96 2039.54   1
  10 -17  -9 463.603 2392.58   1
   7  10  -9 2928.86 1868.34   3
   7  10  -6 7517.36 2252.37   2
  10 -17  -6 9323.45 2230.55   1
  10 -17  -6 5170.07 1491.72   2
   7  10  -6 7543.86 1605.64   3
 -17   7  -6 5917.63 1783.28   1
  10 -17  -3 2090.01 1543.36   1
   7  10  -3 3101.33 1271.44   3
   7  10  -3-767.310 2568.32   2
   7  10   0 7678.67 1722.17   3
   7  10   3 4826.83 2022.58   3
   7  10   6 3051.27 2818.48   3
 -16   6 -10 10839.2 2173.20   1
 -16   6 -10 6470.41 2294.32   2
  10 -16 -10 10938.7 2041.13   2
  10 -16 -10 7526.32 2206.03   1
 -16   6  -7 20206.8 2151.41   1
   6  10  -7 20855.7 2508.75   2
   6  10  -7 22154.2 1830.75   3
  10 -16  -7 18069.4 1927.99   2
  10 -16  -7 24534.5 2944.40   1
   6  10  -4 4775.66 2126.51   2
  10 -16  -4 8702.10 1832.23   1
   6  10  -4 5014.97 1389.63   3
 -16   6  -4 10585.6 1820.94   1
  10 -16  -4 5866.94 1176.61   2
  10 -16  -1 3743.94 1860.07   1
   6  10  -1 2844.36 1351.53   3
   6  10   2 27443.3 2079.54   3
   6  10   5 14276.8 3069.30   3
   5  10  -8 9041.02 1766.38   3
   5  10  -8 8670.27 2162.46   2
  10 -15  -8 10111.3 1934.81   2
 -15   5  -5 25909.5 2058.12   1
   5  10  -5 22981.5 1851.17   3
   5  10  -5 25143.9 2594.24   2
  10 -15  -5 30405.3 2505.14   1
   5  10  -2 40706.4 1722.01   3
  10 -15  -2 35689.9 1644.86   2
  10 -15  -2 35159.0 2160.40   1
   5  10   1 21460.3 1687.00   3
   5  10   4 23726.5 2552.17   3
   5  10   7 21033.4 3429.14   3
 -14   4  -9 3982.56 1905.59   1
  10 -14  -9 965.564 2277.32   1
 -14   4  -9 1432.25 2122.13   2
  10 -14  -6 2743.76 1555.11   2
  10 -14  -6 1714.72 2273.23   1
   4  10  -6 1119.45 1709.28   3
   4  10  -6 2418.25 2058.58   2
 -14   4  -6-60.2041 1682.31   1
 -14   4  -3 22089.2 1689.90   1
   4  10  -3 20421.2 1514.90   3
  10 -14  -3 21734.7 2379.43   1
   4  10   0-2008.09 1252.76   3
  10 -14   0 627.752 3907.57   2
   4  10   3 3639.70 2196.34   3
   4  10   6 12289.4 2930.49   3
 -13   3 -10 28170.1 2317.64   1
 -13   3 -10 31950.6 2590.39   2
  10 -13 -10 32485.7 2632.49   1
  10 -13 -10 37584.1 2444.38   2
   3  10  -7 5094.53 1844.42   2
  10 -13  -7 3896.77 1705.68   2
   3  10  -7 4268.23 1663.38   3
 -13   3  -7 3620.20 1789.16   1
   3  10  -4 92116.0 2928.82   3
 -13   3  -4 93579.6 2973.65   1
  10 -13  -1 23713.7 1468.48   2
   3  10  -1 23865.1 1454.54   3
   3  10   2 102739. 3608.32   3
   3  10   5 20361.6 2653.27   3
   3  10   8 33830.8 2838.80   3
  10 -12  -8 7164.80 1895.10   2
 -12   2  -8 8062.66 1908.69   1
   2  10  -8 6910.16 1847.06   2
 -12   2  -8 7792.43 2097.82   2
  10 -12  -8 6420.35 2216.14   1
 -12   2  -5 22175.1 1636.53   1
   2  10  -5 20433.3 1735.06   3
   2  10  -5 20634.7 1894.73   2
  10 -12  -5 21791.5 2133.82   1
  10 -12  -5 18356.1 1622.27   2
   2  10  -2 39177.5 1690.20   3
   2  10  -2 31985.3 2107.05   2
  10 -12  -2 33818.3 2397.49   1
  10 -12  -2 35068.8 1925.90   2
   2  10   1 115967. 3795.74   3
   2  10   4 58583.3 3264.92   3
   2  10   7 15257.8 2382.48   3
   1  10  -9 16253.7 2318.32   2
   1  10  -6 8779.46 1975.17   2
  10 -11  -6 5717.22 1726.37   2
  10 -11  -6 5829.10 2197.51   1
   1  10  -6 2167.40 1472.17   3
 -11   1  -6 3112.22 1691.70   1
   1  10  -3 8034.48 1283.71   3
   1  10  -3 8785.51 1242.09   2
  10 -11  -3 11661.5 1685.02   1
 -11   1  -3 8382.16 1243.16   1
   1  10   0 6200.60 1168.25   3
   1  10   3 47499.9 2749.65   3
   1  10   6 15594.9 2632.29   3
   1  10   9 18315.6 3309.09   3
 -10   0 -10 31974.4 2538.63   1
 -10   0 -10 35415.8 2668.45   2
  10 -10 -10 32316.8 2775.33   1
  10 -10 -10 39762.0 2594.72   2
  10 -10  -7 6964.89 2014.41   2
  10 -10  -7 3509.13 2278.59   1
   0  10  -7 4746.57 1889.18   2
 -10   0  -7 6515.48 1872.74   1
 -10   0  -7 4071.53 2093.59   2
   0  10  -4 222589. 6717.43   3
 -10   0  -4 226903. 6711.16   1
   0  10  -4 231703. 6733.04   2
  10 -10  -4 245734. 6950.30   1
  10 -10  -4 210465. 6748.81   2
  10 -10  -1 4746.69 1399.04   2
   0  10   2 260297. 7827.64   3
   0  10   5 7706.60 2558.50   3
   0  10   8 29945.7 2861.33   3
  10  -9 -11 10746.8 2491.39   1
  -9  -1 -11 13785.4 2290.39   2
  10  -9 -11 11643.1 2118.38   2
  -9  -1 -11 12579.3 2408.96   1
  10  -9  -8 10548.2 2041.37   2
  -1  10  -8 7633.68 1795.37   2
  -9  -1  -8 9492.18 2023.36   2
  10  -9  -8 4679.20 2216.99   1
  -9  -1  -8 10970.6 1842.44   1
  -9  -1  -5 47842.1 2197.47   1
  -1  10  -5 46550.8 2081.69   3
  10  -9  -5 48726.2 2418.73   1
  10  -9  -5 41828.8 2124.71   2
  10  -9  -2 48364.4 2459.19   1
  -1  10  -2 50246.3 1776.44   2
  -1  10   4 26646.7 2195.02   3
  -1  10   7 45207.6 3427.24   3
  -2  10  -9 12362.5 2319.85   2
  10  -8  -9 11835.8 2347.00   1
  10  -8  -9 16094.6 2099.82   2
  -2  10  -6 393.340 1449.87   2
  10  -8  -6 4090.39 2066.42   1
  -2  10  -6 1233.89 1478.04   3
  -8  -2  -6 2110.21 1730.39   1
  -8  -2  -6-1660.38 1922.67   2
  10  -8  -6 2301.59 1715.27   2
  -8  -2  -3 36714.7 1574.32   1
  10  -8  -3 40647.1 2180.34   1
  10  -8   0 14999.7 1516.91   2
  -2  10   3 39736.9 2295.55   3
  -2  10   6 3100.93 2305.13   3
  -2  10   9 6336.43 2922.63   3
  -3  10 -10 33975.2 2698.58   2
  -7  -3 -10 36853.4 2863.21   1
  10  -7 -10 30588.8 2923.80   1
  10  -7 -10 38916.7 2579.30   2
  -7  -3 -10 35672.0 2592.03   2
  -7  -3  -7 5406.82 1974.89   1
  10  -7  -7 6077.80 2405.81   1
  -3  10  -7 2023.38 1547.03   2
  -7  -3  -7 3053.57 2066.27   2
  10  -7  -7 7135.75 2158.86   2
  -3  10  -4 189530. 5192.13   2
  -7  -3  -4 179073. 5329.98   1
  -3  10  -4 156384. 5122.14   1
  10  -7  -4 174750. 5501.46   1
  10  -7  -4 166645. 5303.32   2
  -3  10  -1 12600.0 1198.31   3
  10  -7  -1 12796.9 1209.34   2
  -3  10   5 11012.4 1806.39   3
  -3  10   8 50058.3 3370.72   3
  -3  10  11 2958.05 3480.48   3
  10  -6 -11 7351.79 1978.45   2
  -6  -4 -11 8136.88 2258.48   2
  10  -6 -11 9530.08 2415.93   1
  -6  -4 -11 9431.53 2259.65   1
  -4  10  -8 26556.3 2127.32   2
  -6  -4  -8 27766.1 2386.06   1
  -6  -4  -8 34131.9 2500.83   2
  10  -6  -8 34047.2 2571.85   1
  10  -6  -8 32321.8 2313.50   2
  10  -6  -5 36773.9 2024.32   2
  10  -6  -5 38278.7 2212.76   1
  -6  -4  -5 38362.8 2017.20   1
  -6  -4  -2 59280.4 1617.59   1
  -4  10  -2 48721.5 1563.13   3
  10  -6   1 111617. 4066.21   2
  -4  10   1 115495. 3861.32   3
  -4  10   4 29154.5 2085.56   3
  -4  10   7 36058.8 2945.46   3
  -5  10  -9 18358.3 2051.39   2
  -5  -5  -9 22293.5 2637.47   1
  -5  -5  -9 22253.6 2360.70   2
  10  -5  -9 21331.2 2554.42   1
  10  -5  -9 17636.8 2008.63   2
  -5  10  -6 17776.9 2238.57   2
  -5  -5  -6 17702.1 1987.62   2
  -5  -5  -6 17317.4 1932.16   1
  10  -5  -6 18196.0 2208.63   1
  10  -5  -6 17106.6 1994.52   2
  -5  10  -3 10695.7 901.581   1
  -5  10  -3 7960.41 999.357   2
  -5  10  -3 10530.1 1041.82   3
  10  -5  -3 11845.4 1784.69   1
  10  -5  -3 11585.2 1460.36   2
  -5  10   0 95350.0 3212.43   3
  -5  10   3 6650.00 1649.35   3
  -5  10   6 22588.0 2463.03   3
  -5  10   9 13616.6 3005.45   3
  -4  -6 -10 35694.1 2668.55   2
  -4  -6 -10 29362.1 2520.65   1
  -6  10 -10 37187.6 2681.67   2
  10  -4 -10 27927.4 2228.16   2
  -6  10  -7 23583.5 2236.63   2
  10  -4  -7 23734.3 2219.96   2
  -4  -6  -7 25459.1 2597.35   1
  -4  -6  -7 26907.3 2463.34   2
  -6  10  -7 16918.7 1943.56   1
  10  -4  -7 28081.6 2494.90   1
  -6  10  -4 29603.3 1434.97   1
  -6  10  -4 29940.2 1454.68   2
  -6  10  -4 26708.5 1307.15   3
  10  -4  -4 33966.9 1829.33   2
  10  -4  -4 34062.7 2298.28   1
  -4  -6  -4 36298.9 1795.30   1
  -4  -6  -1 104436. 3208.45   1
  -6  10  -1 104718. 3477.60   3
  10  -4  -1 105216. 3450.47   2
  10  -4   2 53477.6 1692.90   3
  -6  10   5 46981.1 2593.49   3
  -6  10   8 29106.2 2947.01   3
  -6  10  11 10757.4 3314.49   3
  -3  -7 -11 4094.92 2260.99   2
  -7  10 -11 7172.57 2305.65   2
  10  -3 -11 4391.08 1918.93   2
  -3  -7 -11 3407.37 2401.06   1
  10  -3 -11 6208.36 2430.11   1
  -7  10  -8 61686.5 2940.18   2
  -7  10  -8 66930.8 3180.58   1
  -3  -7  -8 71251.8 3229.13   1
  -3  -7  -8 74252.9 3153.83   2
  10  -3  -8 60532.7 3099.74   1
  10  -3  -8 64483.5 3012.47   2
  -3  -7  -5 732.986 1581.25   1
  10  -3  -5 4404.20 1933.88   1
  10  -3  -5 2337.13 1567.49   2
  -7  10  -5 4088.10 991.854   3
  -3  -7  -5 3569.66 1492.14   2
  -7  10  -2 76895.5 2667.86   3
  -3  -7  -2 84604.9 2613.47   1
  -7  10   1 5961.36 1413.82   3
  10  -3   4 172631. 5242.44   3
  -7  10   4 185070. 5663.90   3
  -7  10   7 6785.04 2830.01   3
  -2  -8  -9 9649.16 2190.78   2
  10  -2  -9 6483.42 1949.52   2
  10  -2  -9 7400.55 2172.06   1
  -8  10  -9 4707.29 1908.12   2
  -2  -8  -9 7051.50 2237.94   1
  -8  10  -6 1734.35 1393.74   2
  10  -2  -6-1132.06 1876.19   2
  10  -2  -6 2441.10 2152.83   1
  -8  10  -6 2562.61 1845.27   1
  -2  -8  -6 2643.14 1827.83   2
  -2  -8  -6 1812.78 2220.64   1
  10  -2  -3 29532.9 2068.24   1
  -8  10  -3 18889.8 1175.17   3
  10  -2  -3 30252.3 1558.08   2
  -8  10  -3 18831.5 1029.88   1
  -8  10   0 8228.93 1247.50   3
  -2  -8   0 5602.59 724.355   1
  10  -2   3 18197.2 1304.42   3
  -8  10   3 24613.6 1958.31   3
  -8  10   6 233.527 2348.52   3
  -8  10   9 7141.15 2784.80   3
  -1  -9 -10 14880.9 2353.87   1
  -9  10 -10 13091.5 2361.22   2
  -1  -9 -10 13824.3 2483.16   2
  10  -1 -10 12900.4 2156.48   2
  -1  -9  -7 27296.2 2565.57   1
  10  -1  -7 33993.5 2534.05   2
  10  -1  -7 26333.9 2806.05   1
  -9  10  -7 27096.8 2015.36   2
  -9  10  -7 30040.3 2341.38   1
  -1  -9  -4 20675.3 1463.66   2
  -1  -9  -4 15840.6 1865.55   1
  10  -1  -4 18580.3 2151.41   1
  -9  10  -1 37768.8 1628.93   3
  -1  -9  -1 28177.2 1554.77   1
  10  -1   2 23905.8 1181.90   3
  -9  10   5 42600.1 2753.10   3
  -9  10   8 2421.36 2499.96   3
  -9  10  11 12107.2 2997.28   3
  10   0 -11 2918.99 2084.73   2
   0 -10 -11 7217.73 2138.72   1
   0 -10 -11 7210.49 2528.42   2
 -10  10 -11 8372.76 2323.11   2
   0 -10  -8 32903.1 2402.58   2
 -10  10  -8 24264.4 1852.83   2
   0 -10  -8 32160.5 2561.23   1
  10   0  -8 26331.2 2568.10   1
  10   0  -8 27472.4 2222.45   2
 -10  10  -8 22705.7 2074.00   1
  10   0  -5 2878.24 1812.12   2
  10   0  -5 663.803 1932.79   1
   0 -10  -5 1991.57 1442.04   2
 -10  10  -5 394.655 1224.29   2
   0 -10  -5 1643.82 1643.52   1
 -10  10  -5 2713.89 1278.45   1
   0 -10  -2 202759. 6143.40   2
 -10  10  -2 206112. 6151.32   3
  10   0  -2 211322. 6361.18   2
  10   0   1 3404.64 1032.72   3
 -10  10   1 2423.15 1323.93   3
 -10  10   4 230450. 7154.44   3
  10   0   4 226188. 6892.74   3
 -10  10   7 2028.60 2584.20   3
 -10  10  10 23860.8 2936.02   3
   1 -11  -9 16305.2 2527.06   2
 -11  10  -9 12351.9 2018.54   2
 -11  10  -9 16410.5 2215.00   1
  10   1  -9 12154.2 2336.61   1
 -11  10  -6 10152.9 1774.93   1
   1 -11  -6 12543.5 2215.84   1
 -11  10  -6 8553.29 1426.97   2
  10   1  -6 13699.5 2149.03   2
   1 -11  -6 15156.3 1979.53   2
  10   1  -6 8438.57 2363.76   1
   1 -11  -3 41988.3 1896.74   2
  10   1  -3 49458.2 2231.80   2
 -11  10   0 5267.82 1405.89   3
   1 -11   0 1211.73 688.784   1
  10   1   0 5297.24 1891.43   2
 -11  10   3 1368.38 1851.30   3
  10   1   3 1061.65 1183.65   3
 -11  10   6 4066.69 2374.38   3
   2 -12 -10 13636.3 2264.38   1
  10   2 -10 9600.82 2231.79   2
   2 -12 -10 11023.3 2345.91   2
   2 -12  -7 7509.42 2023.59   2
   2 -12  -7 7322.79 1995.79   1
  10   2  -7 2041.07 2235.85   1
  10   2  -7 7575.36 2234.83   2
 -12  10  -7 3962.00 1561.25   2
 -12  10  -7 3822.30 1924.59   1
   2 -12  -4 40764.4 2377.16   1
  10   2  -4 44333.0 3305.19   1
  10   2  -4 47091.7 2480.29   2
 -12  10  -4 37251.1 1865.82   1
   2 -12  -4 45276.8 2024.58   2
 -12  10  -1 120077. 3471.08   3
  10   2  -1 104754. 3263.55   3
  10   2  -1 125426. 3889.98   2
   2 -12  -1 103564. 3174.18   2
   2 -12  -1 91831.7 3374.71   1
 -12  10   2 22292.4 1864.63   3
  10   2   2 22066.3 1355.31   3
 -12  10   5 21340.1 2421.93   3
 -12  10   8 549.183 2178.67   3
   3 -13  -8 35902.2 2552.21   2
   3 -13  -8 41474.0 2625.11   1
 -13  10  -8 38502.5 2674.25   1
  10   3  -8 35227.8 2509.25   2
  10   3  -5 13067.6 2742.84   1
   3 -13  -5 13069.4 1743.65   2
 -13  10  -5 11675.8 1656.60   1
  10   3  -5 16360.8 2190.20   2
   3 -13  -2 96988.5 3227.93   2
  10   3  -2 105997. 3871.44   2
 -13  10   4 86367.2 3618.37   3
 -13  10   7 3203.73 2099.35   3
   4 -14  -9 10875.0 2283.34   1
 -14  10  -9 11361.2 2122.63   2
   4 -14  -6 9180.55 2429.97   1
  10   4  -6 7736.26 2570.78   1
  10   4  -6 12242.2 2376.02   2
   4 -14  -6 7535.22 1873.40   2
 -14  10  -6 7337.06 1688.21   1
  10   4  -3 2315.93 1882.74   2
   4 -14  -3 3164.11 1227.44   2
   4 -14  -3 4207.37 1611.66   1
   4 -14   0 754.370 1113.71   1
 -14  10   0 224.048 1731.49   3
  10   4   0 373.619 1043.36   3
  10   4   0 406.231 2681.05   2
 -14  10   3 11103.8 2346.49   3
  10   4   3 14418.0 1862.46   3
 -14  10   6 3384.76 2281.04   3
  10   5 -10 6586.91 2245.95   2
   5 -15 -10 9827.52 2153.33   2
 -15  10 -10 14422.5 2647.18   1
 -15  10 -10 10450.4 2326.69   2
   5 -15 -10 10081.4 2110.89   1
 -15  10  -7 10811.1 2110.72   1
   5 -15  -7 11093.1 1754.20   2
 -15  10  -7 8515.25 1818.94   2
  10   5  -7 15004.3 2373.44   2
   5 -15  -7 17049.7 2425.06   1
   5 -15  -4 38756.3 2124.59   2
  10   5  -4 41248.7 2759.67   2
 -15  10  -4 42658.7 2143.37   1
  10   5  -1 26205.0 2806.10   2
  10   5  -1 22212.9 1278.01   3
 -15  10   2 50981.2 2668.15   3
  10   5   2 48130.7 2219.79   3
 -15  10   5 20941.5 2482.32   3
  10   5   5 25552.8 3343.46   3
 -16  10  -8 16851.6 2456.33   1
   6 -16  -8 15259.8 1935.07   2
 -16  10  -8 13568.5 2008.54   2
  10   6  -8 18270.1 2621.95   2
  10   6  -5 14536.9 2637.50   2
   6 -16  -5 11010.5 1593.03   2
 -16  10  -5 12448.9 1986.21   1
   6 -16  -5 12484.7 2401.12   1
  10   6  -2 22084.8 1441.38   3
  10   6  -2 23002.9 2741.51   2
  10   6   1 4283.26 1866.86   3
  10   6   4 7590.93 2608.78   3
 -17  10  -9-383.291 2177.33   1
 -17  10  -9 1156.17 2037.96   2
  10   7  -9 1238.86 2468.58   2
   7 -17  -9 3377.58 2100.89   1
  10   7  -6 1649.17 2565.59   2
   7 -17  -6 1492.91 2269.19   1
 -17  10  -6 958.719 1741.58   1
   7 -17  -3 5280.50 1361.64   1
  10   7  -3 3378.78 1242.61   3
  10   7  -3 6154.58 3025.99   2
  10   7   0 4406.05 1463.55   3
  10   7   3 1563.86 1780.16   3
  10   8  -7 2607.21 2521.02   2
 -18  10  -7 5506.79 1903.49   1
   8 -18  -7 6684.86 2521.15   1
 -18  10  -4 22908.5 1966.72   1
  10   8  -4 15306.7 1526.16   3
   8 -18  -4 17753.9 2019.50   1
  10   8  -4 16545.3 3015.74   2
  10   8  -1 2907.33 1187.69   3
  10   8  -1 4204.99 3689.67   2
  10   8   2 38155.2 2384.40   3
  10   8   5 105.509 2244.19   3
 -19  10  -8 1330.32 2122.82   1
  10   9  -8 4633.41 1788.54   3
 -19  10  -8 2529.10 2423.58   2
   9 -19  -8 1067.23 2833.07   1
  10   9  -5 11916.6 2857.80   2
  10   9  -5 9349.67 1423.54   3
   9 -19  -5 10929.1 2096.50   1
 -19  10  -5 10117.4 1987.45   1
  10   9  -2 6572.42 1410.82   3
  10   9  -2 7833.96 3029.70   2
  10   9   1 7079.83 2088.72   3
  10   9   4 1489.61 2047.97   3
  10  10  -6 13657.1 3079.77   2
  10 -20  -6 13288.8 2528.68   1
  10  10  -3 2880.76 1180.65   3
  10 -20  -3 749.259 1170.73   1
  10  10  -3 927.996 2315.14   2
  10  10   0 12382.5 1949.00   3
  10  10   3 919.224 2223.22   3
 -21  10  -7 2627.07 1898.63   1
  10  11  -7-1244.69 1741.26   3
  11 -21  -4 8074.37 1573.74   1
  10  11  -4 10184.8 1316.70   3
  10  11  -1 517.300 1449.57   3
  10  11   2 7900.98 2175.02   3
  10  11   5-1192.49 2278.80   3
 -20   9  -8-1044.03 2241.44   1
   9  11  -8-1476.66 1810.27   3
   9  11  -5 12604.9 1418.71   3
  11 -20  -5 16255.5 1991.89   1
 -20   9  -5 18806.1 2256.99   1
   9  11  -2 2649.96 1270.18   3
   9  11  -2 5826.95 3248.98   2
   9  11   1 14020.7 2256.08   3
   9  11   4 3418.92 2108.34   3
  11 -19  -9 5617.53 2549.34   1
 -19   8  -9 3981.99 2400.86   2
   8  11  -9 3986.86 1979.64   3
 -19   8  -9 1406.80 2171.82   1
   8  11  -6 4126.11 1622.93   3
 -19   8  -6 5881.79 1939.60   1
  11 -19  -3 8413.79 1662.65   1
   8  11  -3 11642.1 1442.65   3
   8  11  -3 12885.7 2484.66   2
   8  11   0 2134.83 1893.77   3
   8  11   3 12962.6 2267.27   3
   8  11   6 2429.01 2947.14   3
  11 -18  -7 9669.76 2475.41   1
   7  11  -4 14169.9 1442.74   3
  11 -18  -4 15115.7 2201.70   1
 -18   7  -4 16059.3 1935.06   1
   7  11  -4 9966.55 2572.00   2
  11 -18  -1 9253.24 2233.57   1
   7  11  -1 9876.08 1603.78   3
   7  11   2 52000.7 2761.54   3
   7  11   5 3042.38 2875.50   3
 -17   6  -8 12352.2 2219.14   1
  11 -17  -8 17055.8 2756.41   1
  11 -17  -8 13762.6 2054.38   2
   6  11  -5 10128.9 2290.59   2
   6  11  -5 9389.69 1561.04   3
 -17   6  -5 12503.9 2108.33   1
  11 -17  -5 12553.9 1965.09   1
  11 -17  -2 6080.99 1703.61   1
   6  11  -2 7976.50 1326.33   3
   6  11  -2 6910.44 2222.84   2
   6  11   1 19039.3 1910.66   3
   6  11   4 18152.8 2617.61   3
   6  11   7 11921.2 3319.22   3
 -16   5  -9 2461.74 1986.40   1
  11 -16  -9 1743.53 2387.83   1
 -16   5  -9 1682.06 2109.19   2
   5  11  -9 3006.62 1775.99   3
   5  11  -6 18194.8 1783.84   3
 -16   5  -6 17994.0 1756.86   1
  11 -16  -6 15550.6 1715.80   2
   5  11  -3 18650.0 1603.85   3
  11 -16  -3 11705.8 1738.92   1
   5  11  -3 15125.0 2979.49   2
   5  11   0-283.108 1469.30   3
   5  11   3 50587.1 2867.68   3
   5  11   6 4974.09 2690.11   3
  11 -15 -10 4112.05 2236.11   1
  11 -15 -10 5371.49 1979.18   2
 -15   4 -10 5332.49 1992.56   1
 -15   4 -10 5680.85 2307.54   2
   4  11 -10 4731.37 1740.78   3
 -15   4  -7 16456.0 1940.88   1
   4  11  -7 20068.9 1896.42   3
  11 -15  -7 18259.4 1933.48   2
   4  11  -4 32737.7 2480.43   2
   4  11  -4 30728.6 1790.95   3
  11 -15  -4 28961.1 2163.67   1
 -15   4  -4 37122.2 2103.02   1
   4  11  -1 24750.1 1661.17   3
  11 -15  -1 21785.4 2297.09   1
   4  11   2 48021.4 2574.84   3
   4  11   5 18039.4 3492.97   3
   4  11   8 12923.3 3109.45   3
  11 -14  -8 5202.76 1891.44   2
   3  11  -8 4778.43 1800.84   3
   3  11  -5 28255.8 1928.70   3
 -14   3  -5 25111.0 1842.90   1
  11 -14  -5 27534.4 2274.86   1
   3  11  -5 25405.5 2234.94   2
   3  11  -2 29426.5 2000.35   2
  11 -14  -2 35964.8 2355.84   1
  11 -14  -2 33455.8 1609.89   2
   3  11   1 28693.2 1841.74   3
   3  11   4 23787.9 2735.04   3
   3  11   7 5554.86 2760.58   3
 -13   2  -9 10984.4 1915.54   1
   2  11  -9 11492.4 1750.73   3
 -13   2  -9 7866.71 2280.04   2
  11 -13  -9 10591.4 2361.53   1
 -13   2  -6 7134.70 1827.99   1
   2  11  -6 10364.0 2138.70   2
  11 -13  -6 9869.60 1808.88   2
  11 -13  -6 15522.2 2264.16   1
   2  11  -6 10571.7 1836.44   3
   2  11  -3 39609.8 1895.22   3
   2  11  -3 29994.1 2005.27   2
  11 -13  -3 31257.3 2240.23   1
 -13   2  -3 39611.7 1802.31   1
   2  11   0 656.128 1189.37   3
  11 -13   0 1174.55 2730.29   2
   2  11   3 65049.7 3266.92   3
   2  11   6-1914.16 2801.81   3
   2  11   9 28524.6 3746.08   3
 -12   1 -10 13332.1 2282.64   2
 -12   1 -10 12697.7 2094.05   1
  11 -12 -10 15927.7 2382.38   1
  11 -12 -10 16622.3 2159.76   2
   1  11  -7 47510.7 2310.61   3
 -12   1  -7 44997.1 2640.92   2
   1  11  -7 40698.3 2392.55   2
  11 -12  -7 49512.0 2790.72   1
 -12   1  -7 42622.7 2392.54   1
  11 -12  -7 46381.5 2530.72   2
   1  11  -4 30860.5 1927.55   3
 -12   1  -4 30252.1 1700.53   1
   1  11  -4 23723.5 1929.30   2
  11 -12  -4 32728.9 2211.17   1
  11 -12  -4 23580.4 1559.50   2
   1  11  -1 57645.6 2245.75   3
  11 -12  -1 51966.9 2717.37   1
  11 -12  -1 50240.7 2244.84   2
   1  11   2 33282.8 2136.50   3
   1  11   5 77088.4 3638.72   3
   1  11   8 37429.5 2931.89   3
   0  11  -8 24879.2 1858.64   3
 -11   0  -8 23901.0 2214.48   2
  11 -11  -8 27503.0 2453.40   1
  11 -11  -8 32432.4 2486.20   2
 -11   0  -8 24348.5 2024.15   1
  11 -11  -5 3398.01 1918.21   1
 -11   0  -5 516.273 1480.49   1
   0  11  -5 1108.64 1512.38   3
  11 -11  -5 2718.04 1425.25   2
   0  11  -2 97571.4 3358.26   3
   0  11  -2 92631.5 3372.91   2
   0  11   1 1251.00 1415.24   3
   0  11   4 72023.6 3605.04   3
   0  11   7 1144.14 2096.11   3
  11 -10  -6 6423.46 1722.85   2
  -1  11  -6 4262.41 1582.76   3
 -10  -1  -6 7317.87 1790.07   1
  11 -10  -6 10896.1 2090.32   1
  -1  11  -6 6520.41 1809.59   2
  -1  11  -3 2075.82 1132.36   2
  11 -10  -3-37.7840 1914.58   1
  11 -10  -3 1641.45 1210.35   2
  -1  11  -3 854.824 1109.41   3
 -10  -1  -3 1650.81 1085.02   1
  -1  11   0 5477.06 1393.80   3
  11 -10   0 6126.52 1981.68   2
  -1  11   3 47061.9 2665.37   3
  -1  11   6 10188.4 2385.47   3
  -1  11   9 18609.6 3017.32   3
  -9  -2 -10 12199.1 2281.27   1
  -9  -2 -10 12692.2 2255.34   2
  11  -9 -10 15212.7 2389.30   1
  11  -9 -10 16316.2 2282.57   2
  -2  11  -7 53801.4 2489.94   3
  -9  -2  -7 54544.1 2810.16   2
  11  -9  -7 61076.0 3036.69   1
  11  -9  -7 56569.8 2746.37   2
  -9  -2  -7 56919.7 2682.54   1
  -2  11  -7 49779.1 2565.79   2
  -9  -2  -4 43183.0 1999.66   1
  -2  11  -4 46497.6 2286.00   3
  11  -9  -4 44967.1 2409.33   1
  11  -9  -4 40474.4 2142.55   2
  -2  11  -4 37920.7 1852.76   2
  11  -9  -1 81794.7 2847.12   2
  -2  11   2 89518.8 3370.15   3
  -2  11   5 15240.9 2402.28   3
  -2  11   8 46418.8 3014.26   3
  -2  11  11 22000.9 3760.60   3
  11  -8 -11 8082.53 1986.93   2
  -8  -3 -11 6140.93 2120.05   2
  11  -8 -11 11332.9 2549.69   1
  -8  -3 -11 8410.97 2397.49   1
  -3  11  -8 13098.8 1820.86   2
  -8  -3  -8 18083.6 2109.83   2
  11  -8  -8 17459.8 1970.55   2
  -8  -3  -5 50693.9 2409.00   1
  -3  11  -5 53290.9 2285.57   3
  11  -8  -5 50237.5 2372.37   2
  11  -8  -5 49437.9 2666.12   1
  -3  11  -2 47048.5 1656.18   2
  11  -8  -2 55581.3 2552.15   1
  11  -8   1 22779.7 2542.27   2
  -3  11   4 86235.8 3441.88   3
  -3  11   7 13143.5 2571.20   3
  -4  11  -9-430.296 1694.94   2
  11  -7  -9 6119.39 2407.58   1
  11  -7  -6 1647.28 1774.54   2
  -4  11  -6 1990.63 1477.00   3
  -7  -4  -6 4686.53 1813.85   1
  -4  11  -6 1118.82 1484.50   2
  11  -7  -6 5161.87 2007.95   1
  -7  -4  -6 1496.17 1974.37   2
  -7  -4  -3 22378.9 1376.64   1
  11  -7  -3 23821.0 1703.57   2
  11  -7  -3 23832.8 2017.38   1
  11  -7   0 57064.0 2316.85   2
  -4  11   3 50871.4 2489.67   3
  -4  11   6 17712.0 2398.24   3
  -4  11   9 6732.39 3277.64   3
  11  -6 -10 10446.5 1907.02   2
  11  -6 -10 10813.9 2510.78   1
  -6  -5 -10 6685.41 2164.03   2
  -6  -5 -10 7127.56 2432.80   1
  -5  11  -7 26889.5 2077.65   2
  -6  -5  -7 31279.0 2572.16   2
  -6  -5  -7 34907.6 2518.96   1
  11  -6  -7 29248.3 2609.04   1
  11  -6  -7 30831.6 2383.46   2
  -6  -5  -4 40362.6 1953.57   1
  -5  11  -4 32741.3 1601.66   2
  11  -6  -4 36916.9 2389.31   1
  11  -6  -4 40415.5 1991.98   2
  -5  11  -4 28473.0 1501.97   1
  -5  11  -1 149024. 4476.48   3
  -6  -5  -1 142509. 4312.39   1
  -5  11   2 26350.2 2177.23   3
  -5  11   5 54221.9 2614.41   3
  -5  11   8 18681.0 2682.92   3
  -5  11  11 14983.1 3257.46   3
  -5  -6 -11 24492.7 2473.19   2
  -5  -6 -11 21159.0 2548.79   1
  11  -5 -11 22585.5 2732.55   1
  11  -5 -11 20489.9 2217.41   2
  -5  -6  -8 10926.9 2223.82   1
  -6  11  -8 12123.3 1867.16   2
  11  -5  -8 10294.6 1957.90   2
  -5  -6  -8 11032.3 2243.85   2
  11  -5  -8 13871.5 2211.13   1
  -6  11  -5 64096.7 2556.47   3
  -5  -6  -5 82231.6 2969.33   2
  11  -5  -5 83389.8 3518.69   1
  11  -5  -5 81445.2 3058.17   2
  -5  -6  -5 88217.6 2975.83   1
  -6  11  -5 64878.3 2604.56   1
  -6  11  -2 22137.0 1012.14   2
  -5  -6  -2 24950.5 1303.83   1
  -6  11  -2 19775.8 1314.43   3
  11  -5  -2 28234.5 2215.90   1
  11  -5  -2 27280.2 1655.41   2
  -6  11   4 29852.0 1916.46   3
  -6  11   7 28330.9 3074.03   3
  -6  11  10 13971.2 3084.06   3
  11  -4  -9 6364.73 2541.96   1
  -7  11  -9 5138.83 1934.29   2
  -7  11  -6 11340.5 1548.31   2
  -4  -7  -6 11906.4 2117.68   1
  -4  -7  -6 17265.2 2171.95   2
  11  -4  -6 16300.9 2436.87   1
  11  -4  -6 13233.8 1995.60   2
  -7  11  -6 9683.63 1551.94   1
  -7  11  -3 23847.0 1392.83   3
  -7  11  -3 24847.1 1217.35   2
  11  -4  -3 28301.5 2172.57   1
  11  -4  -3 28684.7 1604.26   2
  -7  11   0 45461.0 2058.57   3
  -4  -7   0 45279.2 1581.30   1
  11  -4   3 8647.86 1030.24   3
  -7  11   3 10625.9 1593.60   3
  -7  11   6 8462.17 2564.71   3
  -7  11   9-145.073 2820.74   3
  -3  -8 -10 9053.88 2348.22   1
  11  -3 -10 7847.75 2006.60   2
  -3  -8 -10 9665.21 2317.97   2
  11  -3  -7 8770.80 2015.18   2
  11  -3  -7 10952.1 2500.93   1
  -8  11  -7 5860.55 1749.76   2
  -3  -8  -7 7594.23 2135.84   2
  -3  -8  -7 8674.29 2528.19   1
  -8  11  -7 7933.61 1721.80   1
  -8  11  -4 70650.2 2517.21   1
  -8  11  -4 61556.8 2385.91   3
  -8  11  -4 73947.8 2500.99   2
  -3  -8  -4 77994.4 2694.28   2
  11  -3  -4 81733.1 3250.07   1
  -3  -8  -4 82911.6 2803.84   1
  11  -3  -4 86549.8 2947.05   2
  -3  -8  -1 11479.0 956.586   1
  11  -3  -1 15337.2 1549.47   2
  -8  11  -1 16434.3 1527.68   3
  11  -3   2 47093.2 1587.53   3
  -8  11   5 40883.6 2662.70   3
  -8  11   8 12751.6 2538.80   3
  -8  11  11 5563.76 2908.02   3
  -2  -9 -11 33610.7 2754.69   2
  -2  -9 -11 32129.4 2631.46   1
  11  -2 -11 25833.3 2776.35   1
  -9  11  -8 28768.1 2070.65   2
  -2  -9  -8 25585.2 2430.78   1
  -9  11  -8 24252.8 2082.43   1
  11  -2  -8 29069.2 2523.95   1
  11  -2  -8 32149.0 2328.32   2
  -9  11  -5 17724.2 1479.17   1
  -2  -9  -5 21500.7 1892.58   2
  -2  -9  -5 15510.1 2039.43   1
  11  -2  -5 17547.5 2471.16   1
  11  -2  -5 20080.6 1989.14   2
  11  -2  -2 33555.4 1789.75   2
  -2  -9  -2 33082.5 1513.48   1
  -9  11  -2 32412.4 1685.84   3
  11  -2   1 94940.1 2764.41   3
  -2  -9   1 82884.6 2626.52   1
  -9  11   4 38621.9 2636.15   3
  -9  11   7 44347.6 3234.40   3
  -9  11  10 21635.8 3164.61   3
 -10  11  -9 14280.2 2137.99   2
  11  -1  -9 12733.0 2448.70   1
  -1 -10  -6 14851.1 1934.79   2
  -1 -10  -6 10836.5 2059.13   1
 -10  11  -6 8904.21 1471.13   2
  11  -1  -6 12068.4 2218.47   2
 -10  11  -6 10496.7 1767.90   1
  11  -1  -6 7360.35 2375.31   1
  11  -1  -3 42110.8 2889.77   1
  11  -1  -3 46792.2 2114.05   2
 -10  11   0 5964.41 1386.35   3
  -1 -10   0 6486.96 1190.34   1
  11  -1   0 7584.19 1605.69   2
  11  -1   3 7991.46 1197.03   3
 -10  11   3 9705.68 2008.68   3
 -10  11   6 1292.66 2432.06   3
   0 -11 -10 38099.0 2634.61   1
   0 -11 -10 40758.1 3017.57   2
  11   0  -7 2830.03 2105.83   2
  11   0  -7-154.940 2553.01   1
   0 -11  -7 3018.25 1845.26   2
 -11  11  -7-91.5822 1726.62   1
 -11  11  -7 2964.93 1533.12   2
   0 -11  -7 5014.88 2577.51   1
   0 -11  -4 45744.4 2071.76   2
   0 -11  -4 44484.2 2357.98   1
  11   0  -4 45164.7 2926.71   1
 -11  11  -4 49002.2 1986.12   1
 -11  11  -1 1779.77 1168.75   3
   0 -11  -1-299.974 1327.12   1
  11   0  -1 1438.24 1690.64   2
 -11  11   2 111029. 3746.25   3
  11   0   2 94291.3 3167.82   3
 -11  11   5-3159.62 2480.33   3
 -11  11   8 25514.0 2605.19   3
 -12  11  -8 17130.9 2149.74   1
   1 -12  -8 14490.1 2155.54   2
   1 -12  -8 15975.3 2094.09   1
  11   1  -8 11148.5 2847.91   1
 -12  11  -8 14201.0 1828.07   2
  11   1  -8 13407.4 2166.72   2
   1 -12  -5 72117.0 2727.21   2
   1 -12  -5 66285.5 3145.70   1
 -12  11  -5 63219.1 2645.00   1
  11   1  -5 65695.9 3458.31   1
   1 -12  -2 19689.3 1872.42   1
   1 -12  -2 20789.0 1125.95   2
 -12  11  -2 15903.2 1353.23   3
 -12  11   4 41054.3 2802.31   3
  11   1   4 35013.5 2234.53   3
 -12  11   7 24672.5 2545.31   3
 -12  11  10 19370.7 2783.77   3
 -13  11  -9 13547.5 2075.63   2
 -13  11  -9 17444.4 2371.30   1
  11   2  -6 1253.24 2445.00   2
  11   2  -6-2102.62 2869.18   1
   2 -13  -6 1039.77 2055.91   1
 -13  11  -6 3574.99 1650.07   1
   2 -13  -6 1770.13 1851.75   2
 -13  11  -6-1527.23 1520.04   2
   2 -13  -3 53339.3 2429.87   1
  11   2  -3 44279.9 2689.56   2
  11   2   0 1252.45 874.410   3
 -13  11   0-601.266 1501.36   3
   2 -13   0 383.481 647.514   1
  11   2   0 2795.42 2409.32   2
 -13  11   3 24518.9 2579.46   3
 -13  11   6 1961.89 2449.63   3
 -13  11   9 4010.79 2276.77   3
   3 -14 -10 7517.45 2104.09   1
 -14  11 -10 5857.97 1881.35   2
 -14  11 -10 8903.34 2330.90   1
   3 -14 -10 7145.02 2207.79   2
  11   3 -10 7391.42 2306.40   2
   3 -14  -7 9472.91 2119.62   1
  11   3  -7 6760.38 2200.74   2
   3 -14  -7 7039.57 1985.69   2
  11   3  -7 1033.14 2505.72   1
 -14  11  -7 2505.55 1510.62   2
 -14  11  -7 1868.74 1918.51   1
   3 -14  -4 34240.0 2591.78   1
   3 -14  -4 20860.4 1590.36   2
  11   3  -4 30385.2 2483.82   2
 -14  11  -4 24179.4 1680.85   1
 -14  11  -1 30202.7 1997.25   3
  11   3  -1 32127.4 2013.01   2
  11   3  -1 34581.5 1430.92   3
 -14  11   2 43729.1 2332.86   3
  11   3   2 41258.9 1975.48   3
 -14  11   5 30683.6 2708.43   3
  11   4  -8 14413.8 2414.66   2
   4 -15  -8 10372.6 2135.81   2
 -15  11  -8 10664.5 2253.06   1
 -15  11  -8 7401.44 1795.36   2
   4 -15  -5 9999.79 1919.76   2
 -15  11  -5 14991.6 2219.18   1
  11   4  -5 16853.2 2679.92   2
   4 -15  -5 17555.8 2631.16   1
  11   4  -2 45255.1 1953.44   3
  11   4  -2 59156.4 3512.40   2
  11   4   1 20684.5 1583.74   3
  11   4   4 29878.0 2348.67   3
 -15  11   4 26937.1 2725.83   3
 -15  11   7 14294.7 2244.58   3
  11   5  -9 6608.43 2538.98   2
   5 -16  -9 7746.04 2193.11   1
  11   5  -6 6683.60 2239.16   2
   5 -16  -6 3443.50 1493.43   2
 -16  11  -6 3804.90 1731.85   1
   5 -16  -6 8418.10 2644.63   1
  11   5  -3 28547.7 1553.77   3
   5 -16  -3 26957.6 1841.71   1
  11   5   0-2087.95 1367.45   3
  11   5   0-2189.25 3046.73   2
 -16  11   3 8872.39 2198.62   3
  11   5   3 14846.0 2104.45   3
 -17  11  -7 27783.5 2341.98   1
  11   6  -7 27728.8 2933.33   2
   6 -17  -7 29848.8 2756.72   1
 -17  11  -4 17805.1 1951.73   1
  11   6  -4 14286.0 1504.40   3
  11   6  -4 17518.5 3668.90   2
   6 -17  -4 16665.3 2232.91   1
  11   6  -1 25664.3 1590.59   3
  11   6  -1 32479.6 3721.45   2
  11   6   2 8232.82 1724.17   3
  11   6   5 7378.14 2424.28   3
  11   7  -5 2733.52 3335.89   2
  11   7  -5 1563.14 1285.42   3
   7 -18  -5 2614.51 2134.14   1
 -18  11  -5 2416.86 1822.96   1
  11   7  -2 36265.7 1729.73   3
  11   7  -2 31189.1 2787.51   2
  11   7   1 11052.1 1946.18   3
  11   7   4 14608.6 2764.65   3
  11   8  -9 3694.08 2965.58   2
 -19  11  -9 2963.10 2205.06   2
 -19  11  -9 2259.51 2273.23   1
   8 -19  -9 2223.03 2265.59   1
  11   8  -6 2441.54 2912.80   2
   8 -19  -6 16.0656 2581.31   1
 -19  11  -6 854.055 1839.49   1
  11   8  -3 12050.9 1314.09   3
   8 -19  -3 6882.94 1215.28   1
  11   8  -3 6650.01 3014.11   2
  11   8   0 1062.13 1739.22   3
  11   8   3 11788.0 2051.29   3
 -20  11  -7 9888.41 2113.70   1
  11   9  -7 8695.19 1746.39   3
   9 -20  -4 2798.81 1409.83   1
  11   9  -4 6.82966 1157.04   3
 -20  11  -4 2625.94 1691.54   1
  11   9  -4 3646.62 2864.74   2
  11   9  -1 14640.6 1566.67   3
  11   9  -1 18949.7 3586.99   2
  11   9   2 10491.5 2260.03   3
  11   9   5 14268.7 2480.77   3
  10 -21  -8 9778.99 2919.04   1
  11  10  -8 7377.00 1872.73   3
 -21  11  -8 7043.52 2352.35   1
  10 -21  -5 1029.52 1829.56   1
 -21  11  -5-440.322 1864.38   1
  11  10  -5 2770.14 3162.05   2
  11  10  -2 2736.90 1142.98   3
  11  10  -2 3507.52 3713.04   2
  11  10   1 560.196 1906.38   3
  11  10   4 10160.6 2212.55   3
 -22  11  -6-322.038 2004.70   1
  11  11  -6 1192.29 1453.31   3
  11  11  -3 1908.88 1139.36   3
  11  11  -3-520.023 2878.24   2
  11  11   0-295.040 1677.99   3
  11  11   3 5723.62 2128.64   3
 -23  11  -7 7299.98 2031.45   1
  11  12  -7 7790.66 1618.58   3
  11  12  -4 61.1928 1230.58   3
  11  12  -1 4847.27 1511.45   3
  11  12   2 5021.32 2114.09   3
  11  12   5 9867.17 2744.26   3
  12 -22  -5 10058.8 1966.91   1
  10  12  -5 8620.22 1407.35   3
  10  12  -2 5036.63 1351.75   3
  10  12   1 8162.88 1845.44   3
  10  12   4 3099.69 2251.31   3
  12 -21  -6 11301.1 2325.21   1
   9  12  -6 6357.81 1487.66   3
 -21   9  -6 12355.2 2135.21   1
   9  12  -3 1383.50 1069.36   3
   9  12   0 7695.93 1652.91   3
   9  12   3 6648.44 2143.18   3
   9  12   6 2396.51 3059.04   3
 -20   8  -7 12002.2 2068.60   1
   8  12  -7 10235.8 1850.71   3
  12 -20  -4-147.009 1511.57   1
   8  12  -4 1792.01 1275.21   3
 -20   8  -4 1500.80 1749.92   1
   8  12  -1 12437.0 1706.78   3
   8  12   2 1817.97 2108.58   3
   8  12   5 7976.53 2572.52   3
   7  12  -8 2749.01 1843.23   3
 -19   7  -8-227.447 2032.22   1
  12 -19  -5 4238.35 1849.96   1
 -19   7  -5 1404.30 1929.86   1
   7  12  -5 3148.31 1319.27   3
  12 -19  -2-630.793 1781.34   1
   7  12  -2-1410.73 1404.55   3
   7  12  -2 1797.52 2672.42   2
   7  12   1 12548.7 1950.89   3
   7  12   4 1799.58 2032.21   3
  12 -18  -9 1220.56 1880.46   2
  12 -18  -9 6476.20 2411.49   1
 -18   6  -9 221.930 2034.33   1
   6  12  -9 3278.85 1887.97   3
 -18   6  -6 15135.0 1952.75   1
   6  12  -6 14085.0 1774.81   3
  12 -18  -6 17469.4 2149.68   1
  12 -18  -3 1113.10 1786.17   1
   6  12  -3 4300.63 1335.91   3
   6  12   0 8762.55 1659.71   3
   6  12   3 6482.81 2419.46   3
   6  12   6 20151.4 3010.83   3
   5  12  -7 12123.4 1927.67   3
  12 -17  -7 17585.0 2345.01   1
  12 -17  -7 12192.1 1866.20   2
  12 -17  -4 4527.15 1894.42   1
 -17   5  -4 4672.21 1909.22   1
   5  12  -4 3786.38 1595.30   3
  12 -17  -1 15724.5 2543.41   1
   5  12  -1 18866.1 1725.51   3
   5  12   2 8540.55 2025.40   3
   5  12   5 16896.4 3157.29   3
   5  12   8 10891.0 3588.38   3
  12 -16  -8 7163.09 1873.23   2
   4  12  -8 1854.55 1759.09   3
 -16   4  -8 3834.43 1916.48   1
   4  12  -5 20397.2 1833.79   3
 -16   4  -5 15259.4 1856.86   1
  12 -16  -5 18266.5 2282.70   1
  12 -16  -5 13282.3 1546.31   2
   4  12  -2 1166.23 1400.48   3
  12 -16  -2 1746.84 1925.44   1
   4  12   1 28340.7 1980.33   3
   4  12   4 4468.14 2511.30   3
   4  12   7 7084.82 3034.10   3
 -15   3  -9 465.741 1795.81   1
 -15   3  -9-846.173 2061.12   2
 -15   3  -6 19366.6 1812.57   1
   3  12  -6 20937.4 1861.59   3
  12 -15  -6 22898.1 2206.61   1
  12 -15  -3 307.366 2005.38   1
 -15   3  -3 2547.55 1573.78   1
   3  12  -3 3161.31 1361.39   3
   3  12   0 37241.7 1923.55   3
   3  12   3 3831.08 2186.14   3
   3  12   6 19797.9 3016.04   3
 -14   2 -10 6108.62 1910.76   1
  12 -14 -10 7439.60 2049.07   2
  12 -14 -10 9021.68 2166.90   1
 -14   2 -10 5454.87 2155.53   2
 -14   2  -7 12331.5 1826.24   1
   2  12  -7 13461.7 1925.95   3
  12 -14  -7 14389.8 2104.81   1
  12 -14  -7 15010.4 1804.07   2
   2  12  -4 26253.7 1961.07   3
 -14   2  -4 29120.5 1973.77   1
  12 -14  -4 22915.4 2394.75   1
  12 -14  -4 20050.2 1611.07   2
   2  12  -1 37424.2 1880.42   3
  12 -14  -1 32979.8 2723.01   1
  12 -14  -1 33904.4 2142.09   2
   2  12   2 14795.9 1994.26   3
   2  12   5 71593.6 3835.29   3
   2  12   8 7638.38 2549.48   3
  12 -13  -8 4007.98 1779.11   2
   1  12  -8 1394.27 1763.53   3
  12 -13  -5 36013.1 2599.14   1
   1  12  -5 32400.3 1986.54   3
 -13   1  -5 35712.1 1919.96   1
   1  12  -2 2370.46 1431.45   3
  12 -13  -2 1580.08 2424.24   1
   1  12  -2 2239.08 1096.19   2
   1  12   1 126776. 4143.89   3
   1  12   4 21123.1 2855.99   3
   1  12   7 48288.7 3114.66   3
   1  12  10 6104.09 3410.19   3
 -12   0  -9 4790.91 1841.88   1
  12 -12  -9 6619.38 2217.80   1
 -12   0  -9 1742.60 2032.71   2
   0  12  -6 22200.7 1952.44   3
 -12   0  -6 18212.8 1960.16   1
  12 -12  -6 25145.1 2373.56   1
  12 -12  -6 22238.6 2016.28   2
   0  12  -3 1851.89 1437.78   2
  12 -12  -3-364.468 1183.87   2
  12 -12  -3-1226.78 1975.82   1
   0  12  -3-1206.06 1399.72   3
 -12   0  -3 467.641 1271.85   1
   0  12   0 39280.3 1913.17   3
  12 -12   0 45518.8 2891.02   2
   0  12   3 328.053 2098.67   3
   0  12   6 16128.2 3056.47   3
   0  12   9 4144.99 2982.93   3
 -11  -1 -10 25044.5 2432.41   2
 -11  -1 -10 18669.5 2139.05   1
  12 -11 -10 23472.7 2455.71   1
  12 -11 -10 20778.4 2211.21   2
 -11  -1  -7 34899.6 2180.86   1
  -1  12  -7 29866.8 2096.19   3
 -11  -1  -7 37962.3 2426.86   2
  12 -11  -7 33391.8 2413.04   1
  12 -11  -7 36697.7 2295.55   2
  -1  12  -4 47955.8 2227.68   3
 -11  -1  -4 45917.6 1971.29   1
  12 -11  -4 47298.4 2686.54   1
  12 -11  -4 41137.7 2090.13   2
  12 -11  -1 50572.6 2764.20   1
  12 -11  -1 50151.6 2332.18   2
  -1  12   2 31359.3 2068.63   3
  -1  12   5 106843. 4338.59   3
  -1  12   8 23006.8 2670.64   3
 -10  -2  -8 4758.97 1780.14   1
  12 -10  -8 5716.01 1983.81   1
  12 -10  -8 2935.10 1778.97   2
 -10  -2  -8 3221.50 1864.69   2
 -10  -2  -5 21100.1 1843.48   1
  12 -10  -5 26197.1 2423.61   1
  12 -10  -5 21991.3 1795.46   2
  -2  12  -2 27664.0 1550.72   3
  12 -10  -2 31338.2 2343.84   1
  -2  12   1 148987. 4891.52   3
  -2  12   4 56141.5 3007.19   3
  -2  12   7 11285.6 2402.01   3
  -2  12  10 9896.89 3150.34   3
  -3  12  -6 9922.65 1598.08   3
  12  -9  -6 12791.6 2300.33   1
  -9  -3  -6 8652.49 1869.84   1
  12  -9  -6 9972.63 2055.42   2
  -3  12  -3 25033.9 1578.04   3
  -9  -3  -3 27437.4 1458.28   1
  12  -9  -3 30323.5 2366.85   1
  -3  12  -3 30265.8 1440.96   2
  12  -9  -3 28363.3 1827.53   2
  12  -9   0 4905.75 1490.44   2
  -3  12   0 5746.04 1745.98   3
  -3  12   3 40356.8 2499.02   3
  -3  12   6 27614.8 2427.59   3
  -3  12   9 6572.40 2834.33   3
  -8  -4 -10 29430.0 2549.30   1
  12  -8 -10 32713.8 2745.02   1
  12  -8 -10 32876.8 2433.91   2
  -8  -4  -7 42717.7 2605.66   2
  12  -8  -7 49214.6 2866.34   1
  12  -8  -7 45037.7 2628.63   2
  -8  -4  -7 49968.7 2615.74   1
  -8  -4  -4 44967.9 2112.41   1
  12  -8  -4 45775.2 2718.78   1
  12  -8  -4 47204.0 2175.10   2
  -4  12  -4 41949.2 2002.54   2
  -4  12   2 166518. 5464.50   3
  -4  12   5 61023.7 2995.48   3
  -4  12   8 24872.8 2706.82   3
  -4  12  11 23252.2 3831.79   3
  -7  -5 -11 16634.2 2355.28   2
  -7  -5 -11 14390.5 2328.27   1
  12  -7 -11 15023.9 2392.74   1
  12  -7 -11 13635.0 2051.52   2
  -7  -5  -8 11420.0 2009.30   2
  -7  -5  -8 11532.3 2070.54   1
  12  -7  -8 13034.2 2176.84   1
  12  -7  -8 12759.9 1944.69   2
  -7  -5  -5 73932.7 2968.71   1
  -5  12  -5 71520.9 2669.94   2
  12  -7  -5 70297.0 3438.79   1
  12  -7  -5 78155.0 3154.08   2
  12  -7  -2 21306.8 2066.89   1
  12  -7  -2 20273.7 1624.80   2
  -5  12   1 110573. 3976.57   3
  -5  12   4 38797.3 2478.25   3
  -5  12   7 16757.7 2596.06   3
  -5  12  10 7777.99 3000.75   3
  12  -6  -6 11913.1 2707.01   1
  -6  -6  -6 10665.0 1995.14   2
  -6  12  -6 10131.7 1811.99   2
  12  -6  -6 10902.4 2089.80   2
  -6  -6  -6 14427.0 2281.89   1
  -6  -6  -3 36065.7 1808.92   1
  -6  12  -3 35640.0 1711.94   3
  -6  12  -3 37988.5 1447.97   1
  12  -6  -3 40881.3 2390.62   1
  12  -6  -3 38693.9 1962.65   2
  -6  12  -3 34168.3 1550.76   2
  -6  -6   0 8961.56 692.213   1
  -6  12   3 36077.0 2291.91   3
  -6  12   6 11003.2 2335.55   3
  12  -5 -10 6716.47 1961.64   2
  12  -5 -10 8382.24 2469.63   1
  -5  -7 -10 7219.63 2248.99   2
  12  -5  -7 8567.03 2036.85   2
  -5  -7  -7 6856.99 2558.50   1
  12  -5  -7 11213.2 2563.48   1
  -5  -7  -7 6649.73 2165.08   2
  -7  12  -4 26517.6 1419.97   2
  -7  12  -4 21201.5 1390.73   3
  -7  12  -4 21063.5 1356.95   1
  12  -5  -4 24102.0 2766.25   1
  12  -5  -4 29352.9 1936.07   2
  -5  -7  -4 28017.9 1769.92   1
  -5  -7  -1 89169.2 2790.50   1
  12  -5  -1 84493.7 3130.54   2
  -7  12   2 15958.3 1902.66   3
  12  -5   2 8146.26 801.970   3
  -7  12   5 82734.3 3529.80   3
  -7  12   8 9982.17 2639.60   3
  -7  12  11 15013.5 3019.93   3
  -4  -8 -11 20724.5 2416.13   2
  -4  -8 -11 19543.0 2492.10   1
  -4  -8  -8 19025.3 2132.52   2
  -4  -8  -8 19302.2 2490.67   1
  12  -4  -8 18218.5 2571.57   1
  12  -4  -8 14564.2 1944.06   2
  -4  -8  -5 43407.5 2334.83   2
  -4  -8  -5 48309.9 2398.98   1
  12  -4  -5 45482.9 3003.50   1
  12  -4  -5 51620.1 2507.71   2
  -4  -8  -2 148684. 4272.91   1
  12  -4  -2 141988. 4441.05   2
  -4  -8   1 84711.9 2679.35   1
  12  -4   1 107719. 3711.30   2
  -8  12   4 47948.9 2641.83   3
  -8  12   7 47414.1 3334.82   3
  -8  12  10 27951.8 3089.70   3
  12  -3  -9 4051.91 2361.86   1
  -9  12  -6 33203.7 2098.22   1
  -9  12  -6 32777.0 1916.21   2
  -3  -9  -6 38797.9 2648.49   1
  -3  -9  -6 35402.0 2378.26   2
  12  -3  -6 31178.2 3014.28   1
  12  -3  -6 40796.6 2486.83   2
  -9  12  -3 19180.5 1462.40   3
  12  -3  -3 22732.8 2347.50   1
  12  -3  -3 23909.2 1719.41   2
  -3  -9  -3 24856.9 1408.52   1
  -9  12   0 11307.3 1500.54   3
  12  -3   0 9141.87 1561.73   2
  -3  -9   0 9195.74 869.020   1
  12  -3   3 16442.0 1256.63   3
  -9  12   3 20875.7 2156.45   3
  -9  12   6 7058.64 2486.15   3
  12  -2 -10 4799.34 2035.21   2
  -2 -10 -10 6296.20 2357.14   1
  -2 -10 -10 5629.82 2211.22   2
 -10  12  -7 13209.6 1857.24   2
  12  -2  -7 7697.20 2538.41   1
  -2 -10  -7 13202.4 1991.35   2
 -10  12  -7 8440.67 1664.61   1
  -2 -10  -7 13297.1 2420.08   1
  12  -2  -7 12342.0 2146.38   2
 -10  12  -4 33266.3 1542.54   2
  -2 -10  -4 26264.6 2008.32   1
  12  -2  -4 45543.4 2816.71   1
  -2 -10  -4 34784.7 1758.74   2
  12  -2  -4 46212.8 2173.60   2
 -10  12  -1 90927.0 3282.32   3
  -2 -10  -1 101056. 3075.50   1
  12  -2  -1 100227. 3536.55   2
 -10  12   2 37784.0 2351.74   3
  12  -2   2 37667.4 1522.04   3
 -10  12   5 21472.8 2657.11   3
 -10  12   8 4013.33 2542.33   3
  -1 -11  -8 32744.8 2408.03   2
 -11  12  -8 22339.1 1862.42   2
  -1 -11  -8 32127.4 2596.61   1
  12  -1  -8 18102.2 2749.71   1
  12  -1  -8 27766.3 2359.38   2
 -11  12  -8 23746.4 2129.19   1
  -1 -11  -5 63453.5 2494.67   2
 -11  12  -5 50049.9 2539.37   2
 -11  12  -5 66691.4 2506.84   1
  -1 -11  -5 48920.9 2703.40   1
  12  -1  -5 51828.3 3188.99   1
  12  -1  -5 58856.8 2908.80   2
 -11  12  -2 19995.5 1508.75   3
  -1 -11  -2 15365.8 1908.54   1
  12  -1   1 53251.6 1977.14   3
 -11  12   4 21270.8 2787.28   3
 -11  12   7 34060.7 2847.05   3
 -11  12  10 8253.85 2712.15   3
  12   0  -9-2798.02 2710.63   1
   0 -12  -9 3455.84 2189.56   1
  12   0  -9 2051.20 2194.49   2
  12   0  -6 10796.4 2652.09   1
 -12  12  -6 16387.2 1892.40   1
   0 -12  -6 18553.5 1763.30   2
   0 -12  -6 21946.0 2372.18   1
 -12  12  -6 11821.3 1541.74   2
  12   0  -6 17916.8 2471.18   2
  12   0  -3 1167.57 1911.54   2
   0 -12  -3 85.3035 1517.08   1
 -12  12   0 27021.6 1911.36   3
   0 -12   0 28984.8 1370.74   1
 -12  12   3-1082.33 2144.83   3
  12   0   3 16.2563 1204.49   3
 -12  12   6 14070.6 2797.92   3
 -12  12   9-617.391 2393.18   3
   1 -13 -10 3664.39 1933.15   1
  12   1 -10 191.672 2067.14   2
   1 -13 -10 1078.06 2418.32   2
 -13  12  -7 36851.5 2304.21   1
 -13  12  -7 33531.6 2064.80   2
   1 -13  -7 52884.3 2605.74   1
   1 -13  -7 47578.8 2445.04   2
  12   1  -7 36280.1 3028.17   1
  12   1  -7 56747.1 2956.98   2
 -13  12  -4 7076.18 1234.69   1
  12   1  -4 9288.71 2276.62   2
   1 -13  -4 7612.05 2025.51   1
   1 -13  -4 7505.58 1474.21   2
  12   1  -1 110171. 3459.45   3
  12   1  -1 112795. 3966.01   2
 -13  12   2 725.076 1871.92   3
 -13  12   5 17432.9 2815.19   3
  12   2  -8 9994.95 2395.24   2
 -14  12  -8 9024.53 1638.66   2
   2 -14  -8 9426.08 2169.84   2
 -14  12  -8 9029.62 2116.46   1
   2 -14  -5 47453.6 2670.20   1
 -14  12  -5 54247.8 2668.92   1
  12   2  -5 37654.7 3478.70   1
   2 -14  -5 35930.5 2140.79   2
  12   2  -5 52616.8 2856.68   2
   2 -14  -2 11312.3 1039.17   2
  12   2  -2 15023.0 2509.76   2
  12   2   1 37910.7 1718.42   3
 -14  12   4 13678.9 2702.26   3
 -14  12   7 8597.31 2293.40   3
   3 -15  -9 2269.73 2109.57   1
 -15  12  -9 1049.42 1868.93   2
  12   3  -9 1595.53 2359.83   2
  12   3  -6 9330.97 2951.24   1
   3 -15  -6 17467.6 2527.10   1
  12   3  -6 13333.4 2376.29   2
 -15  12  -6 12151.2 1715.15   1
   3 -15  -6 9783.29 1740.01   2
  12   3  -3 3408.14 2238.17   2
   3 -15  -3 3128.58 2033.01   1
  12   3   0 38363.0 1799.99   3
  12   3   0 48537.4 3648.21   2
 -15  12   3 3076.57 2203.68   3
  12   3   3 5745.03 1554.71   3
 -15  12   6 14193.0 2418.54   3
   4 -16  -7 10645.9 2349.40   1
  12   4  -7 9335.00 2252.55   2
 -16  12  -7 9206.29 1988.31   1
   4 -16  -7 8014.15 1737.09   2
 -16  12  -7 6541.82 1632.36   2
  12   4  -4 3126.21 2456.26   2
 -16  12  -4 2680.73 1548.27   1
  12   4  -1 30132.8 1556.96   3
  12   4  -1 25577.7 2826.57   2
 -16  12   2 550.760 2098.16   3
  12   4   2 2788.84 1533.59   3
 -16  12   5 15030.1 2675.53   3
 -17  12  -8 1520.12 1877.14   2
  12   5  -5 15927.1 2794.14   2
 -17  12  -5 11223.3 1810.55   1
   5 -17  -5 13484.5 2539.43   1
  12   5  -2 2806.00 1283.61   3
  12   5  -2 3748.07 2620.61   2
  12   5   1 15677.0 1808.93   3
 -17  12   4 219.540 2382.75   3
  12   5   4 6686.02 2552.36   3
  12   6  -9 1846.14 2587.41   2
 -18  12  -9-960.564 2015.63   2
 -18  12  -9-796.200 2284.98   1
   6 -18  -9 2899.64 2107.22   1
  12   6  -6 13188.1 2687.63   2
 -18  12  -6 13740.6 2014.34   1
   6 -18  -3 1120.61 1466.76   1
  12   6  -3 393.889 1325.90   3
  12   6  -3 111.604 3653.56   2
  12   6   0 4538.56 1490.59   3
  12   6   3 4852.42 1917.37   3
  12   7  -7 10149.7 2984.56   2
   7 -19  -7 8506.98 2617.45   1
   7 -19  -4 2639.14 1849.13   1
  12   7  -4 3410.14 1250.51   3
  12   7  -4 5689.42 3114.86   2
  12   7  -1 14267.7 1539.99   3
  12   7  -1 18952.8 4292.14   2
  12   7   2 779.398 1963.06   3
  12   8  -8 2499.75 3163.60   2
 -20  12  -8 41.2829 2305.62   1
 -20  12  -8 2390.46 2606.49   2
  12   8  -8 619.510 1761.20   3
   8 -20  -8-259.295 2781.47   1
  12   8  -5 10951.9 1483.90   3
   8 -20  -5 11371.7 2504.89   1
 -20  12  -5 13836.6 1937.22   1
  12   8  -5 15629.0 3020.21   2
  12   8  -2 641.231 1232.51   3
  12   8  -2 2105.19 3892.84   2
  12   8   1 13805.4 2222.18   3
  12   8   4 843.730 1882.99   3
  12   9  -6 6915.23 3201.56   2
   9 -21  -6 7246.12 3010.15   1
  12   9  -6 4425.42 1583.38   3
  12   9  -3 3967.17 1137.01   3
  12   9  -3 3914.85 2324.56   2
  12   9   0 4969.39 1722.60   3
  12   9   3 4523.35 2033.26   3
 -22  12  -7 6718.62 2027.24   1
  12  10  -7 5640.52 1746.92   3
  12  10  -4 8680.63 3169.31   2
  12  10  -1 11707.0 1537.10   3
  12  10   2 11136.8 2404.51   3
 -23  12  -5 8391.42 1971.85   1
  12  11  -5 8529.24 1357.28   3
  12  11  -2 2475.13 1275.45   3
  12  11  -2 4938.53 3303.07   2
  12  11   1 3336.56 2020.47   3
  12  11   4 3806.96 2484.36   3
 -24  12  -6 117.072 2064.81   1
  12  12  -6 1241.96 1391.81   3
  12  12  -3 379.319 1118.44   3
  12  12   0 1707.83 1672.74   3
  12  12   3 1322.86 2455.18   3
 -25  12  -4 1345.19 1713.48   1
  12  13  -4 1279.80 1099.95   3
 -24  11  -5 3919.78 2041.15   1
  11  13  -5 3370.44 1361.98   3
  11  13   1 7406.66 1969.76   3
 -23  10  -6 3040.24 1944.53   1
  10  13  -6 1493.51 1457.86   3
  10  13   0-45.8632 1607.64   3
  10  13   3 3928.47 2184.97   3
  13 -22  -7 14082.3 2753.44   1
 -22   9  -7 10079.6 1994.52   1
   9  13  -7 8079.92 1608.13   3
   9  13  -1 10647.9 1578.97   3
   9  13   2 7229.25 2217.90   3
   9  13   5 17108.0 2713.91   3
 -21   8  -8 5923.75 2223.01   1
   8  13  -8 7626.84 1826.92   3
  13 -21  -5 3751.42 2050.85   1
   8  13  -2 16515.8 1567.21   3
   8  13   1 5796.62 1850.70   3
   8  13   4 5496.50 2086.59   3
  13 -20  -6 10337.3 2371.56   1
  13 -20  -3 6963.20 1656.45   1
   7  13  -3 12365.2 1364.02   3
   7  13   0 6779.18 1822.22   3
   7  13   3 13985.4 2162.58   3
   7  13   6 8085.76 2900.57   3
 -19   6  -7 1794.56 1921.22   1
 -19   6  -4 5384.90 1766.70   1
  13 -19  -4 2946.76 1832.63   1
   6  13  -4 6466.87 1508.17   3
  13 -19  -1 13466.8 2889.60   1
   6  13  -1 16862.7 1886.78   3
   6  13   2 4245.04 2085.69   3
   6  13   5 15097.3 2846.44   3
   5  13  -8 5918.58 1839.37   3
 -18   5  -8 4627.50 1949.48   1
  13 -18  -5 3271.92 1923.21   1
   5  13  -5 2120.64 1529.98   3
 -18   5  -5 1480.09 1807.10   1
  13 -18  -2 5879.45 2191.68   1
   5  13  -2 7432.98 1660.66   3
   5  13   1 4188.17 1809.75   3
   5  13   4 7961.36 2354.85   3
   5  13   7-571.296 3281.28   3
   4  13  -9 15391.7 2079.13   3
 -17   4  -9 13159.8 2077.83   1
 -17   4  -9 13054.5 2278.47   2
  13 -17  -9 20101.8 2337.38   1
  13 -17  -9 15455.4 1990.60   2
  13 -17  -6 951.481 1355.69   2
  13 -17  -6 4472.70 2078.30   1
 -17   4  -6 1081.18 1591.83   1
   4  13  -6 375.182 1587.92   3
  13 -17  -3 15133.0 2588.01   1
   4  13  -3 17567.4 1750.59   3
   4  13   0 9268.41 1568.19   3
   4  13   3 24080.4 2537.97   3
   4  13   6 16085.7 2928.10   3
   3  13  -7 12361.2 1848.26   3
  13 -16  -7 15844.7 2299.97   1
  13 -16  -7 10228.2 1751.90   2
  13 -16  -4 14668.9 2550.29   1
   3  13  -4 17919.1 1806.47   3
 -16   3  -4 19457.6 2049.65   1
  13 -16  -1-1870.19 2703.80   1
   3  13  -1-1034.71 1482.61   3
   3  13   2 28618.6 2281.39   3
   3  13   5 5204.07 2901.04   3
   3  13   8 10518.3 3031.54   3
  13 -15  -8 4975.97 1743.23   2
 -15   2  -8 4298.46 1849.12   1
   2  13  -8 5192.58 1965.26   3
  13 -15  -5 3483.96 1417.43   2
  13 -15  -5 6184.98 2188.15   1
   2  13  -5 6000.57 1881.46   3
 -15   2  -5 3788.40 1611.49   1
   2  13  -2 19931.4 1853.64   3
  13 -15  -2 19576.5 2566.33   1
   2  13   1 54149.2 2464.57   3
   2  13   4 4696.09 2888.62   3
   2  13   7 10805.6 2914.71   3
 -14   1  -9 17555.1 2263.40   2
  13 -14  -9 20368.1 2313.83   1
  13 -14  -9 15641.6 2003.10   2
 -14   1  -9 19077.5 1964.12   1
 -14   1  -6 2362.78 1739.17   1
  13 -14  -6 4914.96 1501.62   2
   1  13  -6 5023.70 1809.16   3
   1  13  -3 49929.5 2278.48   3
 -14   1  -3 52185.5 2144.15   1
   1  13   0 15984.9 1638.89   3
  13 -14   0 22073.9 4287.36   2
   1  13   3 64909.0 3187.39   3
   1  13   6 14985.7 2914.87   3
 -13   0 -10 18906.4 2359.42   2
 -13   0 -10 18672.9 2006.66   1
  13 -13 -10 19211.4 2311.60   1
  13 -13 -10 20034.0 2126.87   2
  13 -13  -7 2338.08 1794.97   2
  13 -13  -7 4559.74 1923.13   1
   0  13  -7 1233.18 1827.28   3
 -13   0  -7 598.421 1623.74   1
   0  13  -4 106657. 3404.10   3
 -13   0  -4 99742.7 3320.89   1
  13 -13  -4 102969. 3945.18   1
  13 -13  -1-158.665 2713.42   1
   0  13  -1 2213.65 1329.85   3
   0  13   2 77608.1 3165.24   3
   0  13   5 6379.81 2774.97   3
   0  13   8 57293.6 3270.82   3
  13 -12  -8 3306.44 1872.85   2
  -1  13  -8 1411.56 1738.57   3
 -12  -1  -5 33998.1 2031.87   1
  -1  13  -5 32382.2 2185.32   3
  13 -12  -5 32899.1 2644.21   1
  13 -12  -5 28365.3 2015.44   2
  13 -12  -2 1455.69 2262.39   1
  -1  13  -2 2343.05 1449.79   3
 -12  -1  -2 3030.29 1054.39   1
  -1  13   1 135497. 4504.81   3
  -1  13   4 12404.1 2648.78   3
  -1  13   7 42700.9 2671.50   3
  -1  13  10 1230.53 3078.35   3
 -11  -2  -9 11220.4 2156.42   2
  13 -11  -9 13538.0 2194.99   1
 -11  -2  -9 11797.5 1908.48   1
  13 -11  -6 6123.76 1837.99   2
  13 -11  -6 6896.09 2411.43   1
  -2  13  -6 8566.18 1847.02   3
 -11  -2  -6 3729.67 1977.22   1
  -2  13  -3 32002.7 1882.57   3
 -11  -2  -3 29299.3 1620.69   1
  13 -11  -3 31467.2 2604.16   1
  13 -11  -3 29682.4 1856.71   2
  -2  13   0 2069.13 1522.21   3
  -2  13   3 54758.6 3079.94   3
  -2  13   6 3255.60 2648.17   3
 -10  -3 -10 26118.3 2437.30   2
 -10  -3 -10 20894.6 2330.75   1
  13 -10 -10 26841.3 2501.75   1
  13 -10 -10 26627.8 2330.37   2
  13 -10  -7 4720.83 1805.42   2
 -10  -3  -7 4935.03 1737.01   1
  13 -10  -7 8870.21 2188.03   1
  -3  13  -7 3907.75 1555.35   3
 -10  -3  -7 2718.00 1909.07   2
  -3  13  -4 82610.6 3180.32   3
 -10  -3  -4 91919.2 3164.50   1
  13 -10  -4 87889.1 3292.95   2
  -3  13  -1 30856.1 1700.16   3
  -3  13   2 127419. 4538.69   3
  -3  13   5 34855.8 2863.39   3
  -3  13   8 44756.6 3127.93   3
  -9  -4  -8 8561.92 1955.59   2
  13  -9  -8 13307.7 2305.87   1
  13  -9  -8 11279.5 2080.08   2
  -9  -4  -8 10987.3 1907.66   1
  -4  13  -5 31873.7 1888.59   3
  13  -9  -5 35690.2 2767.94   1
  13  -9  -5 39767.4 2356.32   2
  -9  -4  -5 43995.4 2303.60   1
  13  -9  -2 11462.4 2225.39   1
  -4  13  -2 8705.56 1191.44   3
  -9  -4  -2 10068.8 1033.76   1
  13  -9  -2 12879.6 1631.29   2
  -4  13   1 208712. 6502.32   3
  -4  13   4 20976.9 2457.68   3
  -4  13   7 21624.8 2579.32   3
  -4  13  10 4323.30 2780.03   3
  -8  -5  -9 8613.14 2180.98   1
  13  -8  -6 1301.67 2027.50   2
  13  -8  -6 1281.40 2544.70   1
  -8  -5  -6 2349.94 1996.91   1
  -5  13  -6 1457.13 1741.79   3
  -8  -5  -6-988.653 1841.38   2
  -8  -5  -3 13432.2 1592.75   1
  13  -8  -3 16353.4 2241.02   1
  13  -8  -3 12205.1 1600.60   2
  -5  13   0 11840.4 1681.61   3
  -5  13   3 37662.8 2451.94   3
  -5  13   6 2690.73 2311.91   3
  -7  -6 -10 13965.8 2160.53   2
  13  -7 -10 13832.1 2484.70   1
  -7  -6 -10 15789.3 2558.02   1
  13  -7 -10 12211.3 2067.50   2
  -7  -6  -7 17411.8 2118.53   2
  13  -7  -7 22102.2 2640.50   1
  -7  -6  -7 21400.9 2183.60   1
  13  -7  -7 21849.6 2145.36   2
  -7  -6  -4 51082.5 2387.28   1
  13  -7  -4 46571.8 2977.73   1
  13  -7  -4 50884.6 2495.35   2
  -7  -6  -1 14640.1 1075.27   1
  13  -7  -1 19590.0 1824.43   2
  -6  13   2 106215. 3937.01   3
  -6  13   5 23708.6 2248.26   3
  -6  13   8 30842.1 2989.68   3
  -6  -7  -8 21610.9 2164.41   2
  -6  -7  -8 20474.7 2525.89   1
  13  -6  -8 18849.0 2676.55   1
  13  -6  -8 17073.1 2079.22   2
  13  -6  -5 29946.7 2827.80   1
  13  -6  -5 35661.5 2387.05   2
  -6  -7  -5 33844.1 2224.58   1
  13  -6  -2 68783.8 2725.19   2
  -7  13   1 24070.7 1990.93   3
  13  -6   1 20385.7 2597.58   2
  -7  13   4 37695.0 2275.85   3
  -7  13   7 19120.1 2508.71   3
  -7  13  10 11743.4 3025.07   3
  13  -5  -9 1979.91 1888.61   2
  -5  -8  -6 1375.85 2108.01   1
  13  -5  -6 2255.70 1992.37   2
  13  -5  -6-509.823 2845.41   1
  -5  -8  -6 2658.67 1772.32   2
  13  -5  -3 29465.7 2686.12   1
  13  -5  -3 28984.2 1889.90   2
  -5  -8  -3 27217.1 1597.04   1
  -5  -8   0 17583.3 1048.55   1
  13  -5   0 15325.1 1680.95   2
  -8  13   3 7039.85 2006.94   3
  -8  13   6 7160.80 2448.18   3
  13  -4 -10 4296.87 1883.87   2
  13  -4 -10 6701.43 2538.76   1
  -4  -9 -10 5745.49 2215.55   1
  -4  -9 -10 8438.66 2424.34   2
  -4  -9  -7 16266.7 2485.51   1
  13  -4  -7 12271.2 2934.02   1
  -4  -9  -7 15831.5 2045.12   2
  13  -4  -7 13258.6 2048.53   2
  -9  13  -4 15676.7 1372.19   2
  -9  13  -4 16983.7 1344.94   1
  13  -4  -4 22095.7 2765.43   1
  13  -4  -4 17223.9 1838.90   2
  -4  -9  -4 20114.7 1600.51   1
  -4  -9  -1 151335. 4669.10   1
  -9  13  -1 157389. 4914.21   3
  13  -4  -1 159992. 5037.88   2
  13  -4   2 8181.05 964.168   3
  -9  13   2 8562.05 1898.99   3
  -9  13   5 44806.4 2860.64   3
  -9  13   8 5389.51 2389.15   3
  -3 -10  -8 38911.5 2481.55   2
  -3 -10  -8 39788.2 2728.47   1
  13  -3  -8 30746.5 3016.84   1
  13  -3  -8 37816.5 2577.99   2
 -10  13  -5 14244.3 1415.67   1
  -3 -10  -5 13857.3 1594.57   2
  -3 -10  -5 14195.0 2035.15   1
  13  -3  -5 16563.6 2704.20   1
 -10  13  -2 79016.3 3041.06   3
  13  -3  -2 98793.1 3262.77   2
 -10  13   1 22632.0 2073.31   3
  13  -3   1 21475.8 1121.86   3
  13  -3   1 26518.4 2434.46   2
 -10  13   4 93524.9 3841.26   3
 -10  13   7 1969.80 2328.67   3
 -10  13  10 26881.2 2919.53   3
  13  -2  -9 17498.5 3188.09   1
  13  -2  -9 21113.8 2332.62   2
  13  -2  -6-4708.75 2954.67   1
  -2 -11  -6 2910.76 1728.98   2
  -2 -11  -6 1045.37 2054.48   1
 -11  13  -6-537.454 1544.25   1
  13  -2  -6 1158.06 2358.85   2
  -2 -11  -3 39540.7 2047.72   1
  13  -2  -3 58965.5 2474.42   2
  13  -2   0 1114.33 1684.91   2
  -2 -11   0 1882.88 995.617   1
 -11  13   3 40719.1 2684.28   3
 -11  13   6 1880.68 2590.73   3
 -11  13   9 9558.37 2509.40   3
  13  -1 -10 2871.18 2046.42   2
  -1 -12 -10 5198.87 2105.08   1
  -1 -12 -10 4057.50 2194.89   2
 -12  13  -7 39581.3 2458.75   1
  -1 -12  -7 49827.2 2421.67   2
  -1 -12  -7 52565.0 2803.73   1
  13  -1  -7 42209.4 3107.30   1
  13  -1  -7 54517.0 2777.71   2
  13  -1  -4 11186.9 2706.63   1
  -1 -12  -4 11049.2 1429.41   2
  -1 -12  -4 10337.7 1745.33   1
 -12  13  -4 9297.01 1243.38   1
 -12  13  -1 87280.2 2945.04   3
  13  -1  -1 104545. 3339.66   2
 -12  13   2 3386.48 1963.84   3
  13  -1   2 1675.49 1383.62   3
 -12  13   5 22685.8 2961.69   3
   0 -13  -8 67538.5 3100.19   2
   0 -13  -8 78437.2 3328.04   1
  13   0  -5 2487.40 3345.77   1
  13   0  -5 6603.16 2238.24   2
   0 -13  -5 477.569 1964.86   1
   0 -13  -5 2907.93 1553.71   2
 -13  13  -5 1770.31 1470.89   1
   0 -13  -2 52348.0 2007.08   2
  13   0  -2 72128.3 2942.49   2
 -13  13   1 3100.69 1698.55   3
 -13  13   4 102741. 4310.09   3
 -13  13   7 930.295 2309.91   3
 -13  13  10 8750.38 2427.11   3
  13   1  -9 12581.7 2329.31   2
   1 -14  -9 17357.9 2217.44   1
  13   1  -6 6863.00 2881.38   1
  13   1  -6 11856.1 2165.67   2
   1 -14  -6 9443.90 1651.30   2
   1 -14  -6 11296.2 2084.34   1
 -14  13  -6 8376.17 1613.83   1
 -14  13  -6 8630.75 1601.21   2
   1 -14  -3 51366.7 2881.47   1
  13   1  -3 43245.4 2789.91   2
  13   1   0 16897.9 1277.91   3
  13   1   0 19738.4 3069.78   2
 -14  13   3 21353.1 2515.02   3
 -14  13   6 8293.09 2477.69   3
 -14  13   9 6199.33 2406.44   3
   2 -15 -10 8057.98 2288.90   1
   2 -15 -10 9937.25 2203.85   2
 -15  13  -7 3022.72 1836.22   1
  13   2  -7 2205.38 2854.32   1
  13   2  -7 4344.13 2253.23   2
   2 -15  -7 8471.84 1934.91   1
   2 -15  -7 4736.31 1660.49   2
 -15  13  -7 2431.63 1361.79   2
   2 -15  -4 12921.1 1469.57   2
 -15  13  -4 10680.8 1498.28   1
  13   2  -1 40543.7 1816.07   3
  13   2  -1 38452.5 2528.15   2
 -15  13   2 13311.5 2117.20   3
  13   2   2 11283.9 1583.25   3
 -15  13   5 7997.24 2913.65   3
 -15  13   8 1088.61 2331.72   3
   3 -16  -8 9779.04 2090.05   2
 -16  13  -8 7369.82 2317.26   1
   3 -16  -5 5327.88 2581.58   1
  13   3  -5 5172.42 2441.41   2
 -16  13  -5 1023.58 1653.79   1
  13   3  -2 24287.6 1476.00   3
  13   3  -2 28166.7 2829.21   2
 -16  13   1-423.674 1864.85   3
  13   3   1 572.890 1405.63   3
 -16  13   4 8899.68 2521.67   3
 -16  13   7 7229.14 2392.83   3
 -17  13  -9 15748.4 2535.74   1
  13   4  -9 12998.0 2572.11   2
   4 -17  -9 19950.5 2455.35   1
  13   4  -6 7888.23 2545.21   2
 -17  13  -6 7232.73 1808.02   1
   4 -17  -6 10962.7 2900.08   1
  13   4  -3 22862.8 1654.48   3
  13   4  -3 21278.9 3077.14   2
   4 -17  -3 24720.4 2258.41   1
  13   4   0 8862.05 1510.67   3
  13   4   0 5021.72 3618.36   2
 -17  13   3 10592.2 2412.42   3
  13   4   3 14025.9 1894.19   3
 -17  13   6-2042.00 2233.49   3
  13   5  -7-1542.29 2577.91   2
 -18  13  -7 3325.26 1997.36   1
 -18  13  -7 2734.94 1867.20   2
   5 -18  -7 1897.56 2484.52   1
  13   5  -4 14454.2 1522.67   3
   5 -18  -4 15058.4 2456.55   1
  13   5  -4 12789.6 2882.34   2
  13   5  -1 2423.93 1300.67   3
  13   5  -1-909.883 3515.68   2
 -18  13   2 7915.10 2284.37   3
  13   5   2 12838.0 2051.83   3
 -18  13   5 1998.50 2208.86   3
 -19  13  -8 2332.52 2340.57   1
  13   6  -8 5234.73 2943.74   2
   6 -19  -8 7994.75 2396.88   1
  13   6  -5 14300.5 2910.66   2
 -19  13  -5 11036.0 1813.04   1
  13   6  -5 10222.5 1506.69   3
   6 -19  -5 10502.8 2525.04   1
  13   6  -2 2605.72 1239.94   3
  13   6  -2 1234.92 2758.80   2
  13   6   1 18927.9 2264.43   3
  13   6   4 5784.16 1903.84   3
  13   7  -6 4622.92 3283.84   2
 -20  13  -6 1292.15 2046.65   1
  13   7  -6 1071.35 1472.17   3
   7 -20  -6 2380.03 3026.29   1
  13   7  -3 5612.24 1238.34   3
  13   7  -3 8308.72 3049.52   2
  13   7   0 5927.01 1716.65   3
  13   7   3 7228.35 1859.47   3
 -21  13  -7 2257.11 1917.89   1
  13   8  -7-406.908 1632.39   3
  13   8  -4 6667.35 1377.17   3
  13   8  -4 7461.31 3584.28   2
  13   8  -1 2421.50 1278.88   3
  13   8  -1 3040.39 3671.95   2
  13   8   2 24689.4 2308.40   3
  13   9  -5 13366.2 1553.50   3
  13   9  -5 16478.4 3952.45   2
  13   9  -2 6096.64 1249.25   3
  13   9  -2 8491.76 3546.32   2
  13   9   1 12640.4 2003.79   3
  13   9   4 6743.12 2207.31   3
 -23  13  -6-620.388 2068.33   1
  13  10  -6 587.059 1485.77   3
  13  10  -3 1891.32 2934.30   2
  13  10   0 1016.37 1832.62   3
  13  10   3 4816.58 2268.69   3
  13  11  -4 4711.04 1336.67   3
  13  11   2 13394.3 2450.87   3
 -25  13  -5 1362.52 1786.52   1
  13  12  -5 1687.21 1362.42   3
  13  12  -2 1616.23 1336.26   3
  13  13  -3-390.227 1215.18   3
  13  13   0 174.346 1803.34   3
  13  13   3 1870.65 2408.05   3
 -27  13  -4 960.461 1605.15   1
  13  14  -1 1184.33 1496.60   3
  13  14   2 5880.82 2386.90   3
 -26  12  -5 3813.32 1849.71   1
  12  14  -5 2621.11 1185.11   3
  12  14  -2 4662.17 1437.35   3
  12  14   1 7804.75 2074.06   3
  12  14   4 3288.11 2564.91   3
  11  14  -3 671.477 1270.06   3
 -24  10  -4 6270.05 1850.96   1
  10  14  -4 3694.35 1276.16   3
  14 -23  -5 1235.87 2082.97   1
   9  14  -5 4494.40 1367.37   3
 -23   9  -5 6351.33 2117.14   1
   9  14   1 15844.8 2006.81   3
   9  14   4 2885.06 2248.49   3
   8  14  -6 2187.28 1546.43   3
 -22   8  -6 2435.79 1971.67   1
   8  14  -3 7313.55 1370.43   3
   8  14   0-712.536 1506.49   3
   8  14   3 3667.75 2207.49   3
 -21   7  -7 185.440 1971.97   1
  14 -21  -7 4050.13 2569.66   1
   7  14  -7 1845.32 1621.13   3
 -21   7  -4 4418.81 1788.54   1
   7  14  -4 2865.89 1284.04   3
  14 -21  -4 518.499 1677.04   1
   7  14  -1-612.878 1518.47   3
   7  14   2 8858.18 1962.24   3
   7  14   5 1813.52 2711.12   3
   6  14  -8 3335.74 1614.39   3
 -20   6  -8-772.556 2067.87   1
  14 -20  -5 8161.43 2069.56   1
   6  14  -5 8732.13 1598.09   3
  14 -20  -2 366.467 2028.32   1
   6  14  -2 1290.05 1500.85   3
   6  14   1 20471.1 2015.31   3
   6  14   4 735.921 2079.39   3
  14 -19  -6 5781.99 2246.36   1
   5  14  -6 5225.67 1771.46   3
  14 -19  -3 2952.12 1805.04   1
   5  14  -3 6755.49 1518.73   3
   5  14   0 9123.62 1779.20   3
   5  14   3 12172.3 2463.65   3
   5  14   6 6413.42 2908.20   3
 -18   4  -7 4845.37 2006.57   1
 -18   4  -4 1981.84 1892.90   1
  14 -18  -4-2441.95 1969.50   1
   4  14  -4-1286.08 1518.40   3
   4  14  -1 3532.56 1571.43   3
   4  14   2 7549.14 2097.16   3
   4  14   5 3551.94 2987.25   3
  14 -17  -8 7003.62 2248.70   1
 -17   3  -8 2952.54 1800.33   1
  14 -17  -5-534.592 2029.36   1
   3  14  -5 683.554 1756.20   3
 -17   3  -5 2539.71 1638.19   1
  14 -17  -5 2706.20 1225.59   2
   3  14  -2 41170.2 2352.56   3
  14 -17  -2 36183.0 2964.68   1
   3  14   1 2334.41 1728.73   3
   3  14   4 6200.56 2808.85   3
   3  14   7 951.343 3105.78   3
  14 -16  -9 6339.73 1893.21   2
  14 -16  -9 11941.2 2175.11   1
 -16   2  -9 8054.05 1820.04   1
 -16   2  -9 5946.43 2051.41   2
 -16   2  -6 16632.6 1764.34   1
   2  14  -6 19834.5 1948.19   3
  14 -16  -6 22176.1 2439.14   1
  14 -16  -6 17715.7 1656.94   2
   2  14  -3 61916.1 2707.99   3
  14 -16  -3 47926.3 3113.31   1
  14 -16  -3 42366.7 2378.51   2
 -16   2  -3 72158.6 2661.85   1
   2  14   0 14238.7 1697.46   3
   2  14   3 18234.5 2372.79   3
   2  14   6 8448.03 2798.75   3
   2  14   9 26185.1 3396.40   3
   1  14  -7 15608.3 2048.44   3
  14 -15  -7 12614.1 2377.18   1
  14 -15  -7 11926.9 1851.26   2
 -15   1  -7 7843.52 1747.10   1
  14 -15  -4 4176.57 1436.00   2
  14 -15  -4 1461.00 2427.72   1
 -15   1  -4 7112.65 1811.81   1
   1  14  -4 5512.27 1823.85   3
   1  14  -1 9173.53 1680.97   3
   1  14   2 16885.1 2176.98   3
   1  14   5 25391.9 3089.52   3
 -14   0  -8 12132.3 1822.45   1
   0  14  -8 16100.2 1901.90   3
 -14   0  -8 15592.7 2196.62   2
  14 -14  -8 16974.1 2332.43   1
  14 -14  -8 16382.1 2161.61   2
  14 -14  -5-887.797 1531.60   2
  14 -14  -5-2016.78 2437.55   1
 -14   0  -5-704.739 1518.94   1
   0  14  -5 2956.75 2098.47   3
  14 -14  -2 13337.4 2881.04   1
   0  14  -2 12022.4 1847.85   3
  14 -14  -2 11009.9 1668.75   2
   0  14   1 745.413 1723.51   3
   0  14   4 54991.4 3551.58   3
   0  14   7 665.645 2516.18   3
   0  14  10 7019.59 3531.61   3
  14 -13  -9 10914.6 2007.87   2
 -13  -1  -9 12184.9 2106.25   2
  14 -13  -9 14982.1 2248.21   1
 -13  -1  -9 15191.5 1926.76   1
  14 -13  -6 10019.6 2275.97   1
  -1  14  -6 9931.05 1896.14   3
 -13  -1  -6 10217.4 1801.51   1
  14 -13  -6 8886.06 1691.82   2
  -1  14  -3 36420.8 2207.49   3
  14 -13  -3 34079.3 3067.51   1
 -13  -1  -3 31261.7 1786.87   1
  -1  14   0 25404.9 1949.04   3
  -1  14   3 45499.7 2991.85   3
  -1  14   6 15300.9 2912.27   3
 -12  -2 -10 2112.49 1817.64   1
  14 -12 -10 3050.32 1933.04   2
  14 -12 -10 6505.59 2114.91   1
 -12  -2 -10 3970.64 2071.53   2
 -12  -2  -7 13066.7 1844.18   1
  -2  14  -7 21048.2 2126.44   3
  14 -12  -7 16600.2 2250.49   1
  14 -12  -7 17500.2 1862.28   2
  -2  14  -4 20522.3 2046.00   3
 -12  -2  -4 19194.3 1603.15   1
  14 -12  -4 18528.5 2765.97   1
  14 -12  -4 14956.6 1717.06   2
  -2  14  -1 42699.1 2075.31   3
  -2  14   2 18530.5 2143.71   3
  -2  14   5 54941.7 3530.12   3
  -2  14   8 20112.6 2793.12   3
  14 -11  -8 2533.16 1885.28   2
 -11  -3  -5 36766.4 2160.75   1
  -3  14  -5 34286.7 2156.57   3
  14 -11  -5 30783.0 2842.64   1
  14 -11  -5 28825.3 2136.31   2
  -3  14  -2 43574.7 2070.22   3
  14 -11  -2 40570.6 2221.30   2
 -11  -3  -2 45140.2 1867.20   1
  -3  14   1 48495.7 2654.08   3
  -3  14   4 28258.1 2799.17   3
  -3  14   7 6211.04 2189.41   3
  -3  14  10 7501.52 3036.75   3
  14 -10  -9-401.904 1967.21   2
 -10  -4  -9 1186.51 1842.54   1
  14 -10  -9 3255.19 2391.52   1
 -10  -4  -9 1321.75 1966.46   2
  14 -10  -6 5913.72 2067.92   2
  14 -10  -6 1044.71 2496.63   1
 -10  -4  -6 5065.63 1902.79   1
  -4  14  -6 2636.94 1801.67   3
  -4  14  -3 10791.2 1427.00   3
 -10  -4  -3 14800.2 1299.04   1
  14 -10  -3 17673.0 2546.11   1
  14 -10  -3 16711.0 1849.83   2
  -4  14   0 2495.77 1722.53   3
  14 -10   0 668.554 1798.18   2
  -4  14   3 1268.16 2337.26   3
  -4  14   6 9307.04 2247.21   3
  -9  -5 -10 13565.6 2219.44   2
  -9  -5 -10 13267.4 2283.79   1
  14  -9 -10 14266.0 2434.15   1
  14  -9 -10 12683.1 2141.50   2
  -9  -5  -7 17849.9 2133.35   2
  14  -9  -7 20130.6 2423.45   1
  14  -9  -7 23373.2 2019.46   2
  -9  -5  -7 25904.2 2233.40   1
  -9  -5  -4 12783.8 1755.31   1
  -5  14  -4 13975.8 1652.38   3
  14  -9  -4 20724.2 2651.65   1
  14  -9  -4 23599.0 2007.26   2
  -5  14  -1 25556.1 1689.52   3
  14  -9  -1 28658.2 2121.86   2
  -5  14   2 40270.4 2730.41   3
  -5  14   5 54331.1 3065.69   3
  -5  14   8 24616.3 2648.46   3
  14  -8  -8 11231.2 2467.60   1
  -8  -6  -8 10178.3 1941.54   2
  -8  -6  -8 13345.2 2114.87   1
  14  -8  -8 12511.0 2024.75   2
  -8  -6  -5 17611.6 2061.17   1
  -6  14  -5 17717.5 1741.11   3
  14  -8  -5 15979.5 2842.41   1
  14  -8  -5 18572.3 2141.05   2
  -6  14  -2 21121.7 1484.02   3
  -8  -6  -2 17713.2 1237.95   1
  14  -8  -2 17250.1 2301.82   1
  14  -8  -2 20726.8 1856.02   2
  -6  14   1 32723.3 2523.70   3
  14  -8   1 29752.9 3064.85   2
  -6  14   4 40747.2 2827.93   3
  -6  14   7 15761.7 2462.06   3
  -6  14  10 10727.1 2707.76   3
  -7  -7  -9 256.753 2147.64   1
  14  -7  -9-98.2414 1866.00   2
  -7  -7  -9 1657.36 1996.26   2
  -7  -7  -6 12158.8 1948.06   2
  14  -7  -6 14651.2 2273.98   2
  -7  -7  -6 17155.7 2221.68   1
  14  -7  -3-848.139 2444.54   1
  14  -7  -3 2617.04 1728.74   2
  -7  -7  -3-279.345 1458.70   1
  -7  14   0 18684.4 1841.20   3
  14  -7   0 19386.8 1781.80   2
  -7  -7   0 16536.8 1034.15   1
  -7  14   3 670.046 2362.77   3
  -7  14   6 16912.3 2579.56   3
  -7  14   9-2938.93 2635.15   3
  -6  -8 -10 16904.0 2204.39   2
  -6  -8 -10 17689.2 2489.23   1
  14  -6 -10 16088.6 2698.87   1
  14  -6 -10 16326.8 2077.03   2
  -6  -8  -7 7892.61 2134.84   1
  14  -6  -7 8561.48 1916.42   2
  14  -6  -7 6428.90 2535.63   1
  -6  -8  -7 8437.31 1768.99   2
  14  -6  -4 40667.8 3069.82   1
  14  -6  -4 36412.8 2319.10   2
  -6  -8  -4 39353.7 2201.14   1
  14  -6  -1 20748.8 2112.70   2
  -8  14   2 34149.1 2653.11   3
  -8  14   5 28937.2 2532.78   3
  -8  14   8 13268.7 2574.52   3
  14  -5  -8 10378.5 2649.05   1
  -5  -9  -8 15808.5 2609.01   1
  -5  -9  -8 11670.3 2145.64   2
  14  -5  -8 11746.4 2094.96   2
  -5  -9  -5 46915.4 2392.84   2
  14  -5  -5 49829.6 3638.66   1
  14  -5  -5 55611.2 2764.55   2
  -5  -9  -5 51896.5 2612.21   1
  14  -5  -2 23839.3 2031.90   2
  -9  14   1 41965.9 2458.81   3
  -5  -9   1 34648.2 1499.24   1
  14  -5   1 42640.9 2905.12   2
  -9  14   4 27906.5 2379.27   3
  -9  14   7 17594.7 2570.15   3
  -9  14  10 4962.48 2637.09   3
  14  -4  -9 9747.76 2174.55   2
  -4 -10  -9 11585.0 2280.21   1
  -4 -10  -6 9588.08 2209.52   1
  14  -4  -6 7341.03 3023.91   1
  14  -4  -6 9624.44 2183.24   2
  -4 -10  -6 9137.81 1853.24   2
  14  -4  -3 2105.61 1746.90   2
  -4 -10  -3 3041.26 1137.19   1
 -10  14  -3 2285.46 1302.24   3
  -4 -10   0 36.6236 956.808   1
  14  -4   0-960.764 1730.00   2
 -10  14   3 20648.0 2239.28   3
 -10  14   6 2254.95 2549.64   3
 -10  14   9 550.635 2547.60   3
  14  -3 -10 7557.35 2098.07   2
  14  -3 -10 3540.16 2731.11   1
  -3 -11 -10 8997.52 2373.98   1
  -3 -11 -10 9854.14 2157.92   2
  14  -3  -7 2431.58 1959.28   2
  14  -3  -7-491.397 2952.71   1
  -3 -11  -7 4636.17 1748.32   2
  -3 -11  -7 1326.70 2005.77   1
  -3 -11  -4 16998.8 1540.03   2
  -3 -11  -4 15246.2 1797.86   1
  14  -3  -4 20089.0 2984.21   1
 -11  14  -4 19633.4 1564.31   1
  14  -3  -4 17910.1 2109.22   2
  14  -3  -1 20070.5 1968.55   2
  -3 -11  -1 22104.2 1276.76   1
 -11  14   2 45087.1 2479.90   3
  14  -3   2 35929.3 1577.75   3
 -11  14   5 30509.5 2885.55   3
  -2 -12  -8 12562.1 2029.03   2
  -2 -12  -8 10750.0 2485.89   1
  -2 -12  -5 49907.8 2327.12   2
 -12  14  -5 41443.0 2148.85   1
  -2 -12  -5 46211.8 2665.86   1
  14  -2  -5 62306.4 4012.03   1
  14  -2  -5 62958.2 2880.19   2
 -12  14  -2 7193.82 1674.81   3
  14  -2  -2 9435.21 1944.33   2
 -12  14   1 30190.2 1977.98   3
 -12  14   4 24144.3 2924.27   3
 -12  14   7 8611.92 2321.81   3
 -12  14  10 3352.44 2472.44   3
  14  -1  -9 8373.21 2145.41   2
  -1 -13  -9 13408.1 2270.61   1
  14  -1  -6 12128.3 2948.72   1
 -13  14  -6 13218.9 1674.23   1
  -1 -13  -6 10530.1 2078.23   1
  -1 -13  -6 8916.83 1599.19   2
  14  -1  -6 14288.6 2226.83   2
  -1 -13  -3 39811.6 1853.32   2
  -1 -13  -3 43793.4 2313.06   1
  14  -1   0 10881.0 1120.70   3
  14  -1   0 12604.6 2426.14   2
 -13  14   3 46231.9 3175.59   3
 -13  14   6 2450.68 2541.19   3
 -13  14   9 10506.7 2436.05   3
  14   0 -10 825.747 2147.45   2
   0 -14 -10 4416.02 2376.11   2
   0 -14 -10 5516.92 2139.45   1
  14   0  -7 632.173 2484.48   1
  14   0  -7-2302.56 2159.89   2
   0 -14  -7 3699.11 2050.85   1
   0 -14  -7 978.741 1714.05   2
 -14  14  -7-2901.88 1830.32   1
   0 -14  -4 38817.7 2486.07   1
   0 -14  -4 28483.9 2032.09   2
  14   0  -4 38641.4 2611.62   2
 -14  14  -4 28992.9 1755.01   1
 -14  14  -1 2006.93 1563.24   3
  14   0  -1 822.588 1559.63   2
 -14  14   2 11183.7 2235.00   3
 -14  14   5-3909.67 2720.88   3
 -14  14   8 8039.55 2478.92   3
   1 -15  -5 14736.0 2148.05   1
   1 -15  -5 10027.4 1445.98   2
 -15  14  -5 12472.3 1748.90   1
  14   1  -5 16812.1 2738.93   2
  14   1  -2 12760.9 2545.14   2
 -15  14   1 5458.84 2045.79   3
  14   1   1 5489.04 1353.80   3
 -15  14   4 5052.15 2654.78   3
 -15  14   7 3441.22 2462.89   3
   2 -16  -9 20856.1 2475.44   1
  14   2  -9 17266.8 2565.14   2
  14   2  -6 4454.03 3290.53   1
  14   2  -6 7717.83 2315.93   2
 -16  14  -6 7711.66 1571.23   1
  14   2  -3 15039.5 2682.61   2
   2 -16  -3 17704.7 2736.54   1
  14   2   0 10161.4 1302.53   3
  14   2   0 8956.58 3175.34   2
 -16  14   3 51868.1 3183.21   3
  14   2   3 39565.0 2198.33   3
 -16  14   6 11261.6 2455.14   3
 -16  14   9 7155.36 2362.94   3
   3 -17  -7 5945.70 2345.48   1
 -17  14  -7 4703.00 1948.25   1
  14   3  -4 5861.94 2636.48   2
   3 -17  -4 4456.52 2821.30   1
  14   3  -1 5463.96 1295.26   3
  14   3  -1 10263.3 2956.18   2
 -17  14   2 33508.1 2616.54   3
  14   3   2 42784.6 2480.62   3
 -17  14   5 1834.65 2453.40   3
 -17  14   8 2694.19 2274.90   3
  14   4  -8 14680.0 2632.85   2
   4 -18  -8 16708.0 2565.35   1
  14   4  -5 5945.56 2566.61   2
   4 -18  -5 9742.38 2799.09   1
 -18  14  -5 7106.63 2209.61   1
  14   4  -2 6508.50 1486.95   3
  14   4  -2 8390.80 2854.64   2
 -18  14   1 406.022 2213.93   3
  14   4   1 4701.48 1853.19   3
 -18  14   4 377.623 2351.67   3
 -19  14  -6 5045.98 1948.90   1
  14   5  -6 7532.59 2939.36   2
   5 -19  -6 8345.44 3086.60   1
  14   5  -3 5150.64 1303.27   3
  14   5  -3 3240.36 3153.36   2
  14   5   0 7640.18 1567.31   3
 -19  14   3 2037.45 2228.40   3
  14   5   3 6045.84 1897.13   3
  14   6  -4 755.643 1264.85   3
  14   6  -4 2241.93 3178.30   2
  14   6  -1 30379.7 1844.82   3
  14   6  -1 41614.9 4442.26   2
  14   6   2 985.460 1877.51   3
  14   7  -8 2764.36 3375.32   2
 -21  14  -8-232.140 2372.52   1
  14   7  -8 1397.05 1848.81   3
   7 -21  -8 5471.33 2987.11   1
 -21  14  -5-176.090 1731.51   1
  14   7  -5-2881.34 3358.58   2
  14   7  -2 9579.71 1304.80   3
  14   7  -2 10389.9 3372.85   2
  14   7   1 11.4569 2055.85   3
 -22  14  -6 2757.99 2145.47   1
  14   8  -6 261.526 1515.11   3
  14   8  -3 2515.88 1214.99   3
  14   8  -3-4274.86 2751.97   2
  14   8   0-76.2567 1671.21   3
  14   8   3 6470.19 2152.25   3
 -23  14  -7 6290.23 2074.32   1
  14   9  -7 6644.86 1792.15   3
  14   9  -4 1838.47 1248.85   3
  14   9  -4-1922.64 3119.60   2
  14   9  -1 14964.4 1577.49   3
  14   9   2 2437.47 2242.51   3
  14  10  -5 1424.13 1273.45   3
 -24  14  -5 886.904 1755.46   1
  14  10  -2 4508.29 3812.63   2
  14  10   1-1552.31 2213.92   3
  14  11  -3 350.870 1107.77   3
  14  12  -4 2407.08 1141.61   3
  14  12  -1 7375.34 1644.81   3
  14  13  -2 2634.86 1475.47   3
  14  13   1 4119.58 2239.96   3
  14  13   4 4259.23 2651.23   3
  14  14   0-245.596 1690.49   3
  13  15  -2 2084.52 1386.75   3
  13  15   1 6014.84 2130.25   3
  12  15  -3 512.896 1289.98   3
  12  15   0 2456.20 1644.11   3
  12  15   3 815.759 2483.88   3
 -26  11  -4 3165.88 1674.29   1
  11  15  -4 1301.50 1284.11   3
  11  15  -1 4918.45 1503.94   3
  11  15   2 1086.07 2148.20   3
  10  15  -5 1330.88 1297.72   3
 -25  10  -5 2031.43 2005.36   1
  10  15  -2 8381.64 1511.03   3
  10  15   4 10867.7 2645.20   3
 -24   9  -6 1407.27 2018.46   1
  15 -24  -6 981.070 2503.41   1
   9  15  -6 1954.60 1437.73   3
   9  15  -3 396.314 1332.14   3
   9  15   6 6954.82 3174.52   3
  15 -23  -7 690.162 2694.60   1
 -23   8  -7 2315.38 1969.91   1
   8  15  -7 1913.30 1734.12   3
 -23   8  -4-254.918 1795.36   1
   8  15  -4-864.618 1331.85   3
   8  15  -1 5434.55 1463.82   3
   8  15   2 999.112 1988.86   3
  15 -22  -5-3790.55 2274.49   1
 -22   7  -5 1469.84 2170.98   1
   7  15  -5-316.540 1394.98   3
   7  15  -2 5768.46 1536.00   3
   7  15   1 3349.70 1758.48   3
   7  15   4 3600.77 2304.25   3
   7  15   7 2608.51 3311.84   3
   6  15  -6 7308.04 1732.05   3
 -21   6  -6 5764.95 1990.75   1
  15 -21  -3 1046.67 1855.69   1
   6  15  -3 1412.60 1508.45   3
   6  15   0 22497.1 1842.62   3
   6  15   3 1757.10 2046.71   3
 -20   5  -7 3108.76 1885.12   1
  15 -20  -7 5782.32 2545.95   1
   5  15  -7 7554.21 1808.32   3
  15 -20  -4-11.6300 1759.24   1
 -20   5  -4 962.633 1904.11   1
   5  15  -4-1418.42 1516.28   3
   5  15  -1 3888.63 1563.10   3
   5  15   2 9207.52 1988.25   3
   5  15   5 6930.56 2770.62   3
   5  15   8 6192.96 3571.12   3
  15 -19  -8 3431.72 2370.26   1
   4  15  -8 1069.69 1735.12   3
 -19   4  -8-3195.68 1951.83   1
 -19   4  -5 286.455 1855.16   1
  15 -19  -5-167.295 2083.50   1
   4  15  -5 2048.77 1548.69   3
  15 -19  -2 1983.66 2546.62   1
   4  15  -2 3654.14 1804.08   3
   4  15   1 12102.6 1904.14   3
   4  15   4 137.611 2274.12   3
   3  15  -6 47585.4 2541.49   3
  15 -18  -6 38863.2 2865.56   1
  15 -18  -3 346.506 2195.09   1
 -18   3  -3 4432.26 1926.12   1
   3  15  -3 2947.91 1831.76   3
   3  15   0 24978.2 1953.08   3
   3  15   3 4962.88 2182.93   3
   3  15   6 26953.0 3202.29   3
  15 -17  -7 9470.20 1805.24   2
   2  15  -7 9241.96 2131.49   3
  15 -17  -4 3401.00 2407.15   1
 -17   2  -4 7712.10 1992.95   1
   2  15  -4 4891.32 1827.18   3
   2  15  -1 24248.4 1943.96   3
   2  15   2 2602.33 2035.34   3
   2  15   5 21033.8 2888.86   3
  15 -16  -8 1869.11 2176.59   1
   1  15  -8 2402.66 1780.35   3
 -16   1  -8-1171.41 1676.67   1
  15 -16  -5 10844.9 2340.86   1
   1  15  -5 15492.3 1849.69   3
 -16   1  -5 18679.5 1742.66   1
  15 -16  -5 8873.65 1447.00   2
  15 -16  -2 13883.1 3152.18   1
   1  15  -2 13264.9 2072.28   3
   1  15   1 7415.15 1771.45   3
   1  15   4 526.911 3051.07   3
   1  15   7 14027.7 3263.55   3
  15 -15  -9 704.427 1843.89   2
 -15   0  -9 2775.60 1714.17   1
  15 -15  -9 7013.96 2265.95   1
 -15   0  -9 1825.52 1934.27   2
 -15   0  -6 22073.1 1997.87   1
   0  15  -6 26715.1 2322.55   3
  15 -15  -6 19506.0 2595.57   1
  15 -15  -6 24869.4 2000.95   2
 -15   0  -3 3074.25 1603.53   1
  15 -15  -3 4029.75 1422.04   2
  15 -15  -3 3747.53 2816.20   1
   0  15  -3-437.766 2042.04   3
   0  15   0 63967.3 2729.38   3
   0  15   3 1239.49 2377.77   3
   0  15   6 15827.9 2905.05   3
   0  15   9 5835.97 2894.69   3
  15 -14  -7 7764.41 1748.05   2
  15 -14  -7 9525.04 2281.66   1
  -1  15  -7 8574.38 1944.24   3
 -14  -1  -7 8847.16 1784.33   1
  15 -14  -4 7609.39 1742.48   2
  15 -14  -4 9985.10 2714.17   1
  -1  15  -4 8230.66 2150.13   3
 -14  -1  -4 7852.94 1563.14   1
  -1  15  -1 8015.89 1800.83   3
  15 -14  -1 10072.0 2947.16   2
  -1  15   2 12369.7 2070.35   3
  -1  15   5 19910.4 3190.36   3
  15 -13  -8 8750.37 2378.83   1
 -13  -2  -8 7169.31 1766.71   1
 -13  -2  -8 7985.84 1966.44   2
  15 -13  -5 3926.37 1811.67   2
 -13  -2  -5 3351.73 1682.81   1
  15 -13  -5 1195.60 2484.01   1
  -2  15  -5 3199.31 1969.63   3
  -2  15  -2 19743.7 1866.40   3
  15 -13  -2 19433.0 3020.67   1
  15 -13  -2 15468.5 2000.07   2
 -13  -2  -2 12986.7 1287.37   1
  -2  15   1 50648.1 2672.83   3
  -2  15   4 24979.3 3035.38   3
  -2  15   7 5872.32 2358.75   3
  -2  15  10 6564.30 3053.02   3
  15 -12  -9-842.576 1941.33   2
  15 -12  -9 761.541 2335.84   1
 -12  -3  -6 16479.1 1864.10   1
  15 -12  -6 12684.4 2489.11   1
  -3  15  -6 16684.8 1846.29   3
  15 -12  -6 18253.9 1907.14   2
  15 -12  -3 2165.88 1586.60   2
  15 -12  -3 5715.44 3066.04   1
  -3  15  -3 5086.51 1778.26   3
 -12  -3  -3 3790.02 1256.10   1
  -3  15   0 40157.8 2334.05   3
  15 -12   0 40858.1 3232.96   2
  -3  15   3 125.601 2530.97   3
  -3  15   6 16238.1 2839.30   3
  -3  15   9 2834.79 2643.61   3
 -11  -4 -10 5852.01 2011.86   1
  15 -11 -10 9961.94 1996.19   2
  15 -11 -10 10514.4 2483.19   1
 -11  -4 -10 7754.06 2068.84   2
 -11  -4  -7 19127.5 2025.25   1
 -11  -4  -7 17395.5 1924.58   2
  15 -11  -7 15597.0 2428.85   1
  15 -11  -7 17457.8 1991.29   2
  -4  15  -4 33009.6 2208.32   3
 -11  -4  -4 37827.7 2197.70   1
  15 -11  -4 35334.5 3023.05   1
  15 -11  -4 32801.0 2177.91   2
  -4  15  -1 23152.4 1756.01   3
  15 -11  -1 20162.0 2444.95   2
 -11  -4  -1 16771.5 1102.99   1
  -4  15   2 64386.4 3406.28   3
  -4  15   5 16803.5 2842.68   3
 -10  -5  -5 20847.5 2091.34   1
  -5  15  -5 26083.5 2298.54   3
  15 -10  -5 22971.7 2932.24   1
  15 -10  -5 26130.6 2218.66   2
  -5  15  -2 55850.6 2477.91   3
  15 -10  -2 61589.4 3349.23   1
  15 -10  -2 56728.8 2621.26   2
  -5  15   1 33550.8 2688.62   3
  15 -10   1 32548.5 3878.37   2
  -5  15   4 50960.5 3253.68   3
  -5  15   7 19291.6 2573.95   3
  -5  15  10 9091.18 2976.96   3
  15  -9  -9 587.690 1866.96   2
  15  -9  -9 1029.17 2439.00   1
  -9  -6  -9 3491.51 2077.07   2
  -9  -6  -9-981.269 2026.94   1
  15  -9  -6-250.802 1948.81   2
  15  -9  -6-3687.67 2798.95   1
  -9  -6  -6 3107.34 1899.69   1
  15  -9  -3 2291.32 1844.04   2
  15  -9  -3 689.598 2658.44   1
  -9  -6  -3 3300.14 1437.38   1
  -6  15  -3 3629.83 1316.27   3
  -6  15   0 23308.2 2165.24   3
  15  -9   0 20141.8 2190.26   2
  -6  15   3 3738.67 2555.26   3
  -6  15   6 6900.53 2183.16   3
  -6  15   9 2987.73 2745.32   3
  15  -8 -10 8738.34 1976.80   2
  -8  -7 -10 8867.20 2007.71   2
  -8  -7 -10 10697.4 2431.38   1
  15  -8  -7 5902.68 2747.08   1
  -8  -7  -7 9269.75 1746.12   2
  15  -8  -7 11918.3 1929.79   2
  -8  -7  -7 13135.5 1978.37   1
  -8  -7  -4 42645.9 2373.28   1
  15  -8  -4 40624.6 3310.52   1
  15  -8  -4 41511.6 2466.94   2
  -7  15  -1 20853.8 1789.23   3
  15  -8  -1 23325.0 2288.89   2
  -7  15   2 51636.9 3020.98   3
  -7  15   5 13536.9 2169.21   3
  -7  -8  -8 38980.4 2499.10   2
  15  -7  -8 42243.9 3277.41   1
  15  -7  -5 13351.1 2942.61   1
  15  -7  -5 14940.8 2209.35   2
  -7  -8  -5 12622.0 2102.26   1
  -7  -8  -2 35176.2 1836.14   1
  15  -7  -2 45641.4 2521.78   2
  -8  15   1 27430.4 2739.11   3
  15  -7   1 23139.1 3054.51   2
  -8  15   4 37870.8 2605.96   3
  -8  15   7 12934.0 2321.10   3
  -8  15  10 11885.0 2723.28   3
  15  -6  -9 1814.62 2011.63   2
  15  -6  -9-1957.55 2709.44   1
  -6  -9  -9 873.478 1927.89   2
  -6  -9  -9 4602.00 2542.54   1
  15  -6  -6 7182.84 2162.27   2
  -6  -9  -6 8492.35 2092.42   1
  15  -6  -6 4786.93 2987.30   1
  -6  -9  -6 6101.04 1919.16   2
  15  -6  -3 1354.21 2640.24   1
  15  -6  -3 6032.63 2016.41   2
  -6  -9  -3 4260.99 1503.67   1
  -9  15   0 25988.8 2098.76   3
  -6  -9   0 23486.0 1327.01   1
  15  -6   0 25596.8 2198.93   2
  -9  15   3 5228.61 2380.13   3
  -9  15   6 3327.03 2327.70   3
  -9  15   9 30.3774 2379.64   3
  15  -5 -10 3647.13 2044.45   2
  15  -5 -10 466.285 2769.46   1
  -5 -10 -10 5333.66 2054.88   2
  -5 -10 -10 8377.99 2336.23   1
  15  -5  -7 12394.1 2813.25   1
  -5 -10  -7 18629.6 2163.84   2
  -5 -10  -7 19503.1 2468.43   1
  15  -5  -7 19232.6 2204.19   2
  15  -5  -4 21845.3 3221.21   1
  15  -5  -4 24278.6 2199.32   2
  -5 -10  -4 22706.2 1884.13   1
  -5 -10  -1 18916.6 1430.81   1
  15  -5  -1 19809.0 2078.54   2
 -10  15   2 46186.2 2840.79   3
 -10  15   5 28910.0 2815.45   3
  15  -4  -8 10193.9 2951.24   1
  -4 -11  -8 14425.4 2041.10   2
  -4 -11  -5 11489.7 2230.99   1
  15  -4  -5 15001.4 3362.03   1
  -4 -11  -5 7425.19 1481.15   2
  15  -4  -5 12155.4 2145.51   2
  15  -4  -2 42136.3 2498.47   2
 -11  15   1 21405.1 2111.39   3
  15  -4   1 23009.8 1335.82   3
  15  -4   1 26369.9 2840.90   2
 -11  15   4 37610.5 2907.61   3
 -11  15   7 16958.6 2582.90   3
 -11  15  10 2137.93 2417.11   3
  15  -3  -9-204.942 2025.77   2
  -3 -12  -9 3427.90 2307.63   1
  -3 -12  -9 3044.38 2308.13   2
  15  -3  -6 16438.0 3353.07   1
  -3 -12  -6 13615.5 1828.01   2
  -3 -12  -6 15304.4 2117.23   1
  15  -3  -6 13771.3 2131.88   2
  15  -3  -3 1932.77 1873.65   2
  -3 -12  -3 408.735 1534.93   1
 -12  15   0 34861.9 2386.19   3
  15  -3   0 36346.0 2626.56   2
 -12  15   3 9216.51 2402.03   3
 -12  15   6 15853.7 2596.62   3
 -12  15   9-2527.23 2391.65   3
  -2 -13 -10 9047.18 2352.60   1
  -2 -13 -10 7997.91 2236.40   2
  15  -2  -7 7400.44 2257.31   2
  15  -2  -7 5476.26 2792.88   1
  -2 -13  -7 11165.0 2101.41   1
  -2 -13  -7 7038.57 1829.57   2
  15  -2  -4 7212.83 2199.24   2
 -13  15  -4 5988.37 1743.70   1
  -2 -13  -4 6846.43 1323.64   2
  -2 -13  -4 3470.36 1783.59   1
  15  -2  -1 43286.4 2334.03   2
 -13  15   2 22371.1 2322.30   3
 -13  15   5 4984.60 2770.55   3
 -13  15   8 15.5712 2483.04   3
  15  -1  -8 12578.3 3099.47   1
  -1 -14  -8 20325.3 2234.70   2
  15  -1  -8 18902.9 2565.00   2
  15  -1  -5 12015.2 3443.42   1
  -1 -14  -5 12727.4 1631.22   2
  -1 -14  -5 9406.76 1998.18   1
 -14  15  -5 11212.5 1584.19   1
  15  -1  -5 17386.4 2516.29   2
  15  -1  -2 15718.8 2354.89   2
 -14  15   1 11033.8 2005.22   3
  15  -1   1 10346.3 1481.60   3
 -14  15   4 2443.40 2812.62   3
 -14  15   7 5825.51 2542.55   3
  15   0  -9 5574.39 2319.67   2
   0 -15  -9 9325.12 2179.32   1
   0 -15  -9 2922.63 1985.35   2
  15   0  -6 10785.4 3036.72   1
   0 -15  -6 12222.4 1515.25   2
 -15  15  -6 12846.2 1645.32   1
  15   0  -6 15093.2 2364.14   2
   0 -15  -3 1522.01 2303.96   1
  15   0  -3 34.7399 2414.65   2
 -15  15   0 63582.2 2947.03   3
  15   0   0 57749.2 2381.02   3
 -15  15   6 22024.6 2773.14   3
 -15  15   9 31.8714 2310.99   3
  15   1  -7 10484.3 3458.06   1
 -16  15  -7 9693.77 2009.10   1
   1 -16  -7 16168.0 2143.67   1
   1 -16  -7 11871.3 1697.71   2
  15   1  -4-111.137 2513.55   2
   1 -16  -4 3126.06 2303.09   1
  15   1  -1 6662.55 1472.48   3
  15   1  -1 8239.51 2277.22   2
 -16  15   2 7758.94 2216.80   3
  15   1   2 12185.7 1885.51   3
 -16  15   5 14570.0 2702.85   3
 -16  15   8-1297.97 2391.68   3
  15   2  -8 3048.14 2472.68   2
  15   2  -5 12930.4 2495.72   2
 -17  15  -5 9112.65 1625.92   1
  15   2  -2 851.253 1280.04   3
  15   2  -2 2159.88 2401.59   2
 -17  15   1 16021.9 2517.93   3
  15   2   1 17387.0 1751.57   3
 -17  15   4 2990.54 2561.41   3
 -18  15  -6 17441.7 2261.06   1
  15   3  -6 19259.4 2799.81   2
   3 -18  -6 18405.4 2783.70   1
  15   3  -3 4299.05 1390.88   3
  15   3  -3 4734.81 2906.51   2
  15   3   0 22081.0 1777.31   3
  15   3   0 24848.9 3817.36   2
 -18  15   3 935.571 2262.39   3
 -18  15   6 38576.9 2990.30   3
 -19  15  -7 5047.50 2199.11   1
   4 -19  -7 4876.39 2836.95   1
  15   4  -4-94.3838 1330.64   3
  15   4  -4-2406.37 2821.88   2
  15   4  -1 13463.9 1507.05   3
  15   4  -1 15342.0 3797.30   2
 -19  15   2 2278.92 2155.64   3
  15   4   2 3425.68 2241.29   3
 -19  15   5 797.488 2391.70   3
 -20  15  -8-1662.22 2329.42   1
  15   5  -8 1743.81 2872.34   2
   5 -20  -8 3548.65 2494.16   1
 -20  15  -5 7601.20 1858.83   1
  15   5  -5 6934.05 3030.30   2
  15   5  -2 4574.51 1295.10   3
  15   5  -2 2366.50 2641.93   2
  15   5   1 7288.00 2103.25   3
 -20  15   4-1723.18 2269.62   3
  15   6  -6 10497.1 1768.88   3
  15   6  -3 2361.00 1320.50   3
  15   6  -3 1061.56 2598.79   2
  15   6   0 23466.5 2248.97   3
  15   6   3 1359.10 1867.74   3
  15   7  -7 6279.87 3457.33   2
 -22  15  -7 5714.95 2379.61   1
  15   7  -7 4480.53 1773.14   3
  15   7  -4 2700.92 3502.11   2
  15   7  -1 2470.82 1255.14   3
  15   7  -1 954.748 3686.15   2
  15   7   2 4899.22 2072.11   3
  15   8  -5 4698.56 1545.52   3
 -23  15  -5 4717.65 1825.06   1
  15   8  -2 4702.31 1343.92   3
  15   8  -2 4596.36 4070.10   2
  15   8   1 4336.53 2104.89   3
 -24  15  -6 3938.18 2160.65   1
  15   9  -6 3979.34 1587.61   3
  15   9  -6 7343.01 4128.31   2
  15   9  -3 2790.34 1325.28   3
  15   9  -3 1186.48 3733.96   2
  15   9   0 1955.72 1915.09   3
  15   9   3 2278.89 2442.26   3
  15  10  -4 7899.91 1416.39   3
  15  10   2 10549.6 2785.68   3
  15  11  -2 114.102 1330.46   3
  15  12  -3 119.041 1223.94   3
  15  12   0 205.106 1759.06   3
  15  12   3 513.977 2580.60   3
  15  13  -1 2781.67 1627.54   3
  15  13   2 3571.62 2644.50   3
  12  16  -1 1429.08 1472.31   3
  12  16   2 498.351 2241.04   3
  11  16  -2 3844.62 1389.24   3
  11  16   1 3175.71 2034.27   3
  10  16  -3 1046.35 1344.82   3
  10  16   0 1658.71 1659.87   3
  10  16   3 3433.34 2437.60   3
 -25   9  -4 1094.42 1769.34   1
   9  16  -4 1283.32 1372.97   3
   9  16  -1 4660.64 1510.04   3
   9  16   2 452.352 2068.72   3
   9  16   5 5419.99 2535.54   3
   8  16  -5 2269.31 1505.26   3
 -24   8  -5 3726.13 2197.14   1
   8  16  -2 3754.24 1541.60   3
   8  16   4 6936.87 2214.79   3
  16 -23  -6-484.829 2419.51   1
   7  16  -6 2778.87 1489.69   3
 -23   7  -6 3562.23 2098.23   1
   7  16   0 5363.93 1711.36   3
   7  16   6 6535.97 3029.09   3
  16 -22  -7 757.601 2611.50   1
 -22   6  -7 3482.10 2008.71   1
   6  16  -7 2969.53 1750.06   3
  16 -22  -4-2696.16 1919.83   1
   6  16  -1 1875.01 1442.32   3
   6  16   2 2162.31 1839.57   3
  16 -21  -5-526.242 2176.86   1
 -21   5  -5 3997.28 2189.21   1
  16 -21  -2 4184.31 2174.66   1
   5  16  -2 6076.03 1612.86   3
   5  16   1 6217.70 1756.44   3
   5  16   4 2774.27 2342.31   3
   5  16   7 1468.09 3240.58   3
 -20   4  -6 5732.92 1876.10   1
   4  16  -3 28623.5 2111.65   3
  16 -20  -3 27544.5 2667.16   1
   4  16   0 6027.62 1644.65   3
   4  16   3 12992.2 2039.10   3
 -19   3  -7-2509.39 2007.85   1
  16 -19  -7-1511.26 2451.80   1
  16 -19  -4-1429.96 2029.02   1
   3  16  -4-916.644 1785.98   3
 -19   3  -4 692.036 2044.11   1
   3  16  -1 4833.26 1669.09   3
   3  16   2 6369.44 2039.32   3
   3  16   5 4203.37 2796.09   3
   3  16   8 635.961 3289.12   3
  16 -18  -8 1806.95 2313.71   1
   2  16  -8 2465.71 1957.14   3
 -18   2  -8 12.1102 1811.59   1
  16 -18  -5-2524.09 2228.59   1
   2  16  -5 905.591 1780.66   3
 -18   2  -5 2215.62 1746.66   1
  16 -18  -2 819.992 3076.00   1
   2  16  -2 3122.67 1867.46   3
   2  16   1-767.915 1775.74   3
   2  16   4 7167.66 2460.91   3
 -17   1  -9 15380.7 1962.60   1
 -17   1  -9 15497.2 2299.29   2
  16 -17  -9 20764.2 2550.34   1
  16 -17  -9 18196.6 2143.92   2
  16 -17  -6 8385.51 1673.38   2
  16 -17  -6 6864.88 2407.44   1
   1  16  -6 10702.8 1911.44   3
   1  16  -3 28729.3 2483.11   3
  16 -17  -3 27340.7 3004.75   1
 -17   1  -3 26665.5 2023.26   1
   1  16   0 12095.7 1834.52   3
   1  16   3 28059.7 2603.81   3
   1  16   6 7769.03 2843.77   3
   1  16   9 10043.7 2976.25   3
  16 -16  -7 2857.92 1842.01   2
   0  16  -7 4673.97 2094.22   3
 -16   0  -4 6289.01 1621.19   1
  16 -16  -4 6332.69 1514.88   2
  16 -16  -4 6805.03 2574.12   1
   0  16  -4 11446.8 2198.98   3
   0  16  -1 2071.71 1910.37   3
   0  16   2 7369.78 2156.60   3
   0  16   5 5036.50 2613.10   3
   0  16   8 10663.4 2644.49   3
  16 -15  -8 1345.85 2328.32   1
 -15  -1  -8 762.282 1672.79   1
 -15  -1  -8 13.0602 1883.78   2
  -1  16  -5 20329.7 2245.05   3
 -15  -1  -5 19145.8 1625.05   1
  16 -15  -5 16668.5 2503.53   1
  16 -15  -5 13041.6 1628.52   2
  16 -15  -2 7683.97 1842.74   2
  16 -15  -2 12291.1 3180.49   1
  -1  16  -2 12915.6 1878.84   3
 -15  -1  -2 11857.0 1494.39   1
  -1  16   1 8957.69 2059.71   3
  -1  16   4 857.454 2813.90   3
  16 -14  -9 12406.3 2456.41   1
 -14  -2  -9 10032.5 1964.23   2
  16 -14  -9 14304.3 2005.61   2
 -14  -2  -9 11770.7 1878.03   1
  16 -14  -6 10991.6 2412.55   1
 -14  -2  -6 11186.1 1718.36   1
  -2  16  -6 15042.2 2066.30   3
  16 -14  -6 13760.8 1913.46   2
  -2  16  -3 64470.5 3203.37   3
 -14  -2  -3 60773.4 2518.89   1
  16 -14  -3 67291.2 3920.55   1
  -2  16   0 11695.6 1987.90   3
  16 -14   0 15850.2 4452.20   2
  -2  16   3 16100.3 2848.59   3
  -2  16   6 6975.21 2926.92   3
  -2  16   9 21063.6 3270.54   3
  16 -13  -7 10928.7 1890.11   2
 -13  -3  -7 8056.33 1727.46   1
  16 -13  -4 10025.2 1760.32   2
  16 -13  -4 9772.02 2875.02   1
  -3  16  -4 14027.5 2274.64   3
 -13  -3  -4 12860.1 1592.17   1
  -3  16  -1 61.7476 1745.41   3
  16 -13  -1 752.066 2487.81   2
  -3  16   2 29289.2 2680.04   3
  -3  16   5 6550.93 2729.45   3
  16 -12  -8 2828.14 2400.88   1
 -12  -4  -8 3166.95 1803.62   1
 -12  -4  -8 5252.42 1937.69   2
 -12  -4  -5 17209.7 1858.09   1
  -4  16  -5 19865.0 2237.62   3
  16 -12  -5 18727.3 2797.58   1
  16 -12  -5 21242.2 2110.43   2
  16 -12  -2 3220.03 2154.65   2
 -12  -4  -2 2350.18 1237.78   1
  -4  16  -2 4440.45 1666.99   3
  -4  16   1 38193.0 2623.95   3
  -4  16   4 6763.59 2811.93   3
  -4  16   7 6636.82 2183.73   3
  16 -11  -9 3781.76 2019.74   2
 -11  -5  -9 3189.44 1916.43   1
  16 -11  -9 2543.20 2505.88   1
 -11  -5  -9 1545.46 1821.47   2
 -11  -5  -6 12050.9 1933.27   1
  16 -11  -6 9052.16 2478.72   1
  16 -11  -6 13002.6 1977.76   2
  16 -11  -3 19467.1 3123.18   1
  -5  16  -3 12165.6 1647.93   3
 -11  -5  -3 13915.9 1483.01   1
  16 -11  -3 15923.4 2430.90   2
  -5  16   0 1555.56 1934.52   3
  16 -11   0 2408.40 2625.31   2
  -5  16   3 42833.1 3242.48   3
  -5  16   6 3906.19 2061.05   3
  -5  16   9 7128.64 2557.81   3
 -10  -6 -10 4262.31 2188.86   1
  16 -10 -10 7499.21 2140.59   2
  16 -10 -10 7181.01 2650.72   1
 -10  -6 -10 7625.32 2017.84   2
  16 -10  -7 10096.5 2576.19   1
 -10  -6  -7 15109.6 2002.76   2
  16 -10  -7 16598.4 2016.94   2
 -10  -6  -7 15309.4 2073.37   1
  16 -10  -4 6383.05 2018.48   2
  16 -10  -4 4420.77 2757.61   1
  -6  16  -4 4402.03 1508.05   3
 -10  -6  -4 2513.55 1686.71   1
 -10  -6  -1 1248.46 867.773   1
  -6  16  -1 2712.55 1732.26   3
  16 -10  -1 2877.85 2388.93   2
  -6  16   2 42058.8 3076.12   3
  -6  16   5 8116.65 2680.03   3
  -9  -7  -5 35618.8 2425.65   1
  16  -9  -5 35189.6 3450.42   1
  16  -9  -5 32476.3 2485.73   2
  -7  16  -2 21877.1 1835.23   3
  -9  -7  -2 24515.9 1498.89   1
  -7  16   1 13977.5 2790.58   3
  16  -9   1 11750.3 3722.74   2
  -7  16   4 15650.0 2866.59   3
  -7  16   7 17416.1 2485.96   3
  -7  16  10 4523.22 2576.54   3
  -8  -8  -9 3090.31 2238.07   1
  16  -8  -9 611.808 1905.25   2
  16  -8  -9-2131.32 2696.90   1
  -8  -8  -9 902.343 1915.99   2
  16  -8  -6-2233.85 2601.22   1
  -8  -8  -6 5231.19 1970.60   1
  16  -8  -6 2351.95 1982.02   2
  -8  -8  -6 2697.62 1591.06   2
  16  -8  -3 1336.77 2878.32   1
  16  -8  -3 3095.50 2093.22   2
  -8  16  -3 1436.24 1511.61   3
  -8  -8  -3 2743.71 1668.25   1
  -8  16   0 1893.89 2413.44   3
  16  -8   0 3186.91 2238.36   2
  -8  16   3 4925.58 2724.57   3
  -8  16   6 2279.46 2154.86   3
  -8  16   9-2329.90 2485.39   3
  16  -7 -10 1261.16 1929.53   2
  16  -7 -10 106.456 2773.46   1
  -7  -9 -10 2819.01 2144.40   2
  -7  -9 -10 3730.61 2395.38   1
  -7  -9  -7 9390.17 2241.54   1
  16  -7  -7 8888.45 2046.00   2
  16  -7  -7 11277.6 2850.39   1
  -7  -9  -7 7670.31 1701.06   2
  16  -7  -4 4590.37 3100.39   1
  16  -7  -4 6135.63 2214.03   2
  -7  -9  -4 6660.96 1866.36   1
  -9  16  -1 4951.19 1856.55   3
  16  -7  -1 7654.99 2157.24   2
  -9  16   2 31842.0 2767.74   3
  -9  16   5 29814.3 2696.35   3
  16  -6  -8 12785.0 2146.85   2
  16  -6  -5 18379.8 3330.41   1
  16  -6  -5 14418.7 2272.12   2
  -6 -10  -5 18828.6 2284.90   1
  -6 -10  -2 18520.8 1638.15   1
  16  -6  -2 25223.0 2405.03   2
 -10  16   1 9459.31 2327.54   3
  16  -6   1 2380.56 2724.29   2
 -10  16   4 10934.0 2304.52   3
 -10  16   7 15678.0 2567.97   3
 -10  16  10 7160.81 2616.28   3
  16  -5  -9 8908.28 2143.55   2
  16  -5  -9 8667.85 3008.28   1
  -5 -11  -9 12407.3 2084.78   2
  -5 -11  -9 10797.7 2364.47   1
  -5 -11  -6 2423.41 1959.20   1
  16  -5  -6 2997.71 1920.54   2
  16  -5  -6 2417.87 2766.49   1
  -5 -11  -6 1256.38 1617.10   2
  16  -5  -3 47444.0 2572.92   2
  -5 -11  -3 38903.5 2058.03   1
 -11  16   0 594.004 1915.06   3
  16  -5   0 2930.29 2409.20   2
 -11  16   3 15547.8 2318.12   3
 -11  16   6 19549.9 2543.64   3
 -11  16   9 1518.85 2338.37   3
  16  -4  -7 6097.00 2014.40   2
  16  -4  -7 4026.90 2803.92   1
  -4 -12  -7 7287.51 2095.03   2
  -4 -12  -7 7205.29 2185.51   1
  16  -4  -4 5547.89 2228.41   2
  -4 -12  -4 2191.80 1938.10   1
  16  -4  -1 19629.7 2097.82   2
 -12  16   2 1721.72 2175.02   3
 -12  16   5 22205.3 2930.00   3
 -12  16   8 312.611 2371.36   3
  16  -3  -8 6044.94 2277.10   2
  16  -3  -8 1500.72 3055.27   1
  -3 -13  -8 6475.13 1913.65   2
  16  -3  -5 3725.56 3232.65   1
  16  -3  -5 6150.82 2214.09   2
  -3 -13  -5 2430.22 1401.60   2
  -3 -13  -5 907.057 1881.54   1
  16  -3  -2 25038.4 2433.92   2
 -13  16   1 1587.38 1801.20   3
 -13  16   4 19340.9 3077.00   3
  -2 -14  -9 17531.6 2237.92   2
  -2 -14  -9 24664.1 2639.72   1
  16  -2  -9 20410.6 2492.87   2
  16  -2  -6 6199.92 3254.37   1
  16  -2  -6 5520.27 2050.54   2
  -2 -14  -6 3702.27 2059.57   1
  -2 -14  -6 6071.21 1626.26   2
  -2 -14  -3 11012.2 1419.57   2
  -2 -14  -3 17264.7 1997.73   1
  16  -2  -3 16071.4 2329.45   2
 -14  16   0 11441.0 1805.57   3
  16  -2   0 9850.55 1315.66   3
  16  -2   0 9141.93 2646.15   2
 -14  16   3 59507.1 3436.57   3
 -14  16   6 13513.3 2612.48   3
 -14  16   9 2710.08 2372.00   3
  16  -1  -7 11408.4 3560.53   1
  -1 -15  -7 11448.1 1802.92   2
  -1 -15  -7 9725.79 2163.06   1
  16  -1  -4-119.058 2268.61   2
  -1 -15  -4 3148.32 2183.30   1
  16  -1  -1 7563.29 2036.75   2
 -15  16   2 10804.1 2384.50   3
 -15  16   5 11968.0 2659.14   3
 -15  16   8 15.7111 2385.47   3
  16   0  -8 8973.50 2378.41   2
  16   0  -5 1645.40 2208.82   2
   0 -16  -5 2827.33 1984.99   1
 -16  16  -5 1366.59 1572.68   1
  16   0  -2 6548.04 2384.17   2
 -16  16   1 1075.65 2208.23   3
  16   0   1 3226.62 1569.02   3
 -16  16   4 8208.41 2661.08   3
  16   1  -9 11771.1 2477.08   2
   1 -17  -9 13148.1 2277.26   1
  16   1  -6 5937.20 2633.09   2
   1 -17  -6 7499.93 2358.69   1
 -17  16  -6 5486.35 2000.21   1
  16   1  -3 28369.6 3079.19   2
  16   1   0 8294.48 1404.59   3
  16   1   0 10496.0 3414.45   2
 -17  16   3 14312.8 2733.60   3
 -17  16   6 13707.5 2794.93   3
 -17  16   9 6500.70 2459.19   3
   2 -18  -7 1563.48 2395.07   1
  16   2  -7 416.797 2524.96   2
  16   2  -4 10864.0 2636.08   2
  16   2  -1 562.096 1599.82   3
  16   2  -1-2562.93 2956.40   2
 -18  16   2 1274.81 2351.83   3
  16   2   2 3911.07 2232.31   3
 -18  16   5 2247.72 2401.05   3
 -18  16   8-48.2101 2468.28   3
  16   3  -8-1067.71 2600.00   2
   3 -19  -8 3295.70 2366.55   1
  16   3  -5 3874.70 2760.67   2
 -19  16  -5 2557.61 1796.58   1
  16   3  -2 3646.75 1478.21   3
  16   3  -2 4995.98 2329.79   2
  16   3   1 2314.51 1787.34   3
 -19  16   4-263.268 2333.27   3
 -19  16   7-4987.22 2682.13   3
 -20  16  -6 6421.79 2053.21   1
  16   4  -3 9360.31 1407.26   3
  16   4  -3 7570.73 2873.97   2
  16   4   0 3408.13 1444.93   3
 -20  16   3 13768.5 2337.99   3
  16   5  -7 5447.14 2927.11   2
 -21  16  -7 3322.78 2062.86   1
  16   5  -4 3553.57 1502.87   3
  16   5  -4 2481.44 3191.89   2
  16   5  -1 8123.78 1481.48   3
  16   5  -1 7354.25 3635.16   2
  16   5   2 8030.31 2098.44   3
  16   6  -5 4551.01 1635.46   3
  16   6  -2 1777.60 1289.53   3
  16   6  -2 630.946 3908.54   2
  16   6   1 4392.88 2171.89   3
 -23  16  -6 2670.25 2193.94   1
  16   7  -6 4272.64 1701.28   3
  16   7  -6 4408.54 3689.97   2
  16   7  -3 4325.48 3140.47   2
  16   7   0 4459.18 1899.52   3
  16   8  -4 9679.58 1391.60   3
  16   8  -1 5297.51 1655.54   3
  16   8   2 6921.56 2684.19   3
  16   9  -5 4538.49 1303.04   3
 -25  16  -5 6269.71 1822.22   1
  16   9  -5 8843.85 3682.17   2
  16   9  -2 442.725 1249.38   3
  16   9  -2-750.901 4109.40   2
  16   9   1 4302.60 2427.95   3
  16  10  -3 2822.53 1212.98   3
  16  11  -1 3109.78 1819.09   3
  16  11   2 7006.59 2722.26   3
  16  12  -2 892.897 1427.84   3
  16  12   1 3254.16 2407.97   3
  11  17   0 278.223 1614.27   3
  10  17  -1 1592.45 1382.31   3
  10  17   2 286.602 2148.84   3
   9  17  -2 1426.16 1371.07   3
   9  17   1 6346.67 1880.23   3
   9  17   4 1807.19 2260.84   3
   8  17  -3 4020.57 1523.91   3
   8  17   0 1541.90 1712.95   3
   8  17   3 8977.83 2463.50   3
   7  17  -4 5061.75 1581.04   3
   7  17  -1-1747.54 1478.39   3
   7  17   5 2258.18 2589.14   3
 -23   6  -5 2340.07 2304.86   1
   6  17  -5 1932.50 1675.31   3
  17 -22  -6 1252.19 2433.95   1
   5  17  -6 3085.45 1698.51   3
 -22   5  -6 5613.13 2044.64   1
  17 -22  -3 8583.18 2208.95   1
   5  17   0 2186.30 1535.28   3
   5  17   6 6165.20 2746.06   3
 -21   4  -7-2008.84 2027.53   1
  17 -21  -7-1973.02 2657.56   1
   4  17  -7 51.7004 1741.93   3
  17 -21  -4 299.269 2104.23   1
   4  17  -1 853.346 1543.44   3
   4  17   2 2178.93 1965.89   3
  17 -20  -5-1741.44 2265.61   1
  17 -20  -2-1576.80 2531.16   1
   3  17  -2 2967.49 1677.64   3
   3  17   1 3826.60 1643.03   3
   3  17   4 1443.34 2327.34   3
   3  17   7 3518.66 3257.80   3
 -19   2  -6 21931.1 2027.75   1
   2  17  -3 21072.3 2284.36   3
  17 -19  -3 15302.2 2623.04   1
 -19   2  -3 19811.0 1924.26   1
   2  17   0 12452.7 1788.34   3
   2  17   3 13491.8 2049.06   3
  17 -18  -7 3211.32 1788.28   2
  17 -18  -7-1608.93 2578.94   1
 -18   1  -7 135.140 1712.75   1
  17 -18  -4 615.824 2392.16   1
 -18   1  -4-890.914 1812.22   1
   1  17  -4 2623.11 2195.18   3
   1  17  -1 7796.04 1830.49   3
   1  17   2 4509.49 1957.60   3
   1  17   5 8740.23 2689.27   3
   1  17   8 2415.37 2952.89   3
  17 -17  -8 367.888 2347.54   1
 -17   0  -8 1396.89 1762.23   1
  17 -17  -5-466.808 1621.19   2
  17 -17  -5-4023.75 2591.46   1
 -17   0  -5-285.047 1449.65   1
   0  17  -5-1702.55 2205.34   3
  17 -17  -2 8829.49 3376.74   1
 -17   0  -2 10931.5 1750.98   1
   0  17  -2 13283.2 2019.73   3
   0  17   1-28.6538 1921.08   3
   0  17   4 15748.4 2832.23   3
  17 -16  -9 12054.7 2567.10   1
 -16  -1  -9 10955.8 2086.54   2
  17 -16  -9 16706.7 2183.80   2
 -16  -1  -9 13091.4 1827.53   1
  17 -16  -6 15439.3 2624.32   1
 -16  -1  -6 14131.4 1874.01   1
  -1  17  -6 21855.2 2481.29   3
  17 -16  -6 15736.6 1800.96   2
  -1  17  -3 21362.6 2238.98   3
 -16  -1  -3 20973.1 1860.15   1
  -1  17   0 12565.8 2017.69   3
  -1  17   3 23493.9 2723.10   3
  -1  17   6 6075.77 3081.23   3
  -1  17   9 13870.2 2945.61   3
  17 -15  -7 8986.44 1888.83   2
  -2  17  -7 8098.26 2160.74   3
  17 -15  -4 3264.00 1585.17   2
  17 -15  -4 4527.57 2708.47   1
  -2  17  -4 4456.00 2367.08   3
 -15  -2  -4 4689.47 1455.20   1
  -2  17  -1 24680.8 2078.12   3
  17 -15  -1 14040.7 3089.24   2
  -2  17   2 4902.67 2230.32   3
  -2  17   5 15697.6 2771.86   3
  -2  17   8 4940.43 2474.86   3
  17 -14  -8 3582.88 2370.49   1
 -14  -3  -8 6245.45 1849.77   1
 -14  -3  -8 6545.83 1938.37   2
  17 -14  -5 3361.65 1725.21   2
 -14  -3  -5 468.415 1600.02   1
  17 -14  -5 3526.41 2620.28   1
  -3  17  -5 4931.40 2112.72   3
  -3  17  -2 37603.6 2315.82   3
  17 -14  -2 36695.9 2742.83   2
 -14  -3  -2 31475.2 1762.57   1
  -3  17   1 11284.2 2122.75   3
  -3  17   4 7308.16 2800.00   3
  17 -13  -9 11502.2 2094.70   2
  17 -13  -9 9389.86 2568.29   1
 -13  -4  -9 9930.41 1859.36   2
 -13  -4  -9 9862.99 1814.51   1
  17 -13  -6 1485.28 1760.95   2
  17 -13  -6-1852.68 2420.62   1
  -4  17  -6 983.271 2078.49   3
 -13  -4  -6-471.735 1741.91   1
  17 -13  -3 17830.3 3302.15   1
  -4  17  -3 17450.9 1932.96   3
 -13  -4  -3 11439.6 1467.04   1
  17 -13  -3 15175.7 2060.64   2
  -4  17   0 8981.17 2106.79   3
  17 -13   0 10964.7 4328.11   2
  -4  17   3 29342.2 3068.52   3
  -4  17   6 8892.34 2776.38   3
  -4  17   9 15888.3 2745.09   3
  17 -12  -7 8868.65 2069.24   2
  17 -12  -4 5703.00 2104.60   2
  17 -12  -4 10776.2 3184.43   1
 -12  -5  -4 1178.81 1660.48   1
  -5  17  -4 8158.91 1984.04   3
  -5  17  -1 14935.1 2013.21   3
 -12  -5  -1 9086.91 1059.88   1
  17 -12  -1 13326.9 2813.59   2
  -5  17   2 5211.10 2767.86   3
  -5  17   5 11424.5 2746.13   3
  -5  17   8 4924.34 2555.04   3
  17 -11  -8 14910.0 2762.43   1
 -11  -6  -8 15287.6 1964.51   2
  17 -11  -8 19497.9 2151.95   2
 -11  -6  -8 19260.7 2070.00   1
  17 -11  -5 8023.24 1920.51   2
  17 -11  -5 6768.21 2676.38   1
  -6  17  -5 11392.7 2119.95   3
 -11  -6  -5 8236.59 1901.52   1
  -6  17  -2 8631.01 1748.55   3
 -11  -6  -2 6976.74 1182.63   1
  17 -11  -2 10532.2 2353.16   2
  -6  17   1 34801.7 2870.34   3
  -6  17   4 18789.8 2988.27   3
 -10  -7  -9 573.574 2031.92   1
  17 -10  -9 2682.62 1960.76   2
  17 -10  -9-3692.47 2727.91   1
 -10  -7  -9 1062.67 1822.43   2
  17 -10  -6 9622.67 2016.84   2
  17 -10  -6 7892.61 2749.25   1
 -10  -7  -6 11869.1 2080.53   1
  17 -10  -3-3539.65 3018.76   1
 -10  -7  -3-1172.66 1527.85   1
  17 -10  -3-1474.01 2247.24   2
  -7  17  -3 1208.52 1589.93   3
 -10  -7   0 3424.81 809.500   1
  -7  17   0 8041.56 2240.80   3
  17 -10   0 5458.25 2639.79   2
  -7  17   3 5780.55 2764.90   3
  -7  17   6-528.617 1976.23   3
  -7  17   9-115.722 2580.93   3
  17  -9  -7 9362.47 2101.43   2
  17  -9  -7 5395.98 2705.69   1
  -9  -8  -7 7187.31 2069.30   1
  -9  -8  -7 5632.76 1710.72   2
  17  -9  -4 14935.4 3328.71   1
  -8  17  -4 10812.8 1991.07   3
  -9  -8  -4 13009.2 2228.06   1
  17  -9  -4 14827.1 2387.05   2
  -8  17  -1 5920.02 1806.41   3
  -9  -8  -1 2680.97 1077.46   1
  17  -9  -1 7177.82 2402.49   2
  -8  17   2 16902.4 2853.82   3
  -8  17   5 6855.80 2179.13   3
  -8  17   8 4433.92 2421.42   3
  17  -8  -8 3165.45 2053.40   2
  17  -8  -5 10607.4 2208.56   2
  17  -8  -5 12735.8 3109.03   1
  -8  -9  -5 13055.4 2162.16   1
  -8  -9  -2 15372.4 1693.79   1
  -9  17  -2 21198.6 2196.95   3
  17  -8  -2 22273.7 2586.47   2
  -9  17   1 11300.2 2509.15   3
  17  -8   1 8384.85 3327.63   2
  -9  17   4 16074.0 2697.28   3
  17  -7  -9 800.358 1983.21   2
  17  -7  -9-3337.70 2910.97   1
  -7 -10  -9 511.381 1844.39   2
  -7 -10  -9 2752.65 2648.30   1
  17  -7  -6 1147.27 1805.87   2
  17  -7  -6 3746.19 2794.01   1
  -7 -10  -6 1568.60 1991.33   1
  -7 -10  -6-982.100 1487.74   2
  17  -7  -3 4797.85 2163.10   2
  -7 -10  -3 7052.68 1722.64   1
 -10  17  -3 5514.51 1815.48   3
 -10  17   0 6502.92 2162.19   3
  17  -7   0 5707.34 2562.41   2
 -10  17   3 2775.25 2618.05   3
 -10  17   6 9742.06 2321.99   3
 -10  17   9 1577.07 2391.98   3
  -6 -11  -7 8148.49 1749.52   2
  -6 -11  -7 13900.9 2404.86   1
  17  -6  -7 7768.65 2947.21   1
  17  -6  -4 15622.7 3461.15   1
  17  -6  -4 21151.4 2426.64   2
  -6 -11  -4 19453.7 1974.82   1
 -11  17  -1 17447.7 2980.88   3
  17  -6  -1 13060.9 2290.96   2
 -11  17   2 12098.8 2637.10   3
 -11  17   5 12095.7 2617.73   3
 -11  17   8 7531.60 2437.94   3
  17  -5  -8 8412.07 2153.09   2
  17  -5  -5 14751.5 3244.07   1
  -5 -12  -5 10887.4 1997.34   1
  17  -5  -5 14364.8 2216.27   2
  -5 -12  -2 7800.40 1635.09   1
  17  -5  -2 5541.32 2264.67   2
 -12  17   1 21414.5 2610.72   3
  17  -5   1 23884.9 3065.99   2
 -12  17   4 12495.6 2947.28   3
  17  -4  -9 11619.8 2275.06   2
  17  -4  -9 9427.58 3319.55   1
  -4 -13  -9 18420.1 2661.58   1
  -4 -13  -9 10362.8 2002.63   2
  17  -4  -6 10160.9 3185.31   1
  17  -4  -6 11468.5 2105.28   2
  -4 -13  -6 5321.10 1746.48   2
  -4 -13  -6 8697.36 2076.34   1
  -4 -13  -3 15267.8 1744.79   1
  17  -4  -3 20702.4 2413.11   2
 -13  17   0 8602.65 2176.72   3
  17  -4   0 9356.56 2605.66   2
 -13  17   3 24182.5 2849.38   3
 -13  17   6 1171.23 2451.81   3
 -13  17   9 9500.53 2481.60   3
  17  -3  -7 2302.66 3335.89   1
  -3 -14  -7 1326.63 2021.19   1
  -3 -14  -7 3231.76 1804.88   2
  17  -3  -4 4188.19 2142.63   2
  -3 -14  -4 2561.46 1402.38   2
  -3 -14  -4 5220.98 1879.99   1
 -14  17  -1 3611.90 1924.56   3
  17  -3  -1 2815.35 1761.88   2
 -14  17   2 37488.2 2821.70   3
 -14  17   5 1361.27 2536.06   3
 -14  17   8 3022.45 2452.41   3
  17  -2  -8 5564.24 2261.39   2
  -2 -15  -5 13019.4 1919.97   1
  17  -2  -5 16932.3 2293.21   2
  17  -2  -2 710.892 2313.02   2
 -15  17   1 27170.4 2491.83   3
  17  -2   1 27758.3 1879.11   3
 -15  17   4 4284.96 2879.78   3
  17  -1  -9 10043.1 2332.61   2
  -1 -16  -9 13712.4 2268.69   1
  -1 -16  -9 9191.98 2056.20   2
  17  -1  -6 7069.23 2508.49   2
  -1 -16  -6 7632.97 2398.88   1
  17  -1  -3 23781.7 2745.41   2
 -16  17   0 10928.6 2263.48   3
  17  -1   0 8628.22 1539.65   3
  17  -1   0 6755.17 2872.47   2
 -16  17   3 24649.9 3312.26   3
 -16  17   6 7705.09 2897.65   3
 -16  17   9 12220.0 2546.08   3
  17   0  -7 871.887 2457.22   2
   0 -17  -7 2501.15 1998.64   1
  17   0  -4 10954.5 2465.76   2
  17   0  -1-470.292 1314.14   3
  17   0  -1-1389.46 2692.85   2
 -17  17   2 11616.1 2517.95   3
 -17  17   5-2679.18 2606.06   3
 -17  17   8 2270.83 2375.84   3
  17   1  -8-613.335 2570.59   2
   1 -18  -8 214.393 2145.65   1
  17   1  -5 9280.36 2570.89   2
 -18  17  -5 6855.78 2020.11   1
  17   1  -2 4206.07 1393.26   3
  17   1  -2 4395.06 2145.85   2
 -18  17   1 1975.79 2236.00   3
  17   1   1 5460.82 1732.67   3
 -18  17   7 1555.13 2527.21   3
 -19  17  -6 10959.7 2173.21   1
  17   2  -3 9205.97 1447.44   3
  17   2  -3 6755.57 2550.41   2
  17   2   0 11968.0 1668.84   3
  17   2   0 11518.8 3435.70   2
 -19  17   3 15653.8 2949.87   3
  17   3  -7 9375.86 2927.04   2
  17   3  -4 1217.76 1478.77   3
  17   3  -4 1895.74 2883.66   2
  17   3  -1 6094.85 1439.77   3
  17   3  -1 8354.86 3493.94   2
 -20  17   2 2287.77 2126.16   3
 -20  17   5 2353.01 2562.27   3
 -21  17  -5 191.745 2048.29   1
  17   4  -5 908.707 1626.15   3
  17   4  -2 2434.43 1358.30   3
  17   4  -2 85.6211 2733.67   2
  17   4   1 1681.67 1972.01   3
 -21  17   4-28.8464 2387.74   3
  17   5  -6 10531.4 1876.04   3
  17   5  -6 5312.94 3322.21   2
  17   5  -3 5721.99 1470.98   3
  17   5  -3 7135.41 2727.29   2
  17   5   0 3860.45 1698.68   3
  17   6  -4 2559.53 1547.87   3
  17   6  -1 5880.96 1454.77   3
  17   6  -1 5603.97 4192.47   2
  17   6   2 1842.55 2323.58   3
  17   7  -5 202.947 1537.26   3
 -24  17  -5 946.240 2104.67   1
  17   7  -5-1590.61 3589.23   2
  17   7  -2 813.464 4196.06   2
  17   7   1 821.823 2712.53   3
  17   8  -3 2631.41 1363.03   3
  17   9  -4 1556.27 1373.05   3
  17   9  -4 2693.15 3734.83   2
  17   9  -1 7214.17 1710.74   3
  17  10  -2 8.69161 1368.62   3
  17  10   1 3472.97 2473.67   3
  17  11   0 626.781 1906.48   3
  10  18   1 1459.41 1852.02   3
   9  18  -3 292.398 1411.33   3
   9  18   0 1502.52 1583.75   3
   9  18   3 3766.65 2303.02   3
   8  18  -4 3686.53 1577.14   3
 -26   8  -4 1928.04 1881.68   1
   8  18  -1 1152.04 1458.31   3
   8  18   2 6332.49 2073.88   3
 -25   7  -5-2316.58 2300.63   1
   7  18  -5-234.514 1639.52   3
   7  18  -2 8512.04 1570.25   3
   7  18   1 620.717 1740.06   3
   7  18   4 8861.71 2261.48   3
 -24   6  -3 782.962 2001.04   1
   6  18  -3-494.827 1625.80   3
   6  18   0 9016.61 1712.01   3
   6  18   3 1580.39 2207.82   3
  18 -23  -4 3242.82 2152.27   1
 -23   5  -4 4167.66 2215.54   1
   5  18  -4 1498.39 1827.09   3
   5  18   5-1292.09 2793.56   3
 -22   4  -5 937.885 2162.89   1
   4  18  -5-46.7296 1927.76   3
   4  18   1 142.520 1720.23   3
  18 -21  -6 9015.08 2508.14   1
 -21   3  -6 14719.1 2035.26   1
   3  18  -6 12960.3 2129.11   3
  18 -21  -3 30.3783 2357.94   1
   3  18  -3 3241.62 1926.87   3
 -21   3  -3 4834.18 1925.69   1
   3  18   0 22287.7 1902.83   3
   3  18   3 1896.10 1929.28   3
   3  18   6 22986.5 3087.50   3
 -20   2  -7-649.359 1935.02   1
  18 -20  -7-2377.16 2583.37   1
   2  18  -7 1411.65 2010.05   3
  18 -20  -4 1408.06 2431.02   1
   2  18  -4 1656.74 2154.00   3
   2  18  -1 3674.62 1579.77   3
   2  18   2 1851.77 1865.47   3
  18 -19  -8-1492.31 2517.41   1
   1  18  -8 70.5440 2026.19   3
 -19   1  -8-2327.29 1929.64   1
  18 -19  -5-3554.12 2385.99   1
   1  18  -5 1693.00 2352.66   3
   1  18  -2 6057.55 1782.98   3
   1  18   1 1455.53 1678.94   3
   1  18   4-657.181 2503.91   3
   1  18   7 1238.43 2981.51   3
   0  18  -6 59561.4 3211.51   3
 -18   0  -6 51624.0 2666.73   1
  18 -18  -3 1113.16 2737.86   1
   0  18  -3 3911.52 1980.25   3
 -18   0  -3 1764.20 1649.80   1
   0  18   0 41776.2 2418.75   3
   0  18   3 2013.36 2065.99   3
  18 -17  -7-1800.30 2418.63   1
  -1  18  -7 115.124 2284.10   3
 -17  -1  -7-2316.61 1741.36   1
  18 -17  -4 380.002 1415.67   2
  18 -17  -4 723.817 2570.71   1
  -1  18  -4-1568.63 2285.83   3
 -17  -1  -4 1026.15 1449.39   1
  -1  18  -1 3706.82 1877.08   3
  -1  18   2 4355.71 1974.13   3
  -1  18   5 7510.73 2643.50   3
  -1  18   8 1354.36 2547.61   3
  18 -16  -8 2271.67 1818.08   2
  18 -16  -8-742.589 2458.36   1
 -16  -2  -8 2603.14 1704.20   1
  18 -16  -5 525.355 1786.11   2
  18 -16  -5-895.405 2436.66   1
 -16  -2  -5 1394.88 1425.76   1
  -2  18  -5 1423.56 2356.01   3
 -16  -2  -2 3789.39 1372.87   1
  -2  18  -2 3745.05 2062.47   3
  18 -16  -2 3681.02 2207.15   2
  -2  18   1 354.391 2127.46   3
  -2  18   4 15665.7 2656.18   3
  -2  18   7 1623.37 3080.22   3
 -15  -3  -6 42684.6 2366.17   1
  18 -15  -6 43696.2 2565.78   2
  18 -15  -3-2263.31 3167.31   1
  18 -15  -3 1895.42 1896.16   2
 -15  -3  -3 1268.01 1548.11   1
  -3  18  -3 2855.53 1982.76   3
  -3  18   0 24615.7 2321.78   3
  18 -15   0 40929.1 6720.52   2
  -3  18   3 6707.07 2765.06   3
  18 -14  -7 2140.17 2526.64   1
  18 -14  -4 116.522 1970.54   2
  18 -14  -4 1756.43 3211.93   1
 -14  -4  -4 1364.33 1320.84   1
  -4  18  -4 2394.43 2267.36   3
  -4  18  -1 7902.57 2163.76   3
 -14  -4  -1 3374.00 1058.17   1
  18 -14  -1 3538.86 3055.51   2
  -4  18   2 10430.7 2654.10   3
  -4  18   5 5760.80 2646.59   3
  -4  18   8 18469.5 2691.69   3
  18 -13  -8 5467.24 1980.22   2
  18 -13  -8 3519.14 2545.77   1
 -13  -5  -8 8281.53 1903.65   1
 -13  -5  -8 5067.37 1897.09   2
  18 -13  -5 2124.51 1808.12   2
  18 -13  -5 746.619 2584.33   1
  -5  18  -5 2752.39 1882.61   3
 -13  -5  -5 1041.13 1555.54   1
  -5  18  -2 13594.5 2029.56   3
 -13  -5  -2 12069.2 1612.87   1
  18 -13  -2 13954.1 2573.95   2
  -5  18   1 2190.85 2278.84   3
  -5  18   4 11245.7 2750.10   3
  18 -12  -9 1755.74 1982.06   2
 -12  -6  -9 2970.13 1939.87   1
  18 -12  -9-506.416 2544.71   1
 -12  -6  -9 1048.13 1710.38   2
 -12  -6  -6 10288.4 1860.24   1
  18 -12  -6 10323.7 1964.89   2
  18 -12  -6 5813.36 2658.28   1
  18 -12  -3 440.372 3218.96   1
  18 -12  -3 4434.69 2221.08   2
 -12  -6  -3 3321.21 1520.90   1
  -6  18  -3 2342.87 1712.27   3
  -6  18   0 8085.55 2455.16   3
  18 -12   0 7399.95 3882.62   2
  -6  18   3 5344.06 3024.78   3
  -6  18   6 13505.7 2385.84   3
  -6  18   9 378.210 2524.31   3
  18 -11  -4 9006.13 3217.91   1
  18 -11  -4 13438.3 2310.10   2
  -7  18  -4 10310.9 1738.38   3
 -11  -7  -4 9704.91 1939.75   1
 -11  -7  -1 4731.38 1117.88   1
  -7  18  -1 9200.07 2065.35   3
  18 -11  -1 9549.83 2765.76   2
  -7  18   2 55122.9 3707.59   3
  -7  18   5 507.604 2428.82   3
  -7  18   8 23779.9 2806.94   3
  18 -10  -8 10001.5 2825.58   1
 -10  -8  -8 9815.17 1867.02   2
 -10  -8  -8 17253.8 2353.94   1
  18 -10  -8 14385.0 2207.90   2
  18 -10  -5-871.779 1969.80   2
  18 -10  -5-517.147 2841.67   1
 -10  -8  -5 2711.66 1849.65   1
  -8  18  -2 27146.2 2184.61   3
 -10  -8  -2 26612.2 1666.79   1
  -8  18   1 5405.48 2699.45   3
  18 -10   1 1549.44 4293.71   2
  -8  18   4 23075.7 3017.30   3
  -9  -9  -9 3108.28 2427.18   1
  18  -9  -9 2102.54 2088.38   2
  18  -9  -9-629.701 2778.03   1
  -9  -9  -9 3089.23 1962.29   2
  18  -9  -6 10277.2 2118.74   2
  18  -9  -6 11055.6 2987.44   1
  -9  -9  -6 12045.7 2126.47   1
  18  -9  -3 3127.98 2372.72   2
  -9  18  -3 2450.89 1876.17   3
  -9  -9  -3 1514.73 1844.37   1
  -9  18   0 32862.3 2808.16   3
  18  -9   0 31714.2 3226.63   2
  -9  18   3 1105.65 2846.19   3
  -9  18   6 6652.89 2206.65   3
  -9  18   9 2145.22 2465.30   3
  -8 -10  -7 2102.94 2329.93   1
  -8 -10  -7-850.947 1696.24   2
  18  -8  -4 14654.4 3532.64   1
  18  -8  -4 19984.7 2692.77   2
  -8 -10  -4 15221.3 2345.97   1
 -10  18  -1 2636.70 2167.02   3
  18  -8  -1 1157.38 2200.15   2
  -8 -10  -1-107.743 1759.34   1
 -10  18   2 34584.8 3141.98   3
 -10  18   5-1195.70 2047.11   3
 -10  18   8 9276.61 2528.63   3
  18  -7  -8 20239.4 3272.56   1
  -7 -11  -8 27762.4 2905.57   1
  18  -7  -8 21976.5 2381.26   2
  18  -7  -5 1935.14 2966.80   1
  18  -7  -5 830.764 2086.80   2
  -7 -11  -5 3577.26 1811.21   1
  -7 -11  -2 39862.9 2191.42   1
 -11  18  -2 37388.8 2624.02   3
 -11  18   1 10925.1 2537.25   3
  18  -7   1 10902.1 3297.24   2
 -11  18   4 16132.9 2596.60   3
  18  -6  -9 2666.69 2152.73   2
  18  -6  -9-2492.24 3220.66   1
  -6 -12  -9 747.178 1798.82   2
  -6 -12  -9 1608.12 2427.21   1
  18  -6  -6 18375.9 3428.33   1
  -6 -12  -6 18546.8 2403.42   1
  18  -6  -6 16132.7 2165.49   2
  18  -6  -3 3645.93 2478.76   2
  -6 -12  -3 2807.62 1575.64   1
 -12  18   0 7752.09 2282.75   3
  18  -6   0 12648.9 3122.01   2
 -12  18   3 2558.02 2365.25   3
 -12  18   6 14435.7 2480.11   3
 -12  18   9 1402.04 2289.05   3
  18  -5  -7 40.7396 2144.43   2
  -5 -13  -7 152.774 1622.69   2
  -5 -13  -7 3588.76 2463.10   1
  18  -5  -4 7398.07 2199.06   2
  -5 -13  -4 6032.87 1822.03   1
 -13  18  -1 728.763 2108.72   3
  18  -5  -1-1053.19 1935.24   2
 -13  18   2 3909.98 2372.28   3
 -13  18   5 4132.51 2389.45   3
 -13  18   8 1515.26 2351.78   3
  -4 -14  -8 15609.7 2526.98   1
  18  -4  -8 15440.8 2298.90   2
  18  -4  -5 2618.32 2092.20   2
  -4 -14  -5 2323.20 1309.04   2
  -4 -14  -5 2665.64 2436.50   1
  18  -4  -2 4949.11 2394.29   2
 -14  18   1 3778.69 1980.38   3
 -14  18   4 2934.95 2539.09   3
 -14  18   7 2888.92 2496.78   3
  18  -3  -6 11964.2 3535.96   1
  -3 -15  -6 10411.9 1646.82   2
  -3 -15  -6 18029.1 2109.17   1
  18  -3  -3 2449.01 2451.68   2
 -15  18   0 24400.6 2597.93   3
  18  -3   0 24409.1 1754.03   3
  18  -3   0 23628.0 3110.42   2
 -15  18   3 6288.48 2601.83   3
  18  -2  -7-5898.10 3882.81   1
  18  -2  -7-120.156 2375.92   2
  -2 -16  -7 1666.70 2455.90   1
  18  -2  -4 8373.67 2226.96   2
  18  -2  -1 93.2871 2192.56   2
 -16  18   2 3953.06 2710.47   3
 -16  18   5 211.716 2565.72   3
 -16  18   8-1082.70 2410.46   3
  18  -1  -8 808.784 2373.04   2
  -1 -17  -8 2632.70 2178.42   1
  18  -1  -5 5780.28 2414.26   2
  18  -1  -2 4842.89 2109.35   2
 -17  18   1 6671.76 2379.60   3
 -17  18   4-2581.61 2704.01   3
 -17  18   7-459.004 2653.61   3
  18   0  -6 29518.9 2938.93   2
  18   0  -3-853.928 2332.27   2
  18   0   0 33063.4 1950.66   3
  18   0   0 34487.6 3270.52   2
 -18  18   3-3386.95 2358.46   3
  18   1  -7 1704.80 2634.77   2
  18   1  -4-49.6607 2727.14   2
  18   1  -1 1965.65 1442.16   3
  18   1  -1-219.475 2761.77   2
 -19  18   2 2537.96 2189.92   3
 -19  18   5 1806.85 2749.92   3
 -19  18   8-3025.17 2498.35   3
 -20  18  -5 11.8493 1836.09   1
  18   2  -2 112.856 1563.05   3
  18   2  -2-472.654 2278.24   2
  18   2   1 10.6920 1791.24   3
 -20  18   4 2523.61 2796.20   3
 -20  18   7-1723.85 2545.95   3
  18   3  -6 18349.7 3145.80   2
  18   3  -3 2188.04 1526.40   3
  18   3  -3 247.965 2382.47   2
  18   3   0 20882.9 2104.75   3
 -21  18   3-1597.25 2349.71   3
 -21  18   6 4268.12 2628.47   3
  18   4  -1 3665.99 1634.96   3
  18   4  -1 3743.91 3537.10   2
  18   5  -5-433.869 1651.38   3
  18   5  -5 2595.41 3743.82   2
  18   5  -2 675.237 1403.33   3
  18   5   1 1641.74 2365.98   3
  18   6  -3 1568.90 1329.85   3
  18   6   0 6950.97 2158.60   3
  18   7  -4 4970.73 1366.07   3
  18   7  -4 6286.06 3368.44   2
  18   8  -2 3304.98 1407.10   3
  18   8  -2 1680.22 4221.89   2
  18   9  -3 1147.47 1304.81   3
  18   9  -3-231.079 4656.10   2
  18   9   0 3597.27 2192.93   3
  18  10  -1 1854.51 1849.45   3
   8  19  -2 1494.46 1381.39   3
   8  19   1 2989.16 1768.38   3
   7  19  -3 1840.71 1447.74   3
 -26   7  -3 3001.66 1977.52   1
   7  19   0 2671.14 1636.06   3
   7  19   3 3929.54 2114.48   3
 -25   6  -4 2198.42 2225.88   1
   6  19  -4-1401.44 1716.61   3
   6  19  -1 9.75673 1497.33   3
   6  19   2 646.003 1981.57   3
  19 -24  -5 2517.85 2388.55   1
 -24   5  -5 2162.45 2261.72   1
   5  19  -2 1385.71 1597.18   3
   5  19   1 1774.92 1731.51   3
   5  19   4 1449.63 2320.93   3
  19 -23  -6-1003.45 2577.49   1
   4  19  -6 3473.92 2167.99   3
 -23   4  -6 2116.87 2065.91   1
  19 -23  -3 6488.25 2570.24   1
   4  19  -3 8768.36 1864.69   3
   4  19   3 11138.3 1990.59   3
   4  19   6 6977.68 2727.18   3
   3  19  -4 1269.81 2075.44   3
 -22   3  -4-1973.03 2278.33   1
   3  19   5 206.972 2575.87   3
   2  19  -5 923.255 2269.47   3
 -21   2  -5 12.2205 1859.77   1
   2  19  -2 1120.32 1846.76   3
   2  19   1 840.277 1663.61   3
   2  19   7-337.152 3308.79   3
  19 -20  -6 2969.77 2587.88   1
 -20   1  -6 6680.69 1778.15   1
   1  19  -3 34186.3 2642.23   3
  19 -20  -3 25283.3 3205.97   1
   1  19   0 5380.86 1696.86   3
   1  19   3 23609.4 2387.24   3
   1  19   6 9893.93 3007.43   3
  19 -19  -7-673.273 2474.59   1
   0  19  -7-1305.66 2523.96   3
 -19   0  -7 768.518 1746.20   1
  19 -19  -4-585.463 2796.11   1
 -19   0  -4-856.578 1850.06   1
   0  19  -4 1123.41 2460.02   3
   0  19  -1-1863.32 1761.83   3
   0  19   2 1176.01 1700.90   3
  19 -18  -8 240.741 1909.68   2
  19 -18  -8-5475.56 2537.35   1
 -18  -1  -8-59.5014 1818.46   1
  -1  19  -5 3267.72 2693.23   3
 -18  -1  -2 4068.01 1432.58   1
  -1  19  -2 5127.39 1885.35   3
  -1  19   1 5000.84 1938.84   3
  -1  19   4 237.907 2477.13   3
  -1  19   7 36.4729 2939.42   3
  19 -17  -6 10695.1 2615.35   1
  -2  19  -6 18600.4 2960.05   3
  19 -17  -3 9121.15 1768.87   2
  19 -17  -3 15798.0 3324.81   1
  -2  19  -3 19161.7 2298.47   3
 -17  -2  -3 15059.9 1653.84   1
  -2  19   0 12769.0 2051.48   3
  -2  19   3 7233.26 2436.39   3
  -2  19   6 8880.07 2991.51   3
  19 -16  -7-3179.14 2531.74   1
 -16  -3  -7-1047.39 1760.31   1
  19 -16  -4-1212.02 1685.73   2
  19 -16  -4-1925.51 2935.11   1
  -3  19  -4-11.7576 2085.46   3
 -16  -3  -4 459.786 1304.79   1
  -3  19  -1 3701.71 1944.16   3
  19 -16  -1 6037.78 2928.02   2
  -3  19   2 5669.81 2281.56   3
  -3  19   5 3191.60 2719.54   3
  -3  19   8 613.622 2372.79   3
  19 -15  -8 1911.09 1925.43   2
  19 -15  -8-3901.81 2602.58   1
 -15  -4  -8 1176.30 1643.72   1
 -15  -4  -8-1591.92 1782.16   2
 -15  -4  -5 192.932 1650.46   1
  19 -15  -5 1267.79 1925.97   2
  19 -15  -5 1302.64 2709.01   1
  -4  19  -5 2959.04 2314.90   3
  -4  19  -2 6926.45 2165.73   3
 -15  -4  -2 3614.37 1287.33   1
  19 -15  -2 4851.54 2569.86   2
  -4  19   1 16807.5 2459.91   3
  -4  19   4 1610.62 2426.63   3
  -4  19   7 5512.58 2494.17   3
  19 -14  -6 1014.55 1784.09   2
 -14  -5  -6 816.178 1713.81   1
  19 -14  -3 6183.11 2441.87   2
  -5  19  -3 7095.46 1856.13   3
 -14  -5  -3 5126.55 1270.10   1
  19 -14  -3 840.574 3365.86   1
  -5  19   0 6077.03 2337.03   3
  19 -14   0 10133.5 5648.36   2
  -5  19   3 8747.66 2668.37   3
  19 -13  -7 33.8350 2605.16   1
 -13  -6  -4 4663.02 1536.55   1
  19 -13  -4 2532.31 2916.90   1
  19 -13  -4 5550.38 1975.39   2
  -6  19  -4 6061.12 2062.82   3
  -6  19  -1 16095.9 2260.13   3
 -13  -6  -1 9831.13 1229.10   1
  19 -13  -1 15213.6 3153.39   2
  -6  19   2 4121.23 3017.31   3
  -6  19   5 12639.2 2796.41   3
  -6  19   8 9642.43 2611.34   3
  19 -12  -8 2231.80 2054.19   2
  19 -12  -8-1497.13 2707.18   1
 -12  -7  -8 1966.61 1994.10   1
 -12  -7  -8 1996.50 1756.27   2
  19 -12  -5 3407.05 1956.09   2
  19 -12  -5 5529.06 2969.44   1
 -12  -7  -5 3114.79 1761.87   1
  -7  19  -2 3423.48 2113.10   3
 -12  -7  -2 1857.24 1220.58   1
  19 -12  -2 3620.25 3284.58   2
  -7  19   1 16139.1 2937.48   3
  -7  19   4 2008.37 2814.42   3
  -7  19   7 11311.0 2402.47   3
  19 -11  -9 5770.83 2119.41   2
 -11  -8  -9 2363.31 2180.75   1
  19 -11  -9 164.065 2918.13   1
 -11  -8  -9 776.200 1767.60   2
  19 -11  -6 1699.27 2072.10   2
 -11  -8  -6-1382.81 1902.38   1
  -8  19  -3 13952.5 1867.47   3
  19 -11  -3 18623.0 2534.36   2
  -8  19   0 660.561 2598.66   3
 -11  -8   0 971.452 969.951   1
  19 -11   0 3734.74 3895.50   2
  -8  19   3 16640.3 3144.46   3
  -8  19   9 4804.01 2582.37   3
  19 -10  -7 9429.97 3004.30   1
  19 -10  -4-2367.56 3014.02   1
  19 -10  -4 3615.36 2191.51   2
 -10  -9  -4 573.593 1809.06   1
 -10  -9  -1 6226.69 1325.06   1
  -9  19  -1 6764.44 2228.80   3
  19 -10  -1 10462.9 2537.58   2
  -9  19   2 9670.41 3106.99   3
  -9  19   5 6439.52 2124.00   3
  -9  19   8 8269.61 2522.56   3
  -9 -10  -8 755.846 2453.45   1
  19  -9  -8 3066.03 2169.46   2
  19  -9  -8 664.639 2955.22   1
  -9 -10  -8-11.0544 1669.48   2
  19  -9  -5 17146.5 3296.32   1
  19  -9  -5 15211.5 2286.85   2
  -9 -10  -5 18124.2 2544.24   1
 -10  19  -2 5191.11 1968.71   3
  -9 -10  -2 3392.21 1704.39   1
  19  -9  -2 5475.69 2830.88   2
 -10  19   1 16361.1 2912.42   3
 -10  19   4 5510.62 2544.62   3
 -10  19   7 12582.9 2472.56   3
  19  -8  -9 1456.31 2090.95   2
  -8 -11  -9 3087.73 1848.97   2
  -8 -11  -9 6153.92 3035.99   1
  19  -8  -6 2011.98 3311.44   1
  19  -8  -6 3375.75 2173.44   2
  -8 -11  -6 3683.73 2199.93   1
  -8 -11  -6 1867.57 1546.58   2
  19  -8  -3 11766.2 2706.13   2
  -8 -11  -3 11324.2 1915.88   1
 -11  19   0 2114.01 2475.61   3
  19  -8   0 4281.11 3535.21   2
 -11  19   3 19308.6 2906.12   3
 -11  19   9 1769.05 2434.74   3
  19  -7  -7 8390.47 2178.66   2
  -7 -12  -7 5632.04 1723.61   2
  19  -7  -4 2912.06 2297.78   2
  -7 -12  -4 2624.75 1741.61   1
 -12  19  -1 9444.71 2363.95   3
  19  -7  -1 7166.90 2264.36   2
 -12  19   2 1068.40 2750.04   3
 -12  19   5 2062.29 2444.75   3
 -12  19   8 2047.62 2325.55   3
  19  -6  -8 2386.81 3262.07   1
  19  -6  -8 3226.65 2155.98   2
  -6 -13  -8 3196.49 1781.24   2
  -6 -13  -8 3926.42 2560.54   1
  -6 -13  -5 10777.0 1679.08   2
  -6 -13  -5 14828.4 2182.90   1
  19  -6  -2 4611.92 2602.03   2
 -13  19   1 16167.1 2502.30   3
 -13  19   4 6986.75 2552.56   3
 -13  19   7 96.2713 2524.26   3
  19  -5  -6 225.114 3366.45   1
  -5 -14  -6 3445.47 1713.80   2
  -5 -14  -6 5526.91 2317.48   1
  19  -5  -3 8288.87 2452.15   2
 -14  19   0 6303.14 2332.67   3
  19  -5   0 7390.72 3002.85   2
 -14  19   3 12938.0 2635.64   3
  19  -4  -7 1357.27 2147.90   2
  -4 -15  -7 2280.97 1901.04   2
  19  -4  -4 1461.12 2089.55   2
  19  -4  -1 10124.9 2238.35   2
 -15  19   2 7203.82 2534.55   3
 -15  19   5 3000.88 2781.22   3
 -15  19   8-2955.07 2436.43   3
  19  -3  -8-3442.04 3689.61   1
  19  -3  -8 15.3517 2244.07   2
  -3 -16  -8 2247.68 2330.97   1
  19  -3  -5 3292.99 2203.14   2
  19  -3  -2 3714.47 2016.91   2
 -16  19   1 8338.79 2237.77   3
 -16  19   4 423.132 2594.09   3
 -16  19   7-1412.60 2626.33   3
  19  -2  -6 4864.44 2542.12   2
  19  -2  -3 7093.20 2344.43   2
  19  -2   0 9300.95 1673.39   3
  19  -2   0 8644.52 2694.66   2
 -17  19   3 13304.9 2619.08   3
  19  -1  -7 1727.23 2471.54   2
  19  -1  -4 159.308 2473.70   2
  19  -1  -1 1288.67 1392.65   3
  19  -1  -1 3287.39 2484.13   2
 -18  19   2 4826.67 2344.00   3
 -18  19   5-875.498 2703.66   3
 -18  19   8 1551.95 2504.47   3
  19   0  -2 3657.54 1459.31   3
  19   0  -2 1920.37 2003.57   2
 -19  19   4-2688.56 2655.31   3
 -19  19   7-592.031 2724.41   3
  19   1  -6 9831.81 2825.60   2
  19   1  -3 27355.6 2003.74   3
  19   1  -3 21874.3 2653.21   2
  19   1   0 8577.73 1633.00   3
  19   1   0 7461.23 3023.59   2
 -20  19   3 20305.4 2769.47   3
 -20  19   6 6274.95 3007.07   3
  19   2  -7 558.996 2941.32   2
  19   2  -1 2763.44 1470.57   3
  19   2  -1 431.772 3387.59   2
  19   3  -5 779.210 1777.58   3
  19   3  -5-2301.40 3489.77   2
  19   3  -2 583.915 1552.76   3
 -22  19   4-630.010 2678.62   3
  19   4  -6 2407.83 1904.40   3
  19   4  -6 5307.78 3458.17   2
  19   4   0 8116.56 2177.15   3
  19   5  -4 1987.87 1617.87   3
  19   5  -4 593.722 2676.95   2
  19   6  -2 1543.78 1546.72   3
  19   6  -2 1463.00 4082.42   2
  19   7  -3 1980.87 1545.97   3
  19   7  -3 2852.22 4087.72   2
  19   8  -1 3971.44 1812.51   3
   7  20  -1 1154.20 1495.98   3
   7  20   2 1332.36 2010.31   3
   6  20  -2 1469.41 1541.40   3
   6  20   1 3094.72 1749.99   3
   5  20  -3 6091.87 1749.50   3
 -25   5  -3 6841.97 2168.51   1
   5  20   0 1616.41 1646.77   3
   5  20   3 6462.32 1952.65   3
   4  20  -4 2953.25 1870.67   3
 -24   4  -4-891.454 2379.99   1
   4  20  -1 526.588 1633.56   3
   4  20   2 2691.89 1995.69   3
   4  20   5 3660.98 2770.83   3
  20 -23  -5-808.876 2373.97   1
   3  20  -5 1401.39 2240.79   3
 -23   3  -5 14.0604 2084.16   1
   3  20  -2 4228.53 1807.28   3
   3  20   1 375.775 1746.30   3
   3  20   4 1433.01 2346.01   3
  20 -22  -6 12512.0 2627.20   1
 -22   2  -6 15715.2 2136.59   1
   2  20  -6 12462.4 2496.94   3
   2  20  -3 14965.0 2124.27   3
   2  20   3 13580.6 2200.99   3
   2  20   6 11087.2 2819.26   3
 -21   1  -4-2776.34 2129.88   1
   1  20   5 3944.47 2585.76   3
  20 -20  -5 16.5262 2608.22   1
 -20   0  -5 1082.68 1695.18   1
 -20   0  -2 2078.65 1711.50   1
   0  20  -2 3857.42 1928.36   3
   0  20   1 1153.17 1817.55   3
   0  20   4 1358.74 2467.94   3
   0  20   7-1489.26 2902.17   3
  20 -19  -6 8607.17 2623.26   1
 -19  -1  -6 9096.08 1894.39   1
  -1  20  -3 32409.7 2504.23   3
 -19  -1  -3 30682.2 2144.89   1
  -1  20   0 7875.46 1899.55   3
  -1  20   6 8383.92 2860.95   3
  20 -18  -7-2366.27 2680.51   1
 -18  -2  -7 112.468 1696.99   1
  20 -18  -4-5134.21 2958.32   1
  -2  20  -4-998.642 2240.24   3
 -18  -2  -4 17.6593 1482.11   1
  -2  20  -1 2265.17 1840.97   3
  -2  20   2-68.1040 1914.92   3
  -2  20   5 4097.81 2635.62   3
  20 -17  -5 2167.74 2044.51   2
  -3  20  -5 4706.67 2473.32   3
  -3  20  -2 4548.72 1890.02   3
 -17  -3  -2 224.234 1251.25   1
  -3  20   1 8456.15 1960.69   3
  -3  20   4 30.0451 2452.33   3
  -3  20   7 10138.8 2912.19   3
  20 -16  -6 3381.82 1842.98   2
  20 -16  -6 6806.94 2678.17   1
 -16  -4  -3 18561.4 1513.35   1
  20 -16  -3 15580.6 2088.70   2
  -4  20   0 4219.83 2178.30   3
  20 -16   0 11125.8 5622.99   2
  -4  20   3 10977.3 2544.85   3
  -4  20   6 7296.79 2824.15   3
  20 -15  -7 3020.87 1865.08   2
  20 -15  -7 1911.65 2616.48   1
 -15  -5  -7 3719.71 1763.78   1
  20 -15  -4-1584.50 3129.69   1
  20 -15  -4 60.9894 1840.98   2
 -15  -5  -4-2207.48 1372.30   1
  -5  20  -4 552.255 2137.70   3
  -5  20  -1 6432.65 2017.77   3
 -15  -5  -1 2637.70 972.793   1
  20 -15  -1 4739.34 2481.00   2
  -5  20   2 4476.94 2528.41   3
  -5  20   8 5874.95 2549.24   3
  20 -14  -8 6982.05 2192.16   2
  20 -14  -8 520.884 2676.59   1
 -14  -6  -8 6422.60 1863.13   1
 -14  -6  -8 3853.27 1794.68   2
  20 -14  -5 9908.05 2085.54   2
 -14  -6  -5 12216.1 1717.82   1
  -6  20  -2 2236.31 1924.69   3
 -14  -6  -2 1644.99 1236.11   1
  20 -14  -2 16.4066 2620.04   2
  -6  20   1 31032.7 2784.83   3
  -6  20   4 1534.91 2580.05   3
  -6  20   7 12292.2 2324.78   3
 -13  -7  -6 6048.57 1914.61   1
 -13  -7  -3 4673.58 1339.58   1
  -7  20  -3 5220.04 1844.59   3
  -7  20   0 10055.0 2416.06   3
 -13  -7   0 2705.68 878.312   1
  20 -13   0 8858.68 5506.84   2
  -7  20   3 11664.8 2774.58   3
  20 -12  -7 7465.84 2039.30   2
  20 -12  -7 5484.32 2915.98   1
 -12  -8  -7 10755.9 2178.38   1
 -12  -8  -7 5654.47 1727.30   2
  20 -12  -4-1388.67 2870.65   1
  20 -12  -4 2328.57 2307.29   2
  -8  20  -4 1821.35 1559.69   3
 -12  -8  -4 1957.76 1723.24   1
  -8  20  -1 14759.6 2310.70   3
 -12  -8  -1 5923.60 1159.96   1
  20 -12  -1 11746.8 2631.23   2
  -8  20   2 2672.30 3021.83   3
  -8  20   5 14424.1 2681.40   3
  -8  20   8 4614.45 2420.84   3
  20 -11  -8 6050.16 2052.43   2
  20 -11  -8 2766.14 2938.91   1
 -11  -9  -8 1770.84 2147.76   1
 -11  -9  -8 4647.46 1678.78   2
 -11  -9  -5 20887.3 2203.53   1
  20 -11  -5 15824.6 3186.13   1
  20 -11  -5 15021.5 2295.17   2
 -11  -9  -2 7609.07 1476.96   1
  -9  20  -2 6863.71 1879.48   3
  20 -11  -2 6905.19 3044.23   2
  -9  20   1 21601.7 3017.66   3
  -9  20   4 1919.71 2659.87   3
  -9  20   7 9104.44 2478.23   3
 -10 -10  -6 8284.97 2184.67   1
 -10 -10  -3-601.390 1785.57   1
  20 -10  -3 673.516 2455.94   2
 -10  20   0 13604.6 2967.68   3
  20 -10   0 12463.5 3871.93   2
 -10  20   3 395.755 2823.72   3
  20  -9  -7 5120.89 2195.25   2
  20  -9  -7 10699.4 3337.29   1
  20  -9  -4 3600.78 2353.33   2
  -9 -11  -4 5650.86 1891.41   1
 -11  20  -1 11867.1 2830.87   3
  20  -9  -1 11500.1 2512.01   2
 -11  20   2 3944.25 3136.94   3
 -11  20   5 16005.4 2394.45   3
 -11  20   8 32.9714 2431.83   3
  20  -8  -8 4584.86 2142.64   2
  20  -8  -8 3761.18 3082.54   1
  -8 -12  -8 1388.06 1700.40   2
  -8 -12  -8 1806.09 2757.21   1
  20  -8  -5 11674.5 2263.25   2
  -8 -12  -5 10659.8 2007.42   1
  20  -8  -2-1269.35 2577.32   2
 -12  20   1 13815.9 2780.95   3
 -12  20   4 1059.18 2267.56   3
 -12  20   7 8540.78 2504.42   3
  -7 -13  -6 8113.71 2653.97   1
  -7 -13  -6 4769.62 1543.98   2
  20  -7  -3 12816.6 2762.75   2
 -13  20   0 8676.36 2478.91   3
  20  -7   0 7393.86 3204.65   2
 -13  20   3 8853.26 2355.47   3
  20  -6  -7 2854.64 3764.97   1
  20  -6  -7 5186.07 2301.29   2
  20  -6  -4 1267.99 2201.30   2
 -14  20  -1 14156.6 2288.58   3
  20  -6  -1 18145.9 2429.29   2
 -14  20   2-248.887 2119.65   3
 -14  20   5 14620.4 2773.53   3
 -14  20   8-1049.98 2435.38   3
  20  -5  -8 1088.10 3822.13   1
  20  -5  -8 2319.34 2218.68   2
  -5 -15  -8 4728.00 2391.99   1
  -5 -15  -8 1692.25 1753.32   2
  20  -5  -2 5543.67 2016.23   2
 -15  20   1 4760.39 1978.01   3
 -15  20   4 2663.72 2417.42   3
 -15  20   7 2123.04 2688.32   3
  20  -4  -6 7238.48 2420.77   2
  20  -4  -3 8397.81 2272.78   2
 -16  20   0 5364.91 1972.63   3
  20  -4   0 3790.32 2639.39   2
 -16  20   3 29338.7 2777.67   3
 -16  20   6 5412.56 3012.37   3
  20  -3  -7 2924.29 2361.33   2
  20  -3  -4-293.398 2406.63   2
  20  -3  -1 3408.08 2126.51   2
 -17  20   2 3971.75 2192.13   3
  20  -2  -5 4227.06 2475.02   2
  20  -2  -2 33.3698 1682.07   2
 -18  20   1 4380.20 2164.95   3
 -18  20   4-1733.98 2658.96   3
 -18  20   7-1233.36 2712.96   3
  20  -1  -6 10362.6 2695.11   2
  20  -1  -3 13497.2 2339.35   2
  20  -1   0 5102.22 2589.37   2
 -19  20   3 20755.5 2767.01   3
 -19  20   6 2494.08 2770.85   3
  20   0  -7 370.662 2629.25   2
  20   0  -1-583.498 1530.95   3
  20   0  -1 338.981 2895.16   2
 -20  20   2 3820.79 2264.17   3
  20   1  -5-2640.44 2950.05   2
  20   1  -2 777.245 1728.65   3
 -21  20   4 1150.38 2772.69   3
  20   2  -6 6892.77 3257.34   2
  20   2  -3 9050.24 2336.36   2
  20   2   0 11512.8 1884.00   3
 -22  20   6 3897.18 2796.17   3
  20   3  -4-320.932 1728.40   3
  20   3  -4-974.860 2922.77   2
  20   3  -1 2667.23 1765.72   3
 -23  20   5-2507.38 2587.56   3
  20   4  -5 1214.65 1839.21   3
  20   4  -5 1313.24 3250.57   2
  20   4  -2 1705.36 3671.68   2
  20   5  -3 4626.40 1506.85   3
  20   5  -3 2332.65 3438.66   2
  20   6  -1 1279.95 1701.65   3
  20   7  -2 107.593 1406.03   3
  20   7  -2-83.5367 4150.86   2
   6  21   0 3461.09 1616.58   3
   5  21  -1-263.734 1587.89   3
   5  21   2 2216.40 1964.09   3
   4  21  -2 3205.66 1669.05   3
   4  21   4 3407.27 2334.66   3
   3  21  -3 4209.16 1952.99   3
 -24   3  -3 4558.53 2211.13   1
   3  21   0 9716.79 1788.38   3
   3  21   3 3109.44 1915.12   3
  21 -23  -4-3561.59 2505.83   1
 -23   2  -4 247.868 2345.82   1
   2  21  -4-810.228 2266.51   3
   2  21  -1 2482.47 1861.63   3
   2  21   2 2464.32 1823.54   3
   2  21   5 797.584 2501.29   3
  21 -22  -5-1564.69 3087.77   1
   1  21  -5 1051.33 2366.42   3
 -22   1  -5 1748.04 1881.06   1
   1  21  -2 3728.63 2021.48   3
   1  21   1 2179.53 1858.28   3
   1  21   4-793.638 2286.22   3
 -21   0  -6 24558.1 2169.80   1
  21 -21  -6 28276.6 2923.44   1
   0  21   3 486.648 2087.70   3
   0  21   6 9770.48 2749.88   3
  -1  21  -1 2261.09 2068.75   3
  -1  21   5 349.311 2537.75   3
  21 -19  -5 996.800 3046.18   1
 -19  -2  -5 682.683 1588.92   1
  -2  21  -2 474.674 1999.00   3
 -19  -2  -2-49.8917 1390.24   1
  -2  21   1 1884.09 1752.13   3
  -2  21   4 4262.88 2464.16   3
  -2  21   7 3598.11 2861.90   3
  21 -18  -6 15123.6 2982.75   1
 -18  -3  -6 6926.29 1706.84   1
 -18  -3  -3 3051.52 1438.75   1
  -3  21  -3 4610.23 2402.81   3
  -3  21   0 20493.5 2169.11   3
  -3  21   6 16978.3 2907.68   3
  21 -17  -7-460.931 1826.64   2
  21 -17  -7-1089.27 2587.18   1
 -17  -4  -7 43.8824 1848.85   1
  21 -17  -4 295.775 1720.42   2
 -17  -4  -4 1507.70 1386.24   1
  -4  21  -4 3503.56 2452.94   3
 -17  -4  -1-152.714 1068.11   1
  -4  21  -1 2861.28 1869.43   3
  -4  21   2-1133.84 2312.49   3
  -4  21   5 1354.96 2693.52   3
  21 -16  -5-580.448 2059.41   2
  21 -16  -5-843.610 3009.47   1
  -5  21  -5 1988.64 2318.90   3
 -16  -5  -2 4816.63 1283.65   1
  -5  21  -2 8995.12 1982.31   3
  21 -16  -2 3705.98 2445.44   2
  -5  21   1 6722.23 2203.97   3
  -5  21   7 525.017 2361.86   3
  21 -15  -6 6178.20 2978.98   1
 -15  -6  -3 638.295 1186.55   1
  -6  21  -3 392.411 1898.24   3
  21 -15  -3 2149.91 2177.52   2
  -6  21   0 25580.1 2346.35   3
  21 -15   0 31905.9 5570.17   2
  -6  21   3 4281.72 2465.58   3
  -6  21   6 12828.2 2850.96   3
  21 -14  -7-531.769 2054.82   2
  21 -14  -7 207.402 2784.07   1
 -14  -7  -7 1984.38 1841.42   1
  21 -14  -4 2505.45 2120.97   2
  -7  21  -4 2866.20 1819.27   3
 -14  -7  -4-744.079 1530.47   1
  21 -14  -4-1398.26 3117.20   1
 -14  -7  -1-844.462 1030.92   1
  -7  21  -1 698.411 2117.51   3
  21 -14  -1 16.5053 2524.61   2
  -7  21   2 15284.0 2866.38   3
  -7  21   8 2199.87 2480.36   3
  21 -13  -8 8533.83 2127.43   2
  21 -13  -8 9550.61 2876.80   1
 -13  -8  -8 11752.1 2133.06   1
 -13  -8  -8 7124.63 1751.54   2
  21 -13  -5 3722.31 2236.13   2
 -13  -8  -5 4172.76 1864.93   1
  -8  21  -2 18162.7 2034.94   3
 -13  -8  -2 11548.4 1304.43   1
  -8  21   1 5801.40 2633.17   3
  -8  21   4 5832.43 2828.98   3
  -8  21   7 2563.38 2365.46   3
  21 -12  -6 4657.92 3207.91   1
  -9  21  -3 2984.81 1859.36   3
 -12  -9  -3 607.657 1547.78   1
  21 -12  -3 3946.41 2452.79   2
  -9  21   0 3508.43 2466.96   3
  21 -12   0 8628.77 4362.67   2
  -9  21   3 5517.26 2733.55   3
  -9  21   6 2425.67 2288.05   3
  21 -11  -7 809.252 2053.67   2
  21 -11  -7 278.164 3332.17   1
 -11 -10  -7 3857.49 2265.90   1
 -11 -10  -7 201.403 1727.20   2
  21 -11  -4 12095.0 2319.25   2
 -11 -10  -4 6645.31 1886.60   1
 -10  21  -1-1486.60 2093.18   3
  21 -11  -1 2723.67 2654.68   2
 -10  21   2 5062.28 2637.40   3
 -10  21   8 8697.65 2497.91   3
 -10 -11  -8 6974.94 2630.36   1
  21 -10  -8 8121.36 2096.39   2
  21 -10  -8 8767.53 3265.84   1
 -10 -11  -8 5206.62 1683.41   2
 -10 -11  -5 900.175 2203.50   1
 -11  21  -2 5481.28 1991.57   3
  21 -10  -2 7361.02 2635.00   2
 -11  21   1 2304.35 2547.91   3
 -11  21   4 15199.2 2770.39   3
 -11  21   7 673.766 2421.89   3
  21  -9  -6 1342.52 3313.52   1
  21  -9  -6 4797.88 2310.30   2
  -9 -12  -6 5757.46 2440.89   1
  -9 -12  -6 2757.47 1555.85   2
  21  -9  -3 7690.11 2569.99   2
 -12  21   0 10261.4 2450.44   3
  21  -9   0 12655.3 3532.32   2
 -12  21   3 2528.87 2440.82   3
 -12  21   6 10697.5 2568.76   3
  21  -8  -7-2868.82 3493.90   1
  21  -8  -7-1074.77 2292.58   2
  21  -8  -4 8147.34 2394.42   2
 -13  21  -1 2317.23 2162.96   3
  21  -8  -1 3653.82 2153.26   2
 -13  21   2 21195.6 2782.47   3
 -13  21   8 3633.25 2532.88   3
  21  -7  -8 4500.07 3412.02   1
  21  -7  -8 1049.63 2112.68   2
  -7 -14  -8 501.432 1722.81   2
  -7 -14  -8 4259.80 2918.33   1
  -7 -14  -5 1394.57 1408.47   2
  21  -7  -2 9762.25 2305.05   2
 -14  21   1 1292.72 2451.34   3
 -14  21   4 10225.9 2629.80   3
 -14  21   7 254.836 2609.30   3
  21  -6  -6 11791.1 2434.39   2
  -6 -15  -6 16734.1 2734.12   1
  21  -6  -3-75.0349 2343.41   2
 -15  21   0 19180.6 2295.87   3
  21  -6   0 26459.1 3065.96   2
 -15  21   3 4690.91 2444.24   3
 -15  21   6 13341.7 2895.35   3
  21  -5  -7 1027.94 2337.62   2
  21  -5  -1 5559.01 2121.54   2
 -16  21   2 7103.06 2319.61   3
  21  -4  -5 1383.10 2342.38   2
  21  -4  -2 210.750 1635.26   2
 -17  21   1 3950.45 2142.04   3
 -17  21   4 4020.23 2823.57   3
 -17  21   7-100.262 2664.00   3
  21  -3  -6 16011.9 2612.94   2
  21  -3   0 19485.7 2762.71   2
 -18  21   3 2497.72 3161.11   3
 -18  21   6 11590.9 3018.11   3
  21  -2  -7 3619.09 2504.14   2
  21  -2  -4 1119.89 2582.61   2
  21  -2  -1 1128.27 1594.36   3
  21  -2  -1-228.722 2494.84   2
 -19  21   2 615.750 2538.02   3
  21  -1  -5 129.580 2959.75   2
  21  -1  -2 2365.99 1766.09   3
  21   0  -6 12920.4 3093.65   2
  21   0  -3 4738.41 2032.65   2
 -21  21   3 1268.59 2665.83   3
 -21  21   6 24834.1 3113.10   3
  21   1  -4 2260.94 1984.87   3
  21   1  -4 797.694 2572.50   2
  21   1  -1 1468.05 1701.18   3
 -22  21   5 1454.63 2666.13   3
  21   2  -5 1972.33 1943.63   3
  21   2  -2 1949.30 3190.44   2
  21   3  -3 2748.92 1938.28   3
  21   3  -3 2562.90 2812.52   2
  21   4  -4 2178.10 1777.77   3
  21   4  -4 1742.14 2715.92   2
  21   5  -2 2277.81 1718.67   3
  21   5  -2 630.595 4075.80   2
   4  22   0 855.964 1704.05   3
   3  22  -1 324.936 1701.66   3
   3  22   2 2467.76 1795.86   3
   2  22  -2 597.485 1895.82   3
 -24   2  -2-1699.22 2174.08   1
   2  22   1 11.6638 1793.32   3
   2  22   4-725.914 2240.70   3
   1  22  -3 20252.4 2467.31   3
 -23   1  -3 18387.1 2367.47   1
   1  22   0 7052.40 1971.20   3
   1  22   3 12360.1 2104.48   3
  22 -22  -4-4259.41 2850.21   1
 -22   0  -4-2055.96 1873.71   1
   0  22  -4 146.314 2386.07   3
   0  22  -1 1897.71 1900.71   3
   0  22   2 2369.75 1876.67   3
   0  22   5 1726.38 2448.15   3
  22 -21  -5 1934.99 2769.59   1
 -21  -1  -5 842.761 1621.05   1
  -1  22  -5 860.961 2638.23   3
  -1  22   1 1740.98 1954.98   3
  -1  22   4 2216.69 2349.79   3
  22 -20  -6 13667.3 2927.54   1
 -20  -2  -6 14919.6 2072.33   1
  -2  22  -6 11741.5 2845.97   3
  -2  22   3 8521.26 2359.28   3
  -2  22   6 9015.07 2814.06   3
  22 -19  -4-4321.90 3064.19   1
  -3  22  -1 2152.94 1968.16   3
 -19  -3  -1 1202.67 1315.28   1
  -3  22   5 2261.69 2557.30   3
  22 -18  -5-785.971 3187.47   1
 -18  -4  -5 2317.98 1590.92   1
  -4  22  -2 2229.84 2065.12   3
 -18  -4  -2 282.270 1271.93   1
  -4  22   1 5602.07 2022.54   3
  -4  22   4 10967.1 2630.76   3
  22 -17  -6 3276.30 2985.01   1
 -17  -5  -6 500.946 1678.71   1
  -5  22  -3 12489.5 2194.50   3
 -17  -5  -3 7520.89 1331.70   1
  22 -17  -3 11776.4 2541.35   2
  -5  22   0 7774.77 2036.59   3
  -5  22   6 9348.82 2862.60   3
  22 -16  -7 3587.91 1936.49   2
  22 -16  -7 4346.17 2729.72   1
 -16  -6  -7 1886.91 1710.67   1
  22 -16  -4-53.2859 2025.47   2
 -16  -6  -4 426.118 1473.03   1
  -6  22  -4 977.703 2058.06   3
  -6  22  -1 5433.73 2075.44   3
 -16  -6  -1 1211.70 1019.13   1
  22 -16  -1 2036.79 2737.80   2
  -6  22   2 1202.99 2522.65   3
  -6  22   5 5932.29 2867.17   3
  22 -15  -5 960.097 3134.17   1
  -7  22  -2 8363.85 2409.90   3
 -15  -7  -2 3851.89 1202.39   1
  22 -15  -2 4860.60 2621.38   2
  -7  22   1 1011.40 2499.27   3
  -7  22   7 3188.32 2298.32   3
  22 -14  -6-2324.23 2980.94   1
  22 -14  -6 1285.95 2195.41   2
 -14  -8  -3 3732.72 1607.06   1
  -8  22  -3 7665.94 1923.53   3
  22 -14  -3 7887.66 2612.18   2
  -8  22   0-577.223 2216.95   3
  22 -14   0-1587.10 4751.58   2
  -8  22   3 1489.12 2664.69   3
  -8  22   6 3881.46 2429.96   3
  22 -13  -7 7387.08 2309.41   2
  22 -13  -7 9531.49 3295.61   1
 -13  -9  -7 8514.64 2186.58   1
  22 -13  -4 3268.39 2379.41   2
 -13  -9  -4 4727.54 1846.81   1
  -9  22  -1 8713.61 2172.38   3
  22 -13  -1 6507.35 2987.83   2
  -9  22   2 8164.57 2702.30   3
  -9  22   5 11495.4 2789.68   3
 -12 -10  -5 17824.5 2628.25   1
 -10  22  -2 5072.06 1868.38   3
  22 -12  -2 6693.19 2744.98   2
 -10  22   1 17738.5 2697.34   3
 -10  22   7 8947.51 2595.30   3
  22 -11  -6-879.342 3368.96   1
  22 -11  -6 1649.02 2394.73   2
  22 -11  -3 4077.25 2860.63   2
 -11  22   0 4358.06 2362.53   3
  22 -11   0-1176.40 3632.39   2
 -11  22   3 4658.57 2810.58   3
 -11  22   6 4978.83 2484.52   3
  22 -10  -7 5007.21 3361.25   1
  22 -10  -7 4627.24 2266.87   2
 -10 -12  -7 2829.98 2592.06   1
 -10 -12  -7 2599.62 1527.43   2
  22 -10  -4 5454.93 2718.97   2
 -12  22  -1 11519.2 2361.00   3
  22 -10  -1 6265.31 2485.62   2
 -12  22   2 7190.62 2680.59   3
  22  -9  -2 4725.58 2259.52   2
 -13  22   1 11829.7 2939.84   3
 -13  22   4 11560.0 2709.96   3
 -13  22   7 11176.7 2615.25   3
  22  -8  -6 3295.03 2296.11   2
  -8 -14  -6 2409.71 2788.60   1
  -8 -14  -6 1049.18 1512.94   2
  22  -8  -3-1348.51 2624.31   2
 -14  22   0 686.941 2465.22   3
  22  -8   0-771.592 2912.09   2
 -14  22   3 8884.80 2322.67   3
 -14  22   6 6500.12 2739.78   3
  22  -7  -7 3956.36 2337.93   2
  -7 -15  -7 8001.38 2805.20   1
  22  -7  -1 1016.78 2288.71   2
 -15  22   2 7616.28 2263.53   3
  22  -6  -5 1911.74 2395.45   2
  22  -6  -2 1242.38 1785.98   2
 -16  22   1 2646.69 1878.63   3
 -16  22   4 3506.64 2651.60   3
 -16  22   7 4207.71 2673.87   3
  22  -5  -6 5653.32 2426.66   2
  22  -5   0 3469.26 2530.60   2
 -17  22   3 15636.7 2697.66   3
 -17  22   6 4936.07 2776.79   3
  22  -4  -4 2485.59 2566.51   2
  22  -4  -1 16.2464 2380.28   2
 -18  22   2 6656.52 2396.51   3
 -18  22   5 1394.63 3089.34   3
  22  -3  -5-267.274 2607.99   2
  22  -2  -6 4164.57 2692.17   2
  22  -2  -3 7585.73 2141.51   2
 -20  22   3 16445.8 3436.84   3
 -20  22   6 8967.51 3012.26   3
  22  -1  -4-618.495 2511.73   2
  22  -1  -1-1838.24 2818.81   2
 -21  22   5-70.1929 2802.39   3
  22   0  -5-1853.26 2845.19   2
  22   0  -2 1138.86 1801.44   3
  22   0  -2 952.019 2703.40   2
  22   1  -3 19253.3 2109.94   3
  22   1  -3 13598.4 2602.26   2
  22   2  -4 509.725 2020.98   3
  22   2  -4-183.031 2282.06   2
  22   2  -1-315.852 3154.02   2
  22   3  -2 3283.66 1777.04   3
  22   3  -2-831.344 3533.57   2
   3  23   1 72.0870 1843.71   3
   2  23   0 1250.67 1806.39   3
   1  23  -1 334.705 1849.33   3
   1  23   2 1467.68 1816.22   3
 -23   0  -2-22.1423 1855.65   1
   0  23  -2 5123.43 2111.38   3
   0  23   1 2097.76 1849.67   3
   0  23   4 2272.58 2251.48   3
  -1  23  -3 20631.6 2572.18   3
 -22  -1  -3 15573.5 2046.50   1
  -1  23   0 7570.73 1999.35   3
  -1  23   3 13056.3 2317.32   3
  -2  23  -4 1703.12 2607.74   3
 -21  -2  -4-527.863 1827.21   1
  -2  23  -1-11.8846 2007.14   3
  -2  23   2 2180.52 2033.03   3
  -2  23   5 302.320 2355.87   3
  23 -20  -5-3454.08 3024.53   1
 -20  -3  -5 2159.88 1565.49   1
  -3  23  -5 3380.57 2914.19   3
 -20  -3  -2 2134.26 1528.10   1
  -3  23   1 4202.47 1988.23   3
  -3  23   4 302.264 2340.82   3
  23 -19  -6 4296.58 2865.11   1
 -19  -4  -6 575.819 1716.48   1
  -4  23   3 11004.7 2476.25   3
  -4  23   6 1308.81 2674.45   3
 -18  -5  -1 619.832 1053.23   1
  -5  23  -1 1093.90 2082.94   3
  -5  23   5-997.966 2576.65   3
  23 -17  -5-1946.21 3102.60   1
 -17  -6  -5 1396.12 1560.67   1
  -6  23  -2 2031.30 2178.65   3
  23 -17  -2 1454.90 2287.61   2
 -17  -6  -2-274.001 1105.94   1
  -6  23   1 7153.38 2372.54   3
  -6  23   4 1784.68 2593.21   3
  23 -16  -6 1720.58 3001.12   1
  23 -16  -6 4901.72 2093.09   2
 -16  -7  -6 3746.87 1786.45   1
 -16  -7  -3 2426.13 1245.88   1
  -7  23  -3 3569.01 2104.38   3
  23 -16  -3 7158.30 2640.86   2
  -7  23   0 5374.40 2128.46   3
  23 -16   0 7879.03 6164.14   2
  -7  23   6 2705.69 2611.43   3
  23 -15  -7-425.200 2334.39   2
  23 -15  -7 21.9480 3007.17   1
 -15  -8  -7 1530.22 1826.36   1
  23 -15  -4 681.018 2403.30   2
 -15  -8  -4-1890.62 1518.09   1
  -8  23  -1 6499.09 2081.70   3
  23 -15  -1 5626.73 3327.62   2
  -8  23   2 6767.70 2837.94   3
  -8  23   5 7035.59 2881.54   3
  -9  23  -2 2390.49 2041.59   3
  23 -14  -2 4551.83 2563.85   2
  -9  23   1 18653.7 2896.47   3
  -9  23   7 5044.73 2466.36   3
  23 -13  -6-1915.31 3177.50   1
  23 -13  -6 3830.04 2416.46   2
  23 -13  -3 2600.62 2821.78   2
 -10  23   0-407.642 2489.01   3
  23 -13   0 1840.36 4361.48   2
 -10  23   3 3558.42 2868.68   3
 -10  23   6 1424.37 2304.62   3
  23 -12  -7 6152.28 3398.03   1
  23 -12  -7 6164.09 2345.92   2
 -12 -11  -7 7873.85 2446.04   1
 -12 -11  -7 4315.31 1692.57   2
 -11  23  -1 4399.94 2336.68   3
  23 -12  -1 5093.16 2897.54   2
 -11  23   2 3342.06 2993.64   3
 -11  23   5 7908.28 2370.46   3
  23 -11  -5 12261.4 2635.52   2
 -11 -12  -5 12397.1 2460.96   1
  23 -11  -2 6282.32 2704.35   2
 -12  23   1 7363.99 2662.34   3
 -12  23   7 11631.0 2637.34   3
  23 -10  -6 4525.09 2319.96   2
  23 -10  -3-884.301 2822.74   2
 -13  23   0 3224.24 2464.68   3
  23 -10   0 513.575 3571.16   2
 -13  23   3 5143.40 2585.54   3
 -13  23   6 8003.90 2771.46   3
  23  -9  -7 7928.61 2331.81   2
  -9 -14  -7 4371.48 1590.03   2
  -9 -14  -7 8835.89 2909.60   1
  23  -9  -1 14933.2 2802.71   2
 -14  23   2 1197.55 2502.20   3
 -14  23   5 10135.1 2923.78   3
  23  -8  -5 4669.59 2655.91   2
  23  -8  -2 1567.46 1945.79   2
 -15  23   1 5778.50 2457.45   3
 -15  23   7 2303.94 2829.87   3
  23  -7  -6 7199.20 2448.80   2
  23  -7   0 3951.30 2775.70   2
 -16  23   3 9367.90 2633.85   3
 -16  23   6 6273.48 2908.91   3
  23  -6  -4 1745.46 2590.76   2
 -17  23   2 4167.64 2513.79   3
 -17  23   5 2252.83 2773.71   3
  23  -5  -5 53.5886 2437.88   2
  23  -4  -6 4632.06 2583.25   2
  23  -4  -3 7391.15 1995.13   2
 -19  23   3 10794.8 2858.44   3
 -19  23   6 1650.00 2895.79   3
  23  -3  -4-1783.24 2500.17   2
  23  -3  -1-17.6112 2606.55   2
 -20  23   5 479.913 2748.83   3
  23  -2  -5-248.801 2787.34   2
  23  -2  -2 814.158 1911.58   3
  23  -2  -2 113.601 2389.45   2
  23  -1  -3 9299.96 2222.09   2
  23   0  -4 1544.65 2059.64   3
  23   0  -4 1062.47 2146.23   2
  23   0  -1-3696.94 3053.82   2
  23   1  -2 182.336 1816.98   3
  23   1  -2-1503.44 3072.59   2
   1  24   1 1220.14 1841.82   3
 -24   0  -3 2690.95 2121.35   1
   0  24   0 7075.39 2024.46   3
   0  24   3 1745.09 2085.69   3
  -1  24  -1 150.215 2074.97   3
 -23  -1  -1 3422.33 1814.44   1
  -1  24   2 1299.66 1879.65   3
  -2  24  -2 2161.25 2203.43   3
 -22  -2  -2-202.718 1623.39   1
  -2  24   1 1763.55 1788.32   3
  -2  24   4 2030.09 2254.87   3
 -21  -3  -3 2940.57 1518.93   1
  -3  24  -3 3697.17 2355.91   3
  -3  24   0 12329.8 2116.70   3
  -3  24   3 2103.20 2245.29   3
 -20  -4  -4-86.3570 1368.81   1
  -4  24  -4 899.769 2644.68   3
  -4  24  -1 1902.90 2185.06   3
 -20  -4  -1 635.715 1338.04   1
  -4  24   2 55.0177 2407.95   3
  -4  24   5 428.366 2482.08   3
 -19  -5  -5 904.275 1652.46   1
 -19  -5  -2 1448.07 1270.93   1
  -5  24   1 869.470 2148.45   3
  -5  24   4 1770.13 2436.38   3
 -18  -6  -3 790.401 1270.17   1
  -6  24   3 4475.70 2532.45   3
  -7  24  -1 3955.42 2150.09   3
  -7  24   5 1187.49 2740.17   3
  24 -16  -5 3126.53 2133.42   2
  -8  24  -2 6773.02 2171.23   3
  24 -16  -2 6960.18 2473.07   2
  -8  24   4 10147.7 2900.85   3
  24 -15  -6-2355.80 3114.54   1
  24 -15  -6 915.365 2247.86   2
 -15  -9  -6 2060.29 1790.87   1
  24 -15  -3 2308.34 2924.41   2
  -9  24   0 1494.33 2698.82   3
  24 -15   0 5360.10 5051.79   2
  -9  24   6 2050.25 2311.10   3
 -10  24  -1-1172.76 2664.29   3
  24 -14  -1 21.6010 3269.43   2
 -10  24   5 2322.32 2775.82   3
  24 -13  -5 3466.22 2446.75   2
  24 -13  -2 7757.23 2538.18   2
 -11  24   1 11782.5 3029.36   3
 -11  24   4 10870.7 3000.57   3
  24 -12  -6 4350.25 2347.89   2
 -12 -12  -6 801.564 2236.61   1
 -12  24   0 4222.48 2624.48   3
  24 -12   0 2804.78 3918.50   2
 -12  24   6 2355.78 2600.73   3
  24 -11  -4 5305.46 2829.77   2
 -13  24  -1 11011.3 2716.74   3
  24 -11  -1 8777.95 3149.00   2
 -13  24   2 8560.46 2899.71   3
 -13  24   5 4114.47 2514.31   3
  24 -10  -5 2550.83 2563.10   2
 -14  24   1 2051.12 2668.74   3
 -14  24   4 7747.00 2530.50   3
  24  -9  -6 10241.7 2600.96   2
  24  -9  -3-692.997 2781.62   2
 -15  24   0 4896.98 2530.00   3
 -15  24   6 5012.45 2764.79   3
  24  -8  -4 5989.96 2712.47   2
 -16  24   2 4045.24 2340.77   3
 -16  24   5 5405.16 2755.14   3
  24  -7  -5 1127.90 2622.69   2
  24  -7  -2 667.600 2059.71   2
 -17  24   1 347.221 2263.75   3
 -17  24   4 11692.7 2813.95   3
  24  -6  -3 414.132 2122.41   2
  24  -6   0 4873.84 2627.39   2
  24  -5  -4 102.994 2375.51   2
  24  -5  -1 3698.58 2664.68   2
 -19  24   5 972.247 2986.11   3
  24  -4  -5-567.817 2681.86   2
  24  -4  -2-1762.04 2256.86   2
 -20  24   4 1519.93 2786.54   3
  24  -3  -3 13.6412 1872.16   2
  24  -2  -4-377.208 2131.11   2
  24  -2  -1-921.251 2668.24   2
  24  -1  -2 2655.08 2756.41   2
  24   0  -3 905.360 2089.50   3
  24   0  -3 1808.31 2465.40   2
  -1  25   1 341.414 1812.86   3
  -2  25   0 4353.36 2040.13   3
  -3  25  -1 1311.24 2213.04   3
  -3  25   2-1059.20 2065.47   3
  -4  25  -2 2262.29 2282.10   3
  -4  25   1 2347.21 2040.07   3
  -4  25   4 4245.01 2342.99   3
  -5  25  -3 9192.26 2583.42   3
 -20  -5  -3 3206.00 1312.63   1
  -5  25   0 4008.27 2058.65   3
  -5  25   3 5198.26 2303.98   3
 -19  -6  -4 910.723 1396.33   1
  -6  25  -4 14.0704 2415.58   3
  -6  25  -1 3707.50 2137.73   3
  -6  25   2 59.1635 2434.83   3
  25 -18  -5 568.575 2407.98   2
 -18  -7  -5-1179.75 1548.44   1
  -7  25   1-466.798 2488.26   3
  -7  25   4 5278.77 2665.73   3
  -8  25   3 8284.99 2691.25   3
  -9  25  -1 4247.81 2329.13   3
  25 -16  -1 9785.01 4258.17   2
  -9  25   2 3781.47 2629.17   3
  -9  25   5 9293.04 2815.66   3
  25 -15  -5 2447.61 2405.70   2
 -10  25  -2 8473.97 2212.45   3
  25 -15  -2 5104.71 2468.05   2
 -10  25   4 12135.7 2965.87   3
 -11  25   0 2085.66 2664.71   3
  25 -14   0 1989.79 4822.49   2
 -11  25   3 2101.43 2885.20   3
  25 -13  -4 2209.37 2957.44   2
 -12  25  -1 13106.8 2657.75   3
 -12  25   5 2896.60 2374.88   3
  25 -12  -5 7019.89 2606.38   2
 -13  25   1 11438.0 3000.36   3
 -13  25   4 1987.33 2463.93   3
  25 -11  -3 4109.97 2583.12   2
 -14  25   0 1193.14 2652.81   3
  25 -10  -4 8113.46 2885.83   2
 -15  25   5 4645.09 2842.57   3
  25  -9  -5 6757.66 2867.72   2
  25  -9  -2-302.688 2431.33   2
 -16  25   1 5311.06 2579.69   3
 -16  25   4 6857.78 2673.44   3
  25  -8  -3 4487.51 2296.67   2
  25  -8   0 2847.04 2911.10   2
  25  -7  -4 2651.40 2562.02   2
  25  -7  -1-892.537 2928.36   2
 -18  25   2 16187.7 2826.81   3
 -18  25   5 5881.29 2925.31   3
  25  -6  -2 965.026 2244.24   2
 -19  25   4 2191.37 2886.80   3
  25  -5  -3 27.5343 1963.90   2
  25  -4  -4 939.942 2177.83   2
  25  -4  -1-3050.00 2557.57   2
  25  -3  -2 937.142 2545.71   2
  25  -1  -1-2178.16 2676.84   2
  -3  26   1 356.390 1951.06   3
  -5  26  -1-153.875 2064.53   3
  -5  26   2 2806.58 2413.79   3
  -6  26  -2 275.301 2477.56   3
  -6  26   1 326.280 2257.82   3
  -7  26  -3 4000.31 2399.55   3
  -7  26   0-80.6297 2252.39   3
  -7  26   3 6167.55 2525.57   3
  -8  26  -1 941.831 2359.08   3
  -8  26   2 6586.92 2490.88   3
  -9  26   1 9410.93 2615.54   3
  -9  26   4 245.018 2785.00   3
  26 -16  -3 829.529 2641.21   2
  26 -16   0-1784.70 4884.12   2
 -10  26   3 855.626 2749.76   3
  26 -15  -4 6521.77 3006.55   2
 -11  26   2 848.443 2740.79   3
  26 -14  -5 4927.02 2876.15   2
 -12  26   4 8390.82 2977.13   3
  26 -13  -3-1920.04 2616.18   2
 -13  26   0 2524.99 2663.21   3
 -13  26   3 1684.14 2905.47   3
  26 -12  -4 1938.56 2790.47   2
  26 -12  -1 8981.69 3862.98   2
 -14  26   5 5402.05 2680.35   3
  26 -11  -2 1295.33 2635.21   2
 -15  26   4 4778.37 2571.95   3
  26 -10  -3 3282.51 2284.81   2
  26 -10   0-1872.82 3376.49   2
 -16  26   3 891.269 2432.12   3
  26  -9  -4-601.375 2551.11   2
  26  -9  -1 2881.95 3116.34   2
  26  -8  -2 2990.12 2422.11   2
 -18  26   4 6384.34 2835.06   3
  26  -7  -3 42.9380 2013.73   2
 -19  26   3 6343.70 2770.28   3
  26  -6  -1 1037.50 2657.75   2
  26  -5  -2-2398.98 2486.21   2
  26  -3  -1 18.4810 2544.05   2
  -6  27   0 4024.59 2408.70   3
  -7  27  -1 4368.05 2301.12   3
  -7  27   2 2554.67 2396.94   3
  -8  27  -2 6052.09 2344.96   3
  -8  27   1 4598.89 2455.53   3
  -9  27   0 743.757 2561.65   3
  -9  27   3 2710.55 2608.87   3
 -10  27  -1-613.231 2544.54   3
 -10  27   2 3308.35 2663.64   3
  27 -16  -2 5922.65 3066.65   2
 -11  27   1 2418.80 2598.26   3
  27 -15  -3 248.488 2562.97   2
 -12  27   3 2273.87 2846.05   3
  27 -14  -4 4805.12 2896.84   2
  27 -14  -1 2490.50 4699.10   2
 -13  27   2 4202.20 2848.89   3
  27 -13  -2 2207.35 2879.71   2
  27 -12  -3-988.183 2263.80   2
 -15  27   3 118.898 2465.55   3
  27 -11  -1 2730.43 3408.12   2
 -16  27   2 8312.99 2647.35   3
  27 -10  -2-129.050 2681.62   2
  27  -9  -3-1488.10 2114.98   2
 -18  27   3 6260.39 3009.52   3
  27  -8  -1 1765.15 2962.68   2
  27  -7  -2-505.579 2775.02   2
 -10  28   1 759.968 2527.12   3
 -11  28   0 4826.26 2605.39   3
  28 -16  -1-993.606 4140.82   2
 -12  28   2 360.759 2869.73   3
  28 -15  -2 3138.91 3327.92   2
 -13  28   1 2917.29 2733.73   3
  28 -13  -1-237.311 3858.18   2
 -15  28   2 4236.91 2939.05   3
  28 -12  -2-106.069 3028.34   2
  28 -10  -1-2046.52 3254.27   2
   0   0   0    0.00    0.00   0

TITL ZnAlaPyr_26_0 in R3
REM R3 (#146 in standard setting)
CELL 0.68890  24.034805  24.034805  10.225098  90.0000  90.0000 120.0000
ZERR   18.00   0.002640   0.002640   0.000466   0.0000   0.0000   0.0000
LATT -3
SYMM -y, x-y, z
SYMM -x+y,-x, z
SFAC C H N O Zn
UNIT 126.00 126.00 54.00 54.00 18.00
TREF
HKLF 4
END
;
_shelx_hkl_checksum              33043
_shelx_fab_file
;
-20 -1 -1 14.3673 3.5291
-19 -3 -1 -0.0267 7.6702
-19 -2 -2 -3.3399 -1.6051
-19 -2 1 -5.9467 -6.4079
-19 -1 -3 -7.7053 -2.1101
-19 -1 0 -3.8762 11.2596
-18 -4 -2 -3.7131 4.5669
-18 -4 1 0.6128 -1.6470
-18 -3 -3 -0.9990 3.5701
-18 -3 0 -6.1394 4.9177
-18 -2 -4 -0.2739 -0.8319
-18 -2 -1 -0.5885 -4.6200
-18 -2 2 -9.4339 1.0006
-18 -1 -2 5.5798 -3.6455
-18 -1 1 -9.2452 -7.3533
-18 -1 4 7.9582 4.7117
-17 -6 1 -7.1870 -4.5154
-17 -5 0 -5.1949 8.1831
-17 -4 -1 -0.2616 -6.5928
-17 -4 2 -2.3816 3.3280
-17 -3 -2 -3.8073 -0.5680
-17 -3 1 1.8621 2.4326
-17 -3 4 6.9021 -1.3229
-17 -2 -3 -3.7027 -1.0172
-17 -2 0 7.4803 2.2042
-17 -2 3 -6.5238 3.7828
-17 -1 -4 -1.9723 0.5038
-17 -1 -1 -7.7932 1.7047
-17 -1 2 -2.0283 0.4156
-17 -1 5 -2.7801 3.9623
-16 -7 0 1.4261 6.8612
-16 -6 -1 -0.6250 -0.7647
-16 -6 2 -3.4406 -1.9858
-16 -5 -2 -1.4614 2.1582
-16 -5 1 -3.8246 -5.5313
-16 -4 -3 -0.2293 0.8299
-16 -4 0 -0.6389 6.2486
-16 -4 3 -5.6412 2.1437
-16 -3 -4 -4.7506 -10.3084
-16 -3 -1 8.1084 3.5059
-16 -3 2 -4.0728 2.7274
-16 -3 5 5.0969 5.5936
-16 -2 -5 -6.8129 2.2417
-16 -2 -2 -4.1804 9.1092
-16 -2 1 3.1965 1.9836
-16 -2 4 4.2934 -2.0830
-16 -1 -6 -1.3526 -1.9396
-16 -1 -3 -2.8623 -0.8711
-16 -1 0 3.2541 -5.7920
-16 -1 3 13.7305 0.5441
-16 -1 6 -5.3351 -2.2919
-15 -8 -1 2.8211 -12.1609
-15 -8 2 1.0235 0.5675
-15 -7 -2 -1.5467 0.7215
-15 -7 1 7.8559 -5.6592
-15 -6 -3 -5.6361 0.9707
-15 -6 0 0.5211 -2.3699
-15 -6 3 -1.1279 -0.3660
-15 -5 -4 0.5643 -7.7829
-15 -5 -1 -1.5775 -1.2581
-15 -5 2 4.8751 9.9169
-15 -4 -5 -0.8401 2.2367
-15 -4 -2 -6.0403 -4.7314
-15 -4 1 -3.0472 -2.7699
-15 -4 4 4.4867 -7.0871
-15 -3 -6 1.7111 1.8856
-15 -3 -3 3.2873 5.0666
-15 -3 0 -1.0112 3.8263
-15 -3 3 -2.5720 -2.2182
-15 -2 -4 -2.0322 -2.9521
-15 -2 -1 -7.5674 -0.0752
-15 -2 2 -1.3639 2.1550
-15 -2 5 -3.6943 -4.9899
-15 -1 -5 -5.5719 2.1567
-15 -1 -2 0.0088 -4.3441
-15 -1 1 11.0029 2.6146
-15 -1 4 10.1224 0.7253
-14 -9 -2 -0.7712 -2.4877
-14 -9 1 -3.7795 -3.1419
-14 -8 -3 -1.0027 -0.5530
-14 -8 0 1.4428 -6.3865
-14 -8 3 -3.5112 2.6789
-14 -7 -4 -6.9645 1.4673
-14 -7 -1 7.9039 6.2154
-14 -7 2 -7.8277 10.0387
-14 -6 -5 1.3911 1.9359
-14 -6 -2 -7.7268 9.8452
-14 -6 1 4.0944 -3.1595
-14 -6 4 5.8533 -0.2062
-14 -5 -3 -2.0209 9.8823
-14 -5 0 -5.3857 3.5736
-14 -5 3 5.4612 2.9001
-14 -4 -4 2.3944 -7.2302
-14 -4 -1 -4.5789 2.9962
-14 -4 2 -5.0885 5.1697
-14 -4 5 3.2644 1.4893
-14 -3 -5 -6.2389 7.4328
-14 -3 -2 5.2091 -0.8935
-14 -3 1 -8.1665 3.0693
-14 -3 4 8.4279 6.0087
-14 -2 -6 2.9404 3.0319
-14 -2 -3 1.2342 1.0497
-14 -2 0 -1.5633 6.4100
-14 -2 3 3.6183 3.9500
-14 -2 6 4.9214 -0.7155
-14 -1 -7 4.1075 -1.1119
-14 -1 -4 -4.6168 -7.5438
-14 -1 -1 6.2184 8.4504
-14 -1 2 3.5014 -4.6237
-14 -1 5 -0.7894 0.5097
-13 -10 0 -6.3141 -8.7137
-13 -9 -1 -0.4713 0.1202
-13 -9 2 5.5798 8.2830
-13 -8 -2 -6.9051 -4.4187
-13 -8 1 -1.1551 -4.1637
-13 -8 4 8.9217 -5.8377
-13 -7 -3 3.8747 2.8354
-13 -7 0 -3.7528 4.2644
-13 -7 3 -2.7395 1.2912
-13 -6 -4 -1.5726 -0.7427
-13 -6 -1 9.7302 -11.8625
-13 -6 2 1.0630 6.2249
-13 -6 5 0.3733 4.0882
-13 -5 -5 -3.0477 -4.1330
-13 -5 -2 2.1403 -3.9559
-13 -5 1 9.0667 -6.7216
-13 -5 4 3.4641 -5.0839
-13 -4 -6 1.4761 3.6620
-13 -4 -3 -1.4205 0.1460
-13 -4 0 -4.1174 -12.2861
-13 -4 3 -6.6346 -6.2582
-13 -4 6 -2.9227 3.5212
-13 -3 -7 -1.0226 -3.9966
-13 -3 -4 5.2635 -10.5834
-13 -3 -1 -5.9058 1.4869
-13 -3 2 -0.4017 2.1683
-13 -3 5 2.9546 5.5986
-13 -2 -5 4.3837 1.2100
-13 -2 -2 -2.5590 3.6504
-13 -2 1 -0.3801 3.3878
-13 -2 4 -3.3514 5.1224
-13 -2 7 -9.7994 3.5763
-13 -1 -6 2.0246 -0.8765
-13 -1 -3 5.6980 -0.5852
-13 -1 0 -7.6446 6.9291
-13 -1 3 -3.9844 9.3295
-13 -1 6 -0.4542 3.1456
-12 -12 0 -1.3755 -8.1392
-12 -11 -1 -0.2070 11.2568
-12 -11 2 -9.6045 11.8340
-12 -10 -2 3.3419 5.4564
-12 -10 1 2.5360 -2.9290
-12 -9 -3 0.3103 1.8162
-12 -9 0 1.2664 10.1486
-12 -9 3 5.4586 -2.3348
-12 -8 -4 2.3078 -7.1954
-12 -8 -1 1.7073 -1.9000
-12 -8 2 4.5004 0.6370
-12 -8 5 5.6092 1.9852
-12 -7 -5 4.5900 3.7336
-12 -7 -2 -1.4215 -1.4512
-12 -7 1 -14.8973 0.3085
-12 -7 4 5.2999 2.5992
-12 -6 -6 -0.9819 -1.0711
-12 -6 -3 0.4775 7.2739
-12 -6 0 5.6984 0.5985
-12 -6 3 3.6475 5.3768
-12 -6 6 -1.6095 2.9783
-12 -5 -7 7.8249 0.2372
-12 -5 -4 -8.8675 -4.0471
-12 -5 -1 10.6629 8.9145
-12 -5 2 -9.6769 -4.4979
-12 -5 5 -7.8763 9.5442
-12 -4 -5 -2.4552 5.3887
-12 -4 -2 -1.9539 -0.6035
-12 -4 1 6.5967 0.1236
-12 -4 4 8.3550 5.4028
-12 -4 7 0.9899 2.2271
-12 -3 -6 6.1439 -4.7932
-12 -3 -3 -5.9328 2.8087
-12 -3 0 -1.3366 -1.4097
-12 -3 3 6.0411 -4.7036
-12 -3 6 -1.5637 -5.6344
-12 -2 -7 -0.2628 -10.5433
-12 -2 -4 8.6763 -3.8532
-12 -2 -1 -5.2845 -5.4839
-12 -2 2 -3.2985 7.5697
-12 -2 5 5.3368 -2.7360
-12 -1 -8 4.4944 5.3550
-12 -1 -5 4.1159 6.0999
-12 -1 -2 0.2240 -6.1464
-12 -1 1 -20.7601 3.9673
-12 -1 4 2.8534 4.0547
-12 -1 7 6.9921 -8.3039
-11 -12 -2 -3.2301 -7.3285
-11 -12 1 -1.0340 -0.5460
-11 -11 -3 3.6980 -15.0552
-11 -11 0 -11.7615 -1.0845
-11 -11 3 -2.1252 5.6163
-11 -10 -4 -4.6620 4.6182
-11 -10 -1 9.3536 -5.7206
-11 -10 2 10.4479 3.4117
-11 -9 -5 -4.3026 -3.3576
-11 -9 -2 4.6241 4.2825
-11 -9 1 0.2730 -7.0478
-11 -9 4 -6.0035 -0.7754
-11 -8 -6 6.1134 12.3175
-11 -8 -3 0.2920 -0.1484
-11 -8 0 1.0934 -8.8342
-11 -8 3 -2.7644 -2.1857
-11 -7 -4 4.4480 -14.4626
-11 -7 -1 -1.8484 -9.4966
-11 -7 2 3.4645 0.9193
-11 -7 5 -0.9979 -1.0162
-11 -6 -5 6.5583 1.5575
-11 -6 -2 -4.7717 1.9017
-11 -6 1 -2.6423 10.9935
-11 -6 4 6.6337 4.9821
-11 -5 -6 -0.5717 -5.0064
-11 -5 -3 0.0976 -2.6417
-11 -5 0 -13.0442 0.7932
-11 -5 3 -0.1775 -1.1650
-11 -5 6 -4.3521 -7.3717
-11 -4 -7 -4.0939 3.0311
-11 -4 -4 1.0221 -3.5123
-11 -4 -1 9.1163 -2.7645
-11 -4 2 -7.5143 -6.4416
-11 -4 5 2.1179 -2.6571
-11 -3 -8 8.1498 4.5628
-11 -3 -5 -6.7200 1.8092
-11 -3 -2 1.7383 -10.2012
-11 -3 1 30.6082 -14.7308
-11 -3 4 2.3887 -6.4309
-11 -3 7 -1.9996 4.2015
-11 -2 -6 6.2732 2.8359
-11 -2 -3 0.1314 4.7431
-11 -2 0 -1.5945 -14.7519
-11 -2 3 -11.4438 5.4145
-11 -2 6 -0.4326 -5.6821
-11 -1 -7 -6.5539 -0.8728
-11 -1 -4 3.7634 -7.6566
-11 -1 -1 -4.2157 -1.5460
-11 -1 2 3.8585 -6.1926
-11 -1 5 6.0761 6.9527
-11 -1 8 -15.0645 -6.1269
-10 -13 0 3.4726 11.8485
-10 -12 -4 -1.5733 4.2803
-10 -12 -1 1.7861 -1.5203
-10 -12 2 0.2275 -1.2192
-10 -11 -2 4.5814 -3.3323
-10 -11 1 -16.1264 -7.2917
-10 -11 4 -3.9303 -7.5214
-10 -10 -3 2.8187 -3.7929
-10 -10 0 11.4206 -3.4929
-10 -10 3 3.3170 12.4297
-10 -9 -4 -1.2507 4.6739
-10 -9 -1 -0.3129 0.3627
-10 -9 2 -9.0249 -0.6171
-10 -9 5 -3.0060 -0.7581
-10 -8 -5 -3.3367 -0.3874
-10 -8 -2 -4.6750 3.2223
-10 -8 1 -2.9417 5.7152
-10 -8 4 5.9056 10.3534
-10 -7 -6 4.8072 -8.6627
-10 -7 -3 -4.8766 0.2335
-10 -7 0 -1.0126 8.1002
-10 -7 3 8.1790 -10.9218
-10 -7 6 1.2235 -9.6190
-10 -6 -7 4.0352 -0.5087
-10 -6 -4 4.6579 -6.2323
-10 -6 -1 -3.0624 0.2963
-10 -6 2 -3.6209 8.6773
-10 -6 5 -1.8290 2.7277
-10 -5 -5 7.9592 3.5262
-10 -5 -2 10.1551 1.7182
-10 -5 1 -7.9979 0.1675
-10 -5 4 11.1582 12.8992
-10 -5 7 3.8480 0.5892
-10 -4 -6 2.6117 -11.4448
-10 -4 -3 -7.9239 6.5277
-10 -4 0 9.7089 -4.0489
-10 -4 3 2.8405 4.2348
-10 -4 6 -1.5321 1.9039
-10 -3 -7 1.4985 -8.0873
-10 -3 -4 -9.0565 -6.8776
-10 -3 -1 18.1407 1.9040
-10 -3 2 4.0060 -11.7096
-10 -3 5 -1.5474 5.6036
-10 -3 8 -0.2033 -4.4427
-10 -2 -8 2.9943 4.4091
-10 -2 -5 -1.7269 4.0217
-10 -2 -2 -6.3420 -2.0799
-10 -2 1 -1.9564 -17.1354
-10 -2 4 6.7451 -5.5884
-10 -2 7 1.2473 1.1461
-10 -1 -6 8.7760 4.5169
-10 -1 -3 -3.5505 10.8413
-10 -1 0 1.8193 -4.4157
-10 -1 3 -1.1710 -7.0492
-10 -1 6 -3.9980 -1.2849
-9 -14 -1 9.2702 -1.0842
-9 -14 2 1.8938 6.7313
-9 -13 -2 5.9111 -3.1082
-9 -13 1 -3.8674 -5.1042
-9 -12 -3 -2.6603 -4.5287
-9 -12 0 -0.6898 -9.0661
-9 -12 3 -2.2398 4.0828
-9 -11 -4 -9.7574 -6.3144
-9 -11 -1 -4.5460 -3.7013
-9 -11 2 5.8636 -1.2646
-9 -11 5 3.7370 -11.8043
-9 -10 -5 1.0719 0.4322
-9 -10 -2 -6.2836 7.6279
-9 -10 1 -5.5749 16.3918
-9 -10 4 -2.1266 -3.4085
-9 -9 -6 3.6360 2.8086
-9 -9 -3 5.6676 -4.9564
-9 -9 0 -7.6518 -3.2492
-9 -9 3 1.7427 -3.8138
-9 -9 6 1.9747 -0.6081
-9 -8 -7 0.5275 3.7582
-9 -8 -4 1.3998 0.8094
-9 -8 -1 17.3862 -3.7545
-9 -8 2 -1.0332 -1.1330
-9 -8 5 -4.8458 8.8878
-9 -7 -5 -4.6834 0.2265
-9 -7 -2 9.7505 -4.0747
-9 -7 1 16.8185 -7.3617
-9 -7 4 -1.9380 4.6178
-9 -7 7 7.2940 -4.5634
-9 -6 -6 0.5320 7.9461
-9 -6 -3 -1.0493 6.7558
-9 -6 0 -12.7567 -11.9604
-9 -6 3 -14.5709 0.8542
-9 -6 6 2.0709 -1.6173
-9 -5 -7 -1.8329 -2.6685
-9 -5 -4 5.4042 -11.7314
-9 -5 -1 0.5898 -5.3200
-9 -5 2 14.3308 -5.4001
-9 -5 5 2.9805 3.6221
-9 -5 8 -5.4365 -6.5761
-9 -4 -8 -0.8790 -0.2821
-9 -4 -5 1.7312 2.0626
-9 -4 -2 -4.9526 8.9585
-9 -4 1 -14.4430 3.9161
-9 -4 4 -3.0155 9.5852
-9 -4 7 -9.1755 4.1291
-9 -3 -6 1.4373 6.0212
-9 -3 -3 11.5636 -15.8305
-9 -3 0 -4.4564 6.7857
-9 -3 3 -9.7141 10.0688
-9 -3 6 -0.2888 -2.1583
-9 -2 -7 -3.6347 -2.3504
-9 -2 -4 5.0358 8.3465
-9 -2 -1 11.2389 -4.8539
-9 -2 2 -1.5146 -20.9941
-9 -2 5 2.4702 -1.1965
-9 -2 8 0.9476 5.6828
-9 -1 -8 -0.6209 5.7711
-9 -1 -5 -6.5017 1.0621
-9 -1 -2 17.9299 -8.9806
-9 -1 4 -1.9456 -1.3522
-9 -1 7 5.1232 6.8960
-8 -15 -2 3.3695 -5.7669
-8 -15 1 -4.1671 -4.1964
-8 -14 -3 -5.6013 -0.3739
-8 -14 0 6.2367 4.3694
-8 -14 3 5.1573 3.4545
-8 -13 -4 6.7021 15.0267
-8 -13 -1 5.2527 1.1624
-8 -13 2 -8.1493 5.0063
-8 -12 -5 2.1521 -2.2766
-8 -12 -2 -0.8409 3.0056
-8 -12 1 -0.4227 2.0779
-8 -12 4 -2.1037 3.5049
-8 -11 -6 3.8399 -9.8054
-8 -11 -3 4.2126 -6.1089
-8 -11 0 2.2946 7.4147
-8 -11 3 9.4043 -0.0891
-8 -10 -4 5.0105 -10.7550
-8 -10 -1 -7.7398 -1.4854
-8 -10 2 -2.2565 3.6030
-8 -10 5 0.8965 4.5910
-8 -9 -5 0.0292 -5.8829
-8 -9 -2 7.9729 4.1069
-8 -9 1 -4.4674 3.1777
-8 -9 4 1.5608 -1.1890
-8 -8 -6 -3.2596 -4.2938
-8 -8 -3 -10.4934 5.2129
-8 -8 0 0.9977 -5.2355
-8 -8 3 5.1867 2.0712
-8 -8 6 -7.4387 6.6580
-8 -7 -7 -1.0402 -1.3064
-8 -7 -4 -5.1351 -3.6589
-8 -7 -1 13.7015 6.1756
-8 -7 2 -6.3965 -9.9260
-8 -7 5 -1.2927 1.9862
-8 -6 -8 0.5346 -0.4589
-8 -6 -5 -3.0927 6.9656
-8 -6 -2 -5.6166 -6.7029
-8 -6 1 -2.3211 -18.9268
-8 -6 4 -3.3967 6.5465
-8 -6 7 -5.6712 0.5878
-8 -5 -6 13.8444 -3.7326
-8 -5 -3 -0.2565 4.5623
-8 -5 0 -4.8248 9.9586
-8 -5 3 -1.1170 3.0729
-8 -5 6 -4.9148 2.8428
-8 -4 -7 -2.6977 -8.6575
-8 -4 -4 2.2076 -0.7757
-8 -4 2 -2.2453 13.6806
-8 -4 5 6.3586 5.0559
-8 -4 8 -0.9158 6.4972
-8 -3 -8 -3.7766 6.3547
-8 -3 -5 11.0067 0.9634
-8 -3 -2 16.7046 3.2445
-8 -3 1 -35.3045 4.5022
-8 -3 4 12.5538 7.8971
-8 -3 7 3.5653 4.3088
-8 -2 -9 2.1278 -2.6203
-8 -2 -6 3.9614 -2.1088
-8 -2 -3 -13.0099 -0.3595
-8 -2 0 82.4924 -15.9264
-8 -2 3 -5.5556 -9.5908
-8 -2 6 5.1514 -0.9361
-8 -2 9 1.7154 -2.5139
-8 -1 -7 -1.4051 -1.7787
-8 -1 -4 -3.8362 -1.0114
-8 -1 -1 6.3002 10.6365
-8 -1 5 -5.9617 -3.7147
-8 -1 8 -3.2174 -1.2694
-7 -16 0 1.2782 -7.7875
-7 -15 -1 -0.4284 2.6007
-7 -15 2 -3.1754 5.3887
-7 -14 -2 -4.7663 -8.7490
-7 -14 1 -9.6775 9.7635
-7 -14 4 -6.1226 -0.7406
-7 -13 -3 -5.8106 -5.0790
-7 -13 0 -5.6122 4.5535
-7 -13 3 0.7303 0.5542
-7 -12 -4 0.5026 -0.1934
-7 -12 -1 11.7350 7.3004
-7 -12 2 12.2421 7.9682
-7 -12 5 -6.3780 6.9719
-7 -11 -5 -2.5224 4.1323
-7 -11 -2 3.6833 0.5144
-7 -11 1 3.9672 -3.4382
-7 -11 4 -2.7116 3.6096
-7 -10 -6 -1.3667 14.6641
-7 -10 -3 2.5671 -0.8076
-7 -10 0 -0.2288 -9.0394
-7 -10 3 -10.8905 -3.6711
-7 -10 6 -1.5641 1.5520
-7 -9 -7 5.9631 0.1127
-7 -9 -4 -2.8839 -5.8421
-7 -9 -1 -6.0597 -1.7925
-7 -9 2 10.9940 -7.2545
-7 -9 5 7.2967 3.0525
-7 -8 -5 2.5874 -1.2089
-7 -8 -2 -1.5158 11.5444
-7 -8 1 -14.8889 7.9997
-7 -8 4 -9.5950 6.3494
-7 -8 7 -6.0060 -2.3024
-7 -7 -6 0.5107 1.0223
-7 -7 -3 11.5004 -10.5530
-7 -7 0 -14.9969 -2.3304
-7 -7 3 -3.5162 3.0588
-7 -7 6 1.3106 2.6073
-7 -6 -7 -0.7686 -2.2929
-7 -6 -4 2.9007 1.5275
-7 -6 -1 29.6305 -0.4477
-7 -6 2 5.2399 -17.0934
-7 -6 5 5.9822 -10.8654
-7 -6 8 2.9395 -1.3833
-7 -5 -8 6.0978 -2.2741
-7 -5 -5 -7.5984 12.1888
-7 -5 -2 24.3392 -1.2987
-7 -5 1 37.3834 -7.8940
-7 -5 4 -12.0262 3.8777
-7 -5 7 1.8136 -1.6097
-7 -4 -9 -1.5945 -9.1547
-7 -4 -6 11.4357 0.2948
-7 -4 -3 -3.1787 9.9846
-7 -4 0 -7.9307 -37.0819
-7 -4 3 -19.6704 9.2724
-7 -4 6 1.7024 -5.7123
-7 -4 9 -4.4219 3.1907
-7 -3 -7 3.0711 -2.7805
-7 -3 -4 3.0505 -12.9871
-7 -3 -1 -11.6675 -10.6999
-7 -3 5 -0.4701 14.0892
-7 -3 8 -5.3512 8.7803
-7 -2 -8 -5.1871 2.5699
-7 -2 -5 3.1578 -5.4844
-7 -2 -2 -9.6006 4.9111
-7 -2 1 -10.8526 9.9036
-7 -2 4 3.7527 0.7572
-7 -2 7 -5.2679 -1.6895
-7 -1 -9 -0.8244 2.9307
-7 -1 -6 -3.2051 2.8726
-7 -1 -3 8.2354 0.4707
-7 -1 0 24.6226 -11.5936
-7 -1 6 4.2496 -2.8057
-7 -1 9 -4.0513 12.3818
-6 -16 -2 0.3939 4.0808
-6 -16 1 12.4824 2.1708
-6 -15 -3 -2.4246 -4.6802
-6 -15 0 0.4707 5.0849
-6 -15 3 10.3721 6.5594
-6 -14 -4 3.0888 0.3132
-6 -14 -1 -4.0878 -0.8794
-6 -14 2 -7.5800 1.0108
-6 -14 5 -0.7953 -2.0064
-6 -13 -5 -6.1770 1.0291
-6 -13 -2 6.4285 -5.5351
-6 -13 1 -5.8201 -7.8892
-6 -13 4 -6.8097 -8.4797
-6 -12 -6 2.9632 0.6869
-6 -12 -3 -7.2663 3.4491
-6 -12 0 0.2801 0.8069
-6 -12 3 -2.2495 1.9797
-6 -12 6 2.4905 3.8064
-6 -11 -7 -2.7943 -1.6307
-6 -11 -4 2.5037 0.8734
-6 -11 -1 -0.3675 0.0393
-6 -11 2 -7.0301 -5.5860
-6 -11 5 5.2196 4.5373
-6 -10 -5 2.1360 -2.2555
-6 -10 -2 -6.7232 1.6767
-6 -10 1 -4.8203 -2.1722
-6 -10 4 2.2963 4.4969
-6 -10 7 -0.6165 -6.6848
-6 -9 -6 3.7475 -4.4905
-6 -9 -3 7.8598 -8.4421
-6 -9 0 1.9782 16.8384
-6 -9 3 8.9348 6.0662
-6 -9 6 0.8783 2.9857
-6 -8 -7 3.8289 1.9711
-6 -8 -4 -2.8758 2.1576
-6 -8 -1 -5.9977 -4.2549
-6 -8 2 0.2774 -1.3293
-6 -8 5 6.5595 3.7821
-6 -8 8 6.8334 5.5729
-6 -7 -8 2.5506 2.9001
-6 -7 -5 3.7322 -7.3004
-6 -7 -2 24.3184 12.8676
-6 -7 1 -13.5337 3.7953
-6 -7 4 -2.3305 1.1747
-6 -7 7 -4.1847 8.5111
-6 -6 -6 5.2030 -11.0441
-6 -6 -3 -25.1757 -4.7934
-6 -6 0 41.3282 -24.6874
-6 -6 3 0.0145 -0.7634
-6 -6 6 -1.5479 6.4217
-6 -5 -7 -4.3868 -3.7467
-6 -5 -4 -4.4574 -0.5739
-6 -5 -1 16.2611 21.6242
-6 -5 2 -3.2952 -3.6954
-6 -5 5 5.5203 -2.1240
-6 -5 8 -1.5195 2.2522
-6 -4 -8 -1.1617 -3.0255
-6 -4 -5 -3.9911 5.9874
-6 -4 -2 -0.7962 -6.8414
-6 -4 1 -5.6841 -29.2986
-6 -4 4 11.9398 1.6335
-6 -4 7 -2.7534 2.0503
-6 -3 -9 3.5441 1.0187
-6 -3 -6 0.2598 0.5834
-6 -3 -3 -1.3908 17.0593
-6 -3 0 -15.5139 5.0847
-6 -3 3 -1.8101 8.6182
-6 -3 6 -5.9547 5.0583
-6 -3 9 -2.2211 -6.6874
-6 -2 -7 -4.3399 0.1555
-6 -2 -4 18.9537 -9.2324
-6 -2 -1 -14.4823 2.4057
-6 -2 2 -18.7663 17.0887
-6 -2 5 4.0590 5.8489
-6 -2 8 0.9522 3.6675
-6 -1 -8 -3.5675 -6.3482
-6 -1 -5 14.8073 7.0916
-6 -1 -2 29.5942 0.6150
-6 -1 1 -40.1863 33.4532
-6 -1 7 3.3821 2.4178
-5 -17 0 -2.0906 0.5553
-5 -16 -1 2.8630 -0.4976
-5 -16 2 0.9107 6.5708
-5 -15 -2 6.2018 -1.8298
-5 -15 1 -4.9246 -6.5722
-5 -15 4 0.8932 2.9969
-5 -14 -3 -3.1194 3.2984
-5 -14 0 1.3799 2.0518
-5 -14 3 2.3911 0.1878
-5 -13 -4 -7.6827 -2.6378
-5 -13 -1 -0.5899 6.3536
-5 -13 2 2.7498 1.4919
-5 -13 5 6.6405 -2.5800
-5 -12 -5 1.2509 3.3414
-5 -12 -2 -2.4013 6.4809
-5 -12 1 -4.7875 4.1074
-5 -12 4 -12.1811 -1.3520
-5 -11 -6 -0.6249 -4.0075
-5 -11 -3 8.9926 -5.4408
-5 -11 0 -4.1092 0.4487
-5 -11 3 -2.5969 -10.5058
-5 -11 6 5.5255 4.3083
-5 -10 -7 -0.3904 0.7929
-5 -10 -4 3.0740 2.8767
-5 -10 -1 19.1504 2.9342
-5 -10 2 9.6195 2.3001
-5 -10 5 -6.0318 5.2499
-5 -9 -8 0.6782 -3.3166
-5 -9 -5 1.2792 10.0621
-5 -9 -2 22.8727 6.7475
-5 -9 1 2.1029 3.8269
-5 -9 4 -7.1363 12.0321
-5 -9 7 6.8714 -6.4512
-5 -8 -6 -4.4719 1.6995
-5 -8 -3 -0.8930 -1.8965
-5 -8 0 -2.5768 -17.6594
-5 -8 3 -9.4283 9.3800
-5 -8 6 4.0835 2.5588
-5 -7 -7 12.0878 -1.9278
-5 -7 -4 -1.4498 1.4732
-5 -7 -1 -26.8993 -1.1018
-5 -7 2 23.4235 -3.8657
-5 -7 5 6.1351 4.4510
-5 -7 8 2.9357 1.5565
-5 -6 -8 0.0283 -5.4772
-5 -6 -5 -2.5574 -5.5183
-5 -6 -2 2.0627 -3.3175
-5 -6 4 -1.9387 -1.1494
-5 -6 7 -5.3380 -1.1922
-5 -5 -9 2.9701 12.2980
-5 -5 -6 -0.6281 9.9015
-5 -5 -3 15.4189 -3.1578
-5 -5 0 7.1430 -10.2335
-5 -5 3 -16.1034 8.3640
-5 -5 6 2.2930 -9.7232
-5 -5 9 -5.2123 6.8181
-5 -4 -7 8.2650 -2.1008
-5 -4 -4 -7.9704 5.0240
-5 -4 -1 40.2390 9.2014
-5 -4 2 16.6209 -28.4886
-5 -4 5 -7.1851 -0.1233
-5 -4 8 2.4932 -1.8061
-5 -3 -8 -4.1873 -3.3643
-5 -3 -5 -10.0791 2.5343
-5 -3 -2 13.3729 -2.8252
-5 -3 1 54.6267 -3.1569
-5 -3 4 -24.0767 15.5765
-5 -3 7 0.7270 6.0225
-5 -2 -9 -7.4606 -8.7494
-5 -2 -6 8.4513 -3.2196
-5 -2 -3 -8.4269 8.1351
-5 -2 0 -24.3732 -67.5994
-5 -2 3 5.7621 -10.4906
-5 -2 6 2.1622 -6.2122
-5 -2 9 4.7948 -0.1677
-5 -1 -7 0.9953 2.5355
-5 -1 -4 3.1658 -18.8879
-5 -1 -1 -13.6766 -16.2702
-5 -1 2 -3.4645 -31.7328
-5 -1 5 2.6904 7.8253
-5 -1 8 -8.2135 6.1440
-4 -18 -1 -3.4375 0.9580
-4 -18 2 -9.8553 3.2233
-4 -17 -2 -2.6017 -3.7314
-4 -17 1 -0.4664 0.4304
-4 -16 -3 -2.1097 8.0878
-4 -16 0 7.0569 0.8861
-4 -16 3 -0.3895 -2.7683
-4 -15 -4 2.7247 7.1216
-4 -15 -1 7.5536 -7.2660
-4 -15 2 -9.7536 -4.8556
-4 -15 5 6.0590 2.3569
-4 -14 -5 -2.1972 -4.3629
-4 -14 -2 -6.8341 5.6212
-4 -14 1 -3.3486 -0.3903
-4 -14 4 -0.6529 -0.4468
-4 -13 -6 -0.1243 -8.2814
-4 -13 -3 2.1760 -9.6038
-4 -13 0 -3.2532 10.7162
-4 -13 3 8.7972 9.0454
-4 -13 6 11.0516 11.7207
-4 -12 -7 -1.5187 3.8050
-4 -12 -4 1.0165 -1.6640
-4 -12 -1 -3.4035 1.6875
-4 -12 2 -11.9151 10.8977
-4 -12 5 0.2153 -0.5612
-4 -11 -5 -6.3235 -1.2090
-4 -11 -2 13.7156 6.3730
-4 -11 1 -4.2172 3.4592
-4 -11 4 -2.0912 1.5984
-4 -11 7 -0.0849 3.4178
-4 -10 -6 1.2397 -8.1826
-4 -10 -3 -12.3535 -5.3714
-4 -10 0 6.5875 -9.5182
-4 -10 3 4.2500 -1.0211
-4 -10 6 -0.9252 -0.6626
-4 -9 -7 -2.1007 2.5447
-4 -9 -4 -4.5920 -6.5187
-4 -9 -1 0.1894 15.7577
-4 -9 2 4.6481 -8.4967
-4 -9 5 -1.5085 0.4961
-4 -9 8 -2.0506 12.4284
-4 -8 -8 -12.2606 -13.8024
-4 -8 -5 -3.8314 2.9643
-4 -8 -2 -1.7987 -17.7935
-4 -8 1 -4.2391 -20.2008
-4 -8 4 7.1415 -1.0438
-4 -8 7 -10.1533 -2.3692
-4 -7 -9 0.1365 4.2776
-4 -7 -6 -4.1782 6.2806
-4 -7 -3 -1.4381 8.9950
-4 -7 0 -12.3895 27.1640
-4 -7 3 -6.5583 17.0677
-4 -7 6 0.8399 5.1667
-4 -7 9 -1.5113 4.5665
-4 -6 -7 7.1306 3.4996
-4 -6 -4 6.5209 7.5172
-4 -6 -1 -0.4733 -4.1255
-4 -6 2 4.6023 -5.9740
-4 -6 5 15.1944 16.7072
-4 -6 8 7.6699 0.5241
-4 -5 -8 -5.7585 -3.1995
-4 -5 -5 11.5669 -0.5509
-4 -5 -2 14.2886 12.0830
-4 -5 1 -24.0785 7.1446
-4 -5 4 -3.8586 -15.7604
-4 -5 7 -4.1734 14.1675
-4 -4 -9 5.8348 0.3848
-4 -4 -6 3.6727 6.5122
-4 -4 -3 -8.7894 12.2945
-4 -4 0 144.6506 -19.8549
-4 -4 6 2.8604 -13.4403
-4 -4 9 7.5563 -2.8406
-4 -3 -7 -5.5880 -4.6424
-4 -3 -4 8.7290 -1.4180
-4 -3 -1 29.9408 29.2713
-4 -3 2 -32.0141 -20.0792
-4 -3 5 -2.3003 -6.9620
-4 -3 8 -14.8095 -3.0752
-4 -2 -8 -6.2069 0.8534
-4 -2 -5 8.0937 8.2537
-4 -2 -2 -14.8276 -21.1241
-4 -2 1 -7.7241 -18.0702
-4 -2 7 3.5124 1.6255
-4 -1 -9 8.7433 1.5037
-4 -1 -6 8.8040 -3.4124
-4 -1 -3 5.9427 -14.1511
-4 -1 0 -10.7322 31.8684
-4 -1 3 -1.3831 -4.2832
-4 -1 6 -7.5860 2.1941
-4 -1 9 -4.1898 -5.1889
-3 -18 0 6.0675 -1.1181
-3 -18 3 5.6657 4.6642
-3 -17 -4 0.9212 -2.9904
-3 -17 -1 -3.9426 5.0604
-3 -17 2 -6.5256 -1.2695
-3 -16 -5 -3.5466 2.7347
-3 -16 -2 -7.1920 -0.6794
-3 -16 1 -6.3582 8.6946
-3 -16 4 -4.3374 -0.2036
-3 -15 -6 -7.1907 -5.1065
-3 -15 -3 2.2346 2.3966
-3 -15 0 6.5763 8.9867
-3 -15 3 -2.5695 -4.4392
-3 -14 -4 10.9279 1.1222
-3 -14 -1 11.3786 0.2719
-3 -14 2 4.1864 13.2260
-3 -14 5 -4.5068 5.3550
-3 -13 -5 2.1366 1.9695
-3 -13 -2 8.8152 -2.3388
-3 -13 1 3.8732 -5.2145
-3 -13 4 -0.7421 4.8350
-3 -12 -6 -2.4942 3.7454
-3 -12 -3 -5.8855 -4.3970
-3 -12 0 0.5331 -7.3106
-3 -12 3 3.0120 -7.0987
-3 -12 6 3.0948 1.2106
-3 -11 -7 7.4640 3.1455
-3 -11 -4 -2.5685 1.5916
-3 -11 -1 -21.6221 0.3777
-3 -11 2 0.7711 4.2940
-3 -11 5 4.7269 -2.4719
-3 -10 -8 -0.7575 2.4242
-3 -10 -5 -2.3901 2.8180
-3 -10 -2 0.1891 4.9813
-3 -10 1 -10.9957 -3.1654
-3 -10 4 -8.1963 8.0775
-3 -10 7 -0.2421 -8.0839
-3 -9 -6 2.9840 -1.5307
-3 -9 -3 15.2531 6.2627
-3 -9 0 -7.1188 -2.3296
-3 -9 3 -12.1477 -7.9411
-3 -9 6 4.8148 -6.2319
-3 -8 -7 8.9260 1.5293
-3 -8 -4 -0.6858 -0.7019
-3 -8 -1 53.3272 16.3945
-3 -8 2 29.2147 -0.2062
-3 -8 5 -7.7774 -1.0722
-3 -8 8 7.1425 0.4204
-3 -7 -8 -4.2233 -14.1858
-3 -7 -5 -4.3378 11.6953
-3 -7 -2 23.5579 7.3682
-3 -7 1 9.1614 -2.4745
-3 -7 4 -7.7184 4.9211
-3 -7 7 -3.8776 -4.2400
-3 -6 -9 -6.4137 -3.0663
-3 -6 -6 -2.2529 -1.6290
-3 -6 -3 4.7225 1.8057
-3 -6 0 -4.5361 -21.9644
-3 -6 3 -3.4295 2.2946
-3 -6 6 2.5529 -2.1014
-3 -6 9 -0.6552 8.9897
-3 -5 -7 17.4059 -4.1633
-3 -5 -4 -2.5979 -16.1108
-3 -5 -1 -16.2546 -21.8205
-3 -5 2 19.4399 -7.2591
-3 -5 5 1.0679 9.9579
-3 -5 8 -9.4015 2.0572
-3 -4 -8 -13.2989 4.7604
-3 -4 -5 0.3034 -4.0530
-3 -4 -2 -37.1951 7.4980
-3 -4 1 -8.7578 8.6625
-3 -4 4 11.1135 5.0189
-3 -4 7 0.9632 3.5052
-3 -3 -9 4.9981 0.9909
-3 -3 -6 3.7902 -1.1512
-3 -3 -3 18.0197 23.1309
-3 -3 0 15.0073 -2.6593
-3 -3 3 -9.5475 16.7500
-3 -3 6 3.1745 -9.6480
-3 -3 9 2.6796 -7.3161
-3 -2 -7 -5.7312 -6.1124
-3 -2 -4 -33.9435 6.6180
-3 -2 -1 5.7515 -7.1312
-3 -2 2 34.3680 -33.5063
-3 -2 5 -3.5778 5.4676
-3 -2 8 7.6114 3.8906
-3 -1 -8 3.3455 5.8629
-3 -1 -5 -9.7274 -2.0632
-3 -1 -2 8.3750 47.9318
-3 -1 1 2.6066 -19.0551
-3 -1 4 -21.0113 7.1401
-3 -1 7 -1.8811 6.3154
-3 -1 10 9.2437 -12.3216
-2 -19 -1 0.8918 1.9234
-2 -19 2 -4.4692 -1.8015
-2 -18 -2 -4.8810 2.3870
-2 -18 1 3.1575 10.3989
-2 -18 4 0.3262 -1.2480
-2 -17 -3 -6.5160 -6.9605
-2 -17 0 8.3606 -2.6348
-2 -17 3 6.7371 6.2919
-2 -16 -4 0.1469 -0.5773
-2 -16 -1 -3.0910 -3.8367
-2 -16 2 -10.4471 0.3830
-2 -16 5 -7.4922 1.2113
-2 -15 -5 -7.3685 3.7336
-2 -15 -2 2.3951 -4.7525
-2 -15 1 -8.3149 -5.7165
-2 -15 4 -0.1351 -6.0925
-2 -14 -6 0.0665 0.6488
-2 -14 -3 -7.2794 6.0117
-2 -14 0 -7.0938 -5.7382
-2 -14 3 -5.0344 1.2185
-2 -14 6 0.5496 -4.0767
-2 -13 -7 1.8219 -5.7652
-2 -13 -4 1.3752 -1.5733
-2 -13 -1 2.9783 6.0651
-2 -13 2 -4.1418 -8.8435
-2 -13 5 6.7059 6.9356
-2 -12 -5 -0.5560 -1.5967
-2 -12 -2 -7.9492 -6.6247
-2 -12 1 -0.3621 2.0293
-2 -12 4 6.0486 1.2758
-2 -12 7 -0.3679 1.0804
-2 -11 -6 4.0247 7.6075
-2 -11 -3 8.2040 3.5411
-2 -11 0 -0.5092 20.2613
-2 -11 3 8.5467 7.9491
-2 -11 6 5.4526 2.8647
-2 -10 -7 1.0547 -1.4681
-2 -10 -4 4.1849 2.0186
-2 -10 -1 7.6901 -0.6139
-2 -10 2 -3.3186 1.4349
-2 -10 5 4.8778 3.6181
-2 -10 8 3.9804 7.9775
-2 -9 -8 -2.1992 -5.4916
-2 -9 -5 -3.1551 0.3540
-2 -9 -2 2.3801 17.5107
-2 -9 1 -11.7460 -0.2074
-2 -9 4 1.1715 -10.7343
-2 -9 7 -4.7171 0.8036
-2 -8 -9 1.6905 2.8413
-2 -8 -6 8.1416 -4.9516
-2 -8 -3 -7.0584 -1.8026
-2 -8 0 78.6350 -7.5543
-2 -8 3 -3.4486 -2.7283
-2 -8 6 0.3216 -4.3012
-2 -8 9 -7.2001 3.6082
-2 -7 -7 -3.5411 2.9392
-2 -7 -4 -2.4192 1.1119
-2 -7 -1 7.8028 16.0326
-2 -7 2 -4.9183 -5.8231
-2 -7 5 0.9759 5.1489
-2 -7 8 -2.3087 -2.2172
-2 -6 -8 -3.9465 -2.1427
-2 -6 -5 -5.8454 2.8907
-2 -6 -2 -17.0135 -26.9102
-2 -6 1 -13.7498 -24.8626
-2 -6 4 30.0779 13.0831
-2 -6 7 -8.0801 4.2891
-2 -5 -9 7.6049 1.2560
-2 -5 -6 -2.7470 3.6350
-2 -5 -3 6.3410 18.0721
-2 -5 0 -38.7542 59.2417
-2 -5 3 -11.2144 1.2893
-2 -5 6 4.8770 -0.9181
-2 -5 9 -4.3010 -2.7054
-2 -4 -7 -4.3294 4.4428
-2 -4 -4 30.5270 -23.3876
-2 -4 -1 5.5313 4.5595
-2 -4 2 -7.6210 17.0410
-2 -4 5 16.0753 6.2952
-2 -4 8 -6.7334 3.4066
-2 -3 -8 9.2556 -3.3671
-2 -3 -5 16.0988 14.9821
-2 -3 -2 23.8400 23.4817
-2 -3 1 -28.5419 10.9805
-2 -3 4 -23.2972 -23.3656
-2 -3 7 0.1588 4.3668
-2 -2 -9 9.0244 -6.9127
-2 -2 -6 -11.8531 -10.7841
-2 -2 -3 -0.9074 -3.1174
-2 -2 0 241.4326 2.3461
-2 -2 3 -6.7891 6.4872
-2 -2 6 -14.9826 4.3198
-2 -2 9 7.7868 4.5336
-2 -1 -10 7.7956 -12.7915
-2 -1 -7 -7.6744 -5.3473
-2 -1 -4 1.4722 1.0392
-2 -1 -1 2.9837 8.6775
-2 -1 2 -10.3999 -54.6037
-2 -1 8 -5.8068 -5.8584
-1 -19 -3 -1.6971 2.2852
-1 -19 0 -1.6279 -6.2300
-1 -19 3 -10.6475 -1.3389
-1 -18 -4 16.0556 -7.5216
-1 -18 -1 -5.3737 -7.8979
-1 -18 2 -1.8665 5.6386
-1 -17 -5 1.6454 2.7035
-1 -17 -2 5.5427 -1.6813
-1 -17 1 -2.0047 -4.7373
-1 -17 4 3.9309 2.9144
-1 -16 -6 -4.2793 -3.3955
-1 -16 -3 -3.0484 9.2877
-1 -16 0 3.8279 2.5443
-1 -16 3 5.8121 0.6069
-1 -16 6 0.2791 -1.0063
-1 -15 -4 0.3854 -3.0160
-1 -15 -1 -3.3187 4.0450
-1 -15 2 5.8652 0.6125
-1 -15 5 -4.6261 -0.8916
-1 -14 -5 4.3684 -0.2811
-1 -14 -2 -2.4034 -3.7707
-1 -14 1 -4.2331 -6.5223
-1 -14 4 -5.3165 -1.8970
-1 -14 7 -6.0407 -1.6628
-1 -13 -6 -1.5138 -0.7720
-1 -13 -3 10.0612 6.1397
-1 -13 0 -4.9917 1.8047
-1 -13 3 -1.8171 -5.9113
-1 -13 6 3.4648 1.6677
-1 -12 -7 1.5609 -11.0973
-1 -12 -4 7.2546 2.5702
-1 -12 -1 39.3808 12.0889
-1 -12 2 0.5205 10.3144
-1 -12 5 -3.8254 4.7455
-1 -11 -8 -14.9933 5.0839
-1 -11 -5 -5.1689 4.6248
-1 -11 -2 7.3166 9.4553
-1 -11 1 -0.8217 0.3270
-1 -11 4 -9.4165 7.4869
-1 -11 7 2.7579 1.1616
-1 -10 -6 1.7370 2.0198
-1 -10 -3 5.6979 -2.6441
-1 -10 0 4.4189 -1.6315
-1 -10 3 8.9351 9.8786
-1 -10 6 0.6924 -1.8600
-1 -9 -7 13.1713 -5.4357
-1 -9 -4 5.0158 -6.2326
-1 -9 -1 -45.3682 -25.3252
-1 -9 2 12.4057 10.3273
-1 -9 5 9.4297 -0.9006
-1 -9 8 -5.0990 1.1748
-1 -8 -8 -3.7114 3.2763
-1 -8 -5 -2.8215 -10.9986
-1 -8 -2 -4.0500 15.6720
-1 -8 1 -20.3872 12.3724
-1 -8 4 7.0656 10.9300
-1 -8 7 2.4546 -6.0930
-1 -7 -9 2.9067 -1.1717
-1 -7 -6 1.3066 -2.3934
-1 -7 -3 15.3679 1.2968
-1 -7 0 14.0570 5.6402
-1 -7 3 -16.7490 -10.1150
-1 -7 6 1.1660 -8.0958
-1 -7 9 -5.4432 0.0904
-1 -6 -7 -2.7317 -3.6137
-1 -6 -4 -26.9547 -11.6985
-1 -6 -1 53.3187 6.4571
-1 -6 2 34.5544 -2.9464
-1 -6 5 -18.6606 8.7417
-1 -6 8 5.2095 0.8086
-1 -5 -8 -0.1629 -2.1150
-1 -5 -5 -9.5164 9.9944
-1 -5 -2 -10.7092 17.8700
-1 -5 1 18.0327 -14.2557
-1 -5 4 -1.1467 7.4544
-1 -5 7 -8.2201 4.2349
-1 -4 -9 -9.0596 -6.5289
-1 -4 -6 -2.0569 -3.0058
-1 -4 -3 -11.2560 -8.2676
-1 -4 0 -2.5620 -27.9448
-1 -4 3 10.4813 -9.9714
-1 -4 6 9.4215 0.6769
-1 -4 9 -0.6310 4.9866
-1 -3 -10 10.3123 4.4488
-1 -3 -7 2.1219 9.2142
-1 -3 -4 -6.7476 -4.8355
-1 -3 -1 -23.8531 -4.9929
-1 -3 2 26.4596 -50.4696
-1 -3 5 14.2458 -6.4254
-1 -3 8 -4.6205 2.3882
-1 -2 -8 -8.0143 4.1608
-1 -2 -5 3.4034 9.0742
-1 -2 -2 -13.1692 55.7024
-1 -2 1 -14.9393 -1.4512
-1 -2 4 2.5668 -2.6013
-1 -2 7 -2.4486 -0.4152
-1 -1 -9 0.3529 -0.8789
-1 -1 -6 0.9329 4.5199
-1 -1 -3 20.6746 8.6227
-1 -1 0 -26.3246 0.6332
-1 -1 3 8.6525 22.4402
-1 -1 6 1.1010 -7.0358
0 -20 -1 -6.8575 3.9690
0 -20 2 -7.4418 12.0545
0 -19 -2 -1.3297 -0.2898
0 -19 4 5.3053 -6.6011
0 -18 -3 -0.9397 8.1269
0 -18 0 0.8306 -10.9935
0 -18 3 -9.8695 3.5047
0 -17 -4 -0.0016 -1.5366
0 -17 -1 -0.2846 -3.5185
0 -17 2 3.0162 -3.8997
0 -17 5 2.4360 3.1227
0 -16 -5 -4.9893 2.7074
0 -16 -2 -9.3878 0.5819
0 -16 1 -14.4353 0.2925
0 -16 4 -0.0098 0.5360
0 -15 -6 -3.2464 -6.2162
0 -15 -3 -0.9381 1.2260
0 -15 0 -1.9801 9.7371
0 -15 6 3.1047 6.5605
0 -14 -7 -0.1683 1.4693
0 -14 -4 -1.0524 0.2136
0 -14 -1 10.4059 6.3408
0 -14 2 -9.9788 5.9209
0 -14 5 -3.9449 -1.9435
0 -13 -5 1.9429 8.7585
0 -13 -2 -0.2472 2.2229
0 -13 1 -4.9457 -0.7325
0 -13 4 3.2691 1.7629
0 -13 7 -10.2588 -3.8519
0 -12 -6 4.9454 -1.2649
0 -12 -3 1.3047 -5.0667
0 -12 0 11.7712 1.8092
0 -12 3 4.4275 1.3413
0 -12 6 1.2989 0.6088
0 -11 -7 -0.8294 -7.6377
0 -11 -4 -4.0683 -9.7452
0 -11 -1 1.3434 -0.5738
0 -11 2 -0.3750 -13.6303
0 -11 5 4.7706 3.3991
0 -11 8 -5.4627 0.3687
0 -10 -8 -22.7687 -0.8877
0 -10 -5 -6.1589 -5.7086
0 -10 -2 -15.8842 -21.3445
0 -10 1 -12.1926 6.5498
0 -10 4 11.5980 -0.3787
0 -10 7 -6.1854 9.6009
0 -9 -9 8.8419 -3.8397
0 -9 -6 -1.1878 18.6214
0 -9 -3 -5.9754 4.1100
0 -9 0 1.7963 53.9230
0 -9 3 -6.4595 -4.7441
0 -9 6 12.0786 1.3826
0 -9 9 -2.1931 4.3687
0 -8 -7 -3.5407 -0.9145
0 -8 -4 17.6130 1.7261
0 -8 -1 -9.4234 -5.1660
0 -8 2 6.7056 -4.5095
0 -8 5 11.5376 4.5491
0 -8 8 -2.3491 5.3663
0 -7 -8 13.2104 7.6208
0 -7 -5 1.4936 3.4517
0 -7 -2 5.0263 44.5890
0 -7 1 -7.9694 -3.7671
0 -7 4 -6.7513 -23.4801
0 -7 7 1.4830 -1.3330
0 -6 -9 3.9434 -10.8224
0 -6 -6 3.1048 -0.9169
0 -6 -3 4.0107 15.8791
0 -6 0 186.7667 2.3076
0 -6 3 -12.1150 -6.0618
0 -6 6 1.2658 -10.4429
0 -6 9 -1.7149 2.8807
0 -5 -7 -6.4704 8.1569
0 -5 -4 15.4291 3.2999
0 -5 -1 0.3089 24.4865
0 -5 2 -28.3898 -40.2051
0 -5 5 -1.1734 -5.1426
0 -5 8 -6.6776 -13.1726
0 -4 -8 -0.4970 -10.0008
0 -4 -5 9.0434 1.4475
0 -4 -2 -9.1565 -56.8444
0 -4 1 -14.9438 4.3083
0 -4 4 31.6591 29.5620
0 -4 7 -11.9484 1.7111
0 -3 -9 -0.7805 -1.5786
0 -3 -6 7.1155 0.3699
0 -3 -3 3.2873 1.2401
0 -3 0 -30.0857 31.6471
0 -3 3 2.7869 19.7512
0 -3 6 -3.3632 -4.1564
0 -2 -10 6.9656 12.5318
0 -2 -7 -3.3034 1.2966
0 -2 -4 40.2980 -44.0693
0 -2 -1 0.6286 9.9724
0 -2 2 -36.1221 52.3706
0 -2 5 17.2158 -0.6138
0 -1 -8 0.3744 -3.3764
0 -1 -5 5.2513 10.9352
0 -1 -2 0.3720 49.2321
0 -1 1 1.1576 -1.5107
0 -1 4 -23.6284 0.1031
0 -1 7 1.2610 3.9196
0 0 -9 8.6836 0.5365
0 0 -6 -30.7493 -26.0657
0 0 -3 13.4303 -4.9413
0 0 3 13.4303 4.9413
0 1 -10 22.6310 2.7910
0 1 -7 1.2610 -3.9196
0 1 -4 -23.6284 -0.1031
0 1 -1 1.1576 1.5107
0 1 2 0.3720 -49.2321
0 1 5 5.2513 -10.9352
0 2 -8 -16.4021 -5.6372
0 2 -5 17.2158 0.6138
0 2 -2 -36.1221 -52.3706
0 2 1 0.6286 -9.9724
0 2 4 40.2980 44.0693
0 2 7 -3.3034 -1.2966
0 3 -9 1.1710 -4.2394
0 3 -6 -3.3632 4.1564
0 3 -3 2.7869 -19.7512
0 3 0 -30.0857 -31.6471
0 3 3 3.2873 -1.2401
0 3 6 7.1155 -0.3699
0 3 9 -0.7805 1.5786
0 4 -10 8.1309 9.4145
0 4 -7 -11.9484 -1.7111
0 4 -4 31.6591 -29.5620
0 4 -1 -14.9438 -4.3083
0 4 2 -9.1565 56.8444
0 4 8 -0.4970 10.0008
0 5 -8 -6.6776 13.1726
0 5 -5 -1.1734 5.1426
0 5 -2 -28.3898 40.2051
0 5 1 0.3089 -24.4865
0 5 4 15.4291 -3.2999
0 5 7 -6.4704 -8.1569
0 6 -9 -1.7149 -2.8807
0 6 -6 1.2658 10.4429
0 6 -3 -12.1150 6.0618
0 6 0 186.7667 -2.3076
0 6 3 4.0107 -15.8791
0 6 6 3.1048 0.9169
0 6 9 3.9434 10.8224
0 7 -7 1.4830 1.3330
0 7 -4 -6.7513 23.4801
0 7 -1 -7.9694 3.7671
0 7 2 5.0263 -44.5890
0 7 5 1.4936 -3.4517
0 7 8 13.2104 -7.6208
0 8 -8 -2.3491 -5.3663
0 8 -5 11.5376 -4.5491
0 8 -2 6.7056 4.5095
0 8 1 -9.4234 5.1660
0 8 4 17.6130 -1.7261
0 8 7 -3.5407 0.9145
0 9 -9 -2.1931 -4.3687
0 9 -6 12.0786 -1.3826
0 9 -3 -6.4595 4.7441
0 9 0 1.7963 -53.9230
0 9 3 -5.9754 -4.1100
0 9 6 -1.1878 -18.6214
0 9 9 8.8419 3.8397
0 10 -7 -6.1854 -9.6009
0 10 -4 11.5980 0.3787
0 10 -1 -12.1926 -6.5498
0 10 2 -15.8842 21.3445
0 10 5 -6.1589 5.7086
0 10 8 -22.7687 0.8877
0 11 -8 -5.4627 -0.3687
0 11 -5 4.7706 -3.3991
0 11 -2 -0.3750 13.6303
0 11 1 1.3434 0.5738
0 11 4 -4.0683 9.7452
0 11 7 -0.8294 7.6377
0 12 -6 1.2989 -0.6088
0 12 -3 4.4275 -1.3413
0 12 0 11.7712 -1.8092
0 12 3 1.3047 5.0667
0 12 6 4.9454 1.2649
0 13 -7 -10.2588 3.8519
0 13 -4 3.2691 -1.7629
0 13 -1 -4.9457 0.7325
0 13 2 -0.2472 -2.2229
0 13 5 1.9429 -8.7585
0 14 -5 -3.9449 1.9435
0 14 -2 -9.9788 -5.9209
0 14 1 10.4059 -6.3408
0 14 4 -1.0524 -0.2136
0 14 7 -0.1683 -1.4693
0 15 -6 3.1047 -6.5605
0 15 -3 4.7344 -12.0622
0 15 0 -1.9801 -9.7371
0 15 3 -0.9381 -1.2260
0 15 6 -3.2464 6.2162
0 16 -4 -0.0098 -0.5360
0 16 -1 -14.4353 -0.2925
0 16 2 -9.3878 -0.5819
0 16 5 -4.9893 -2.7074
0 17 -5 2.4360 -3.1227
0 17 -2 3.0162 3.8997
0 17 1 -0.2846 3.5185
0 17 4 -0.0016 1.5366
0 18 -3 -9.8695 -3.5047
0 18 0 0.8306 10.9935
0 18 3 -0.9397 -8.1269
0 19 -4 5.3053 6.6011
0 19 -1 2.2056 3.5807
0 19 2 -1.3297 0.2898
0 20 -2 -7.4418 -12.0545
0 20 1 -6.8575 -3.9690
1 1 -9 2.9078 1.4659
1 1 -6 1.1010 7.0358
1 1 -3 8.6525 -22.4402
1 1 0 -26.3246 -0.6332
1 1 3 20.6746 -8.6227
1 1 6 0.9329 -4.5199
1 2 -10 12.6216 -7.6605
1 2 -7 -2.4486 0.4152
1 2 -4 2.5668 2.6013
1 2 -1 -14.9393 1.4512
1 2 2 -13.1692 -55.7024
1 2 5 3.4034 -9.0742
1 2 8 -8.0143 -4.1608
1 3 -8 -4.6205 -2.3882
1 3 -5 14.2458 6.4254
1 3 -2 26.4596 50.4696
1 3 1 -23.8531 4.9929
1 3 4 -6.7476 4.8355
1 3 7 2.1219 -9.2142
1 4 -9 -0.6310 -4.9866
1 4 -6 9.4215 -0.6769
1 4 -3 10.4813 9.9714
1 4 0 -2.5620 27.9448
1 4 3 -11.2560 8.2676
1 4 6 -2.0569 3.0058
1 4 9 -9.0596 6.5289
1 5 -7 -8.2201 -4.2349
1 5 -4 -1.1467 -7.4544
1 5 -1 18.0327 14.2557
1 5 2 -10.7092 -17.8700
1 5 8 -0.1629 2.1150
1 6 -8 5.2095 -0.8086
1 6 -5 -18.6606 -8.7417
1 6 -2 34.5544 2.9464
1 6 1 53.3187 -6.4571
1 6 7 -2.7317 3.6137
1 7 -9 -5.4432 -0.0904
1 7 -6 1.1660 8.0958
1 7 -3 -16.7490 10.1150
1 7 0 14.0570 -5.6402
1 7 6 1.3066 2.3934
1 7 9 2.9067 1.1717
1 8 -7 2.4546 6.0930
1 8 -4 7.0656 -10.9300
1 8 -1 -20.3872 -12.3724
1 8 5 -2.8215 10.9986
1 8 8 -3.7114 -3.2763
1 9 -8 -5.0990 -1.1748
1 9 -5 9.4297 0.9006
1 9 -2 12.4057 -10.3273
1 9 4 5.0158 6.2326
1 9 7 13.1713 5.4357
1 10 -6 0.6924 1.8600
1 10 -3 8.9351 -9.8786
1 10 0 4.4189 1.6315
1 10 3 5.6979 2.6441
1 10 6 1.7370 -2.0198
1 11 -7 2.7579 -1.1616
1 11 -4 -9.4165 -7.4869
1 11 -1 -0.8217 -0.3270
1 11 2 7.3166 -9.4553
1 11 5 -5.1689 -4.6248
1 11 8 -14.9933 -5.0839
1 12 -8 6.1062 0.9474
1 12 -5 -3.8254 -4.7455
1 12 -2 0.5205 -10.3144
1 12 1 39.3808 -12.0889
1 12 4 7.2546 -2.5702
1 12 7 1.5609 11.0973
1 13 -6 3.4648 -1.6677
1 13 -3 -1.8171 5.9113
1 13 0 -4.9917 -1.8047
1 13 3 10.0612 -6.1397
1 13 6 -1.5138 0.7720
1 14 -7 -6.0407 1.6628
1 14 -4 -5.3165 1.8970
1 14 -1 -4.2331 6.5223
1 14 2 -2.4034 3.7707
1 14 5 4.3684 0.2811
1 15 -5 -4.6261 0.8916
1 15 -2 5.8652 -0.6125
1 15 1 -3.3187 -4.0450
1 15 4 0.3854 3.0160
1 16 -6 0.2791 1.0063
1 16 -3 5.8121 -0.6069
1 16 0 3.8279 -2.5443
1 16 3 -3.0484 -9.2877
1 16 6 -4.2793 3.3955
1 17 -4 3.9309 -2.9144
1 17 -1 -2.0047 4.7373
1 17 2 5.5427 1.6813
1 17 5 1.6454 -2.7035
1 18 -2 -1.8665 -5.6386
1 18 1 -5.3737 7.8979
1 18 4 16.0556 7.5216
1 19 -3 -10.6475 1.3389
1 19 0 -1.6279 6.2300
1 19 3 -1.6971 -2.2852
2 1 -8 -5.8068 5.8584
2 1 -5 -6.4257 7.5026
2 1 -2 -10.3999 54.6037
2 1 1 2.9837 -8.6775
2 1 4 1.4722 -1.0392
2 1 7 -7.6744 5.3473
2 2 -9 7.7868 -4.5336
2 2 -6 -14.9826 -4.3198
2 2 -3 -6.7891 -6.4872
2 2 0 241.4326 -2.3461
2 2 3 -0.9074 3.1174
2 2 9 9.0244 6.9127
2 3 -7 0.1588 -4.3668
2 3 -4 -23.2972 23.3656
2 3 -1 -28.5419 -10.9805
2 3 2 23.8400 -23.4817
2 3 8 9.2556 3.3671
2 4 -8 -6.7334 -3.4066
2 4 -5 16.0753 -6.2952
2 4 -2 -7.6210 -17.0410
2 4 1 5.5313 -4.5595
2 4 4 30.5270 23.3876
2 4 7 -4.3294 -4.4428
2 5 -9 -4.3010 2.7054
2 5 -6 4.8770 0.9181
2 5 -3 -11.2144 -1.2893
2 5 0 -38.7542 -59.2417
2 5 3 6.3410 -18.0721
2 5 6 -2.7470 -3.6350
2 5 9 7.6049 -1.2560
2 6 -7 -8.0801 -4.2891
2 6 -4 30.0779 -13.0831
2 6 -1 -13.7498 24.8626
2 6 2 -17.0135 26.9102
2 6 5 -5.8454 -2.8907
2 6 8 -3.9465 2.1427
2 7 -8 -2.3087 2.2172
2 7 -5 0.9759 -5.1489
2 7 -2 -4.9183 5.8231
2 7 1 7.8028 -16.0326
2 7 4 -2.4192 -1.1119
2 7 7 -3.5411 -2.9392
2 8 -9 -7.2001 -3.6082
2 8 -6 0.3216 4.3012
2 8 -3 -3.4486 2.7283
2 8 0 78.6350 7.5543
2 8 3 -7.0584 1.8026
2 8 6 8.1416 4.9516
2 8 9 1.6905 -2.8413
2 9 -7 -4.7171 -0.8036
2 9 -4 1.1715 10.7343
2 9 -1 -11.7460 0.2074
2 9 2 2.3801 -17.5107
2 9 5 -3.1551 -0.3540
2 9 8 -2.1992 5.4916
2 10 -8 3.9804 -7.9775
2 10 -5 4.8778 -3.6181
2 10 -2 -3.3186 -1.4349
2 10 1 7.6901 0.6139
2 10 4 4.1849 -2.0186
2 10 7 1.0547 1.4681
2 11 -6 5.4526 -2.8647
2 11 -3 8.5467 -7.9491
2 11 0 -0.5092 -20.2613
2 11 3 8.2040 -3.5411
2 11 6 4.0247 -7.6075
2 12 -7 -0.3679 -1.0804
2 12 -4 6.0486 -1.2758
2 12 -1 -0.3621 -2.0293
2 12 2 -7.9492 6.6247
2 12 5 -0.5560 1.5967
2 13 -5 6.7059 -6.9356
2 13 -2 -4.1418 8.8435
2 13 1 2.9783 -6.0651
2 13 4 1.3752 1.5733
2 13 7 1.8219 5.7652
2 14 -6 0.5496 4.0767
2 14 -3 -5.0344 -1.2185
2 14 0 -7.0938 5.7382
2 14 3 -7.2794 -6.0117
2 14 6 0.0665 -0.6488
2 15 -4 -0.1351 6.0925
2 15 -1 -8.3149 5.7165
2 15 2 2.3951 4.7525
2 15 5 -7.3685 -3.7336
2 16 -5 -7.4922 -1.2113
2 16 -2 -10.4471 -0.3830
2 16 1 -3.0910 3.8367
2 16 4 0.1469 0.5773
2 17 -3 6.7371 -6.2919
2 17 0 8.3606 2.6348
2 17 3 -6.5160 6.9605
2 18 -4 0.3262 1.2480
2 18 -1 3.1575 -10.3989
2 18 2 -4.8810 -2.3870
2 19 -2 -4.4692 1.8015
2 19 1 0.8918 -1.9234
3 1 -10 9.2437 12.3216
3 1 -7 -1.8811 -6.3154
3 1 -4 -21.0113 -7.1401
3 1 -1 2.6066 19.0551
3 1 2 8.3750 -47.9318
3 1 5 -9.7274 2.0632
3 1 8 3.3455 -5.8629
3 2 -8 7.6114 -3.8906
3 2 -5 -3.5778 -5.4676
3 2 -2 34.3680 33.5063
3 2 1 5.7515 7.1312
3 2 4 -33.9435 -6.6180
3 2 7 -5.7312 6.1124
3 3 -9 2.6796 7.3161
3 3 -6 3.1745 9.6480
3 3 -3 -9.5475 -16.7500
3 3 0 15.0073 2.6593
3 3 3 18.0197 -23.1309
3 4 -7 0.9632 -3.5052
3 4 -4 11.1135 -5.0189
3 4 -1 -8.7578 -8.6625
3 4 2 -37.1951 -7.4980
3 4 8 -13.2989 -4.7604
3 5 -8 -9.4015 -2.0572
3 5 -5 1.0679 -9.9579
3 5 -2 19.4399 7.2591
3 5 1 -16.2546 21.8205
3 5 7 17.4059 4.1633
3 6 -9 -0.6552 -8.9897
3 6 -6 2.5529 2.1014
3 6 -3 -3.4295 -2.2946
3 6 0 -4.5361 21.9644
3 6 6 -2.2529 1.6290
3 6 9 -6.4137 3.0663
3 7 -7 -3.8776 4.2400
3 7 -4 -7.7184 -4.9211
3 7 -1 9.1614 2.4745
3 7 5 -4.3378 -11.6953
3 7 8 -4.2233 14.1858
3 8 -8 7.1425 -0.4204
3 8 -5 -7.7774 1.0722
3 8 -2 29.2147 0.2062
3 8 4 -0.6858 0.7019
3 8 7 8.9260 -1.5293
3 9 -6 4.8148 6.2319
3 9 -3 -12.1477 7.9411
3 9 0 -7.1188 2.3296
3 9 3 15.2531 -6.2627
3 9 6 2.9840 1.5307
3 10 -7 -0.2421 8.0839
3 10 -4 -8.1963 -8.0775
3 10 -1 -10.9957 3.1654
3 10 2 0.1891 -4.9813
3 10 5 -2.3901 -2.8180
3 10 8 -0.7575 -2.4242
3 11 -8 4.1758 -5.6372
3 11 -5 4.7269 2.4719
3 11 -2 0.7711 -4.2940
3 11 1 -21.6221 -0.3777
3 11 4 -2.5685 -1.5916
3 11 7 7.4640 -3.1455
3 12 -6 3.0948 -1.2106
3 12 -3 3.0120 7.0987
3 12 0 0.5331 7.3106
3 12 3 -5.8855 4.3970
3 12 6 -2.4942 -3.7454
3 13 -7 -0.7787 1.2086
3 13 -4 -0.7421 -4.8350
3 13 -1 3.8732 5.2145
3 13 2 8.8152 2.3388
3 13 5 2.1366 -1.9695
3 14 -5 -4.5068 -5.3550
3 14 -2 4.1864 -13.2260
3 14 1 11.3786 -0.2719
3 14 4 10.9279 -1.1222
3 15 -6 1.5316 -5.3808
3 15 -3 -2.5695 4.4392
3 15 0 6.5763 -8.9867
3 15 3 2.2346 -2.3966
3 15 6 -7.1907 5.1065
3 16 -4 -4.3374 0.2036
3 16 -1 -6.3582 -8.6946
3 16 2 -7.1920 0.6794
3 16 5 -3.5466 -2.7347
3 17 -2 -6.5256 1.2695
3 17 1 -3.9426 -5.0604
3 17 4 0.9212 2.9904
3 18 -3 5.6657 -4.6642
3 18 0 6.0675 1.1181
3 18 3 -2.8083 -9.8603
4 1 -9 -4.1898 5.1889
4 1 -6 -7.5860 -2.1941
4 1 -3 -1.3831 4.2832
4 1 0 -10.7322 -31.8684
4 1 3 5.9427 14.1511
4 1 6 8.8040 3.4124
4 2 -7 3.5124 -1.6255
4 2 -4 32.5827 -26.3641
4 2 -1 -7.7241 18.0702
4 2 2 -14.8276 21.1241
4 2 5 8.0937 -8.2537
4 3 -8 -14.8095 3.0752
4 3 -5 -2.3003 6.9620
4 3 -2 -32.0141 20.0792
4 3 1 29.9408 -29.2713
4 3 4 8.7290 1.4180
4 3 7 -5.5880 4.6424
4 4 -9 7.5563 2.8406
4 4 -6 2.8604 13.4403
4 4 -3 1.5342 18.3348
4 4 0 144.6506 19.8549
4 4 3 -8.7894 -12.2945
4 4 6 3.6727 -6.5122
4 5 -7 -4.1734 -14.1675
4 5 -4 -3.8586 15.7604
4 5 -1 -24.0785 -7.1446
4 5 2 14.2886 -12.0830
4 5 8 -5.7585 3.1995
4 6 -8 7.6699 -0.5241
4 6 -5 15.1944 -16.7072
4 6 -2 4.6023 5.9740
4 6 1 -0.4733 4.1255
4 6 7 7.1306 -3.4996
4 7 -9 -1.5113 -4.5665
4 7 -6 0.8399 -5.1667
4 7 -3 -6.5583 -17.0677
4 7 0 -12.3895 -27.1640
4 7 3 -1.4381 -8.9950
4 7 6 -4.1782 -6.2806
4 8 -7 -10.1533 2.3692
4 8 -4 7.1415 1.0438
4 8 -1 -4.2391 20.2008
4 8 2 -1.7987 17.7935
4 8 5 -3.8314 -2.9643
4 8 8 -12.2606 13.8024
4 9 -8 -2.0506 -12.4284
4 9 -5 -1.5085 -0.4961
4 9 -2 4.6481 8.4967
4 9 1 0.1894 -15.7577
4 9 4 -4.5920 6.5187
4 9 7 -2.1007 -2.5447
4 10 -6 -0.9252 0.6626
4 10 -3 4.2500 1.0211
4 10 0 6.5875 9.5182
4 10 3 -12.3535 5.3714
4 10 6 1.2397 8.1826
4 11 -7 -0.0849 -3.4178
4 11 -4 -2.0912 -1.5984
4 11 -1 -4.2172 -3.4592
4 11 2 13.7156 -6.3730
4 11 5 -6.3235 1.2090
4 12 -5 0.2153 0.5612
4 12 -2 -11.9151 -10.8977
4 12 1 -3.4035 -1.6875
4 12 4 1.0165 1.6640
4 12 7 -1.5187 -3.8050
4 13 -6 11.0516 -11.7207
4 13 -3 8.7972 -9.0454
4 13 0 -3.2532 -10.7162
4 13 3 2.1760 9.6038
4 13 6 -0.1243 8.2814
4 14 -4 -0.6529 0.4468
4 14 -1 -3.3486 0.3903
4 14 2 -6.8341 -5.6212
4 14 5 -2.1972 4.3629
4 15 -5 6.0590 -2.3569
4 15 -2 -9.7536 4.8556
4 15 1 7.5536 7.2660
4 15 4 2.7247 -7.1216
4 16 -3 -0.3895 2.7683
4 16 0 7.0569 -0.8861
4 16 3 -2.1097 -8.0878
4 17 -1 -0.4664 -0.4304
4 17 2 -2.6017 3.7314
4 18 1 -3.4375 -0.9580
5 1 -8 -8.2135 -6.1440
5 1 -5 2.6904 -7.8253
5 1 -2 -3.4645 31.7328
5 1 1 -13.6766 16.2702
5 1 4 3.1658 18.8879
5 1 7 0.9953 -2.5355
5 2 -9 4.7948 0.1677
5 2 -6 2.1622 6.2122
5 2 -3 5.7621 10.4906
5 2 0 -24.3732 67.5994
5 2 3 -8.4269 -8.1351
5 2 6 8.4513 3.2196
5 3 -7 0.7270 -6.0225
5 3 -4 -24.0767 -15.5765
5 3 -1 54.6267 3.1569
5 3 2 13.3729 2.8252
5 3 5 -10.0791 -2.5343
5 4 -8 2.4932 1.8061
5 4 -5 -7.1851 0.1233
5 4 -2 16.6209 28.4886
5 4 1 40.2390 -9.2014
5 4 4 -7.9704 -5.0240
5 4 7 8.2650 2.1008
5 5 -9 -5.2123 -6.8181
5 5 -6 2.2930 9.7232
5 5 -3 -16.1034 -8.3640
5 5 0 7.1430 10.2335
5 5 6 -0.6281 -9.9015
5 6 -7 -5.3380 1.1922
5 6 -4 -1.9387 1.1494
5 6 -1 -23.7025 -12.6575
5 6 5 -2.5574 5.5183
5 6 8 0.0283 5.4772
5 7 -8 2.9357 -1.5565
5 7 -5 6.1351 -4.4510
5 7 -2 23.4235 3.8657
5 7 1 -26.8993 1.1018
5 7 4 -1.4498 -1.4732
5 7 7 12.0878 1.9278
5 8 -6 4.0835 -2.5588
5 8 -3 -9.4283 -9.3800
5 8 0 -2.5768 17.6594
5 8 3 -0.8930 1.8965
5 8 6 -4.4719 -1.6995
5 9 -7 6.8714 6.4512
5 9 -4 -7.1363 -12.0321
5 9 -1 2.1029 -3.8269
5 9 2 22.8727 -6.7475
5 9 5 1.2792 -10.0621
5 9 8 0.6782 3.3166
5 10 -5 -6.0318 -5.2499
5 10 -2 9.6195 -2.3001
5 10 1 19.1504 -2.9342
5 10 4 3.0740 -2.8767
5 10 7 -0.3904 -0.7929
5 11 -6 5.5255 -4.3083
5 11 -3 -2.5969 10.5058
5 11 0 -4.1092 -0.4487
5 11 3 8.9926 5.4408
5 11 6 -0.6249 4.0075
5 12 -7 -8.7678 1.5528
5 12 -4 -12.1811 1.3520
5 12 -1 -4.7875 -4.1074
5 12 2 -2.4013 -6.4809
5 12 5 1.2509 -3.3414
5 13 -5 6.6405 2.5800
5 13 -2 2.7498 -1.4919
5 13 1 -0.5899 -6.3536
5 13 4 -7.6827 2.6378
5 14 -3 2.3911 -0.1878
5 14 0 1.3799 -2.0518
5 14 3 -3.1194 -3.2984
5 15 -4 0.8932 -2.9969
5 15 -1 -4.9246 6.5722
5 15 2 6.2018 1.8298
5 15 5 -1.4990 1.9550
5 16 -2 0.9107 -6.5708
5 16 1 2.8630 0.4976
5 16 4 7.5535 6.4424
5 17 0 -2.0906 -0.5553
6 1 -7 3.3821 -2.4178
6 1 -4 -6.9258 -6.7536
6 1 -1 -40.1863 -33.4532
6 1 2 29.5942 -0.6150
6 1 5 14.8073 -7.0916
6 1 8 -3.5675 6.3482
6 2 -8 0.9522 -3.6675
6 2 -5 4.0590 -5.8489
6 2 -2 -18.7663 -17.0887
6 2 1 -14.4823 -2.4057
6 2 4 18.9537 9.2324
6 2 7 -4.3399 -0.1555
6 3 -9 -2.2211 6.6874
6 3 -6 -5.9547 -5.0583
6 3 -3 -1.8101 -8.6182
6 3 0 -15.5139 -5.0847
6 3 3 -1.3908 -17.0593
6 3 6 0.2598 -0.5834
6 4 -7 -2.7534 -2.0503
6 4 -4 11.9398 -1.6335
6 4 -1 -5.6841 29.2986
6 4 2 -0.7962 6.8414
6 4 5 -3.9911 -5.9874
6 5 -8 -1.5195 -2.2522
6 5 -5 5.5203 2.1240
6 5 -2 -3.2952 3.6954
6 5 7 -4.3868 3.7467
6 6 -6 -1.5479 -6.4217
6 6 -3 0.0145 0.7634
6 6 0 41.3282 24.6874
6 6 6 5.2030 11.0441
6 7 -7 -4.1847 -8.5111
6 7 -4 -2.3305 -1.1747
6 7 -1 -13.5337 -3.7953
6 7 2 24.3184 -12.8676
6 7 5 3.7322 7.3004
6 8 -8 6.8334 -5.5729
6 8 -5 6.5595 -3.7821
6 8 -2 0.2774 1.3293
6 8 1 -5.9977 4.2549
6 8 4 -2.8758 -2.1576
6 8 7 3.8289 -1.9711
6 9 -6 0.8783 -2.9857
6 9 -3 8.9348 -6.0662
6 9 0 1.9782 -16.8384
6 9 3 7.8598 8.4421
6 9 6 3.7475 4.4905
6 10 -7 -0.6165 6.6848
6 10 -4 2.2963 -4.4969
6 10 -1 -4.8203 2.1722
6 10 2 -6.7232 -1.6767
6 10 5 2.1360 2.2555
6 11 -5 5.2196 -4.5373
6 11 -2 -7.0301 5.5860
6 11 1 -0.3675 -0.0393
6 11 4 2.5037 -0.8734
6 11 7 -2.7943 1.6307
6 12 -6 2.4905 -3.8064
6 12 -3 -2.2495 -1.9797
6 12 0 0.2801 -0.8069
6 12 3 -7.2663 -3.4491
6 12 6 2.9632 -0.6869
6 13 -4 -6.8097 8.4797
6 13 -1 -5.8201 7.8892
6 13 2 6.4285 5.5351
6 13 5 -6.1770 -1.0291
6 14 -5 -0.7953 2.0064
6 14 -2 -7.5800 -1.0108
6 14 1 -4.0878 0.8794
6 14 4 3.0888 -0.3132
6 15 -3 10.3721 -6.5594
6 15 0 0.4707 -5.0849
6 15 3 -2.4246 4.6802
6 16 -1 12.4824 -2.1708
6 16 2 0.3939 -4.0808
7 1 -9 -4.0513 -12.3818
7 1 -6 4.2496 2.8057
7 1 -3 3.5861 -12.2120
7 1 0 24.6226 11.5936
7 1 3 8.2354 -0.4707
7 1 6 -3.2051 -2.8726
7 1 9 -0.8244 -2.9307
7 2 -7 -5.2679 1.6895
7 2 -4 3.7527 -0.7572
7 2 -1 -10.8526 -9.9036
7 2 2 -9.6006 -4.9111
7 2 5 3.1578 5.4844
7 2 8 -5.1871 -2.5699
7 3 -8 -5.3512 -8.7803
7 3 -5 -0.4701 -14.0892
7 3 -2 17.2656 11.8458
7 3 1 -11.6675 10.6999
7 3 4 3.0505 12.9871
7 3 7 3.0711 2.7805
7 4 -9 -4.4219 -3.1907
7 4 -6 1.7024 5.7123
7 4 -3 -19.6704 -9.2724
7 4 0 -7.9307 37.0819
7 4 3 -3.1787 -9.9846
7 4 6 11.4357 -0.2948
7 5 -7 1.8136 1.6097
7 5 -4 -12.0262 -3.8777
7 5 -1 37.3834 7.8940
7 5 5 -7.5984 -12.1888
7 6 -8 2.9395 1.3833
7 6 -5 5.9822 10.8654
7 6 -2 5.2399 17.0934
7 6 1 29.6305 0.4477
7 6 4 2.9007 -1.5275
7 6 7 -0.7686 2.2929
7 7 -6 1.3106 -2.6073
7 7 -3 -3.5162 -3.0588
7 7 0 -14.9969 2.3304
7 7 3 11.5004 10.5530
7 7 6 0.5107 -1.0223
7 8 -7 -6.0060 2.3024
7 8 -4 -9.5950 -6.3494
7 8 -1 -14.8889 -7.9997
7 8 2 -1.5158 -11.5444
7 8 5 2.5874 1.2089
7 9 -5 7.2967 -3.0525
7 9 -2 10.9940 7.2545
7 9 1 -6.0597 1.7925
7 9 4 -2.8839 5.8421
7 9 7 5.9631 -0.1127
7 10 -6 -1.5641 -1.5520
7 10 -3 -10.8905 3.6711
7 10 0 -0.2288 9.0394
7 10 3 2.5671 0.8076
7 10 6 -1.3667 -14.6641
7 11 -4 -2.7116 -3.6096
7 11 -1 3.9672 3.4382
7 11 2 3.6833 -0.5144
7 11 5 -2.5224 -4.1323
7 12 -5 -6.3780 -6.9719
7 12 -2 12.2421 -7.9682
7 12 1 11.7350 -7.3004
7 12 4 0.5026 0.1934
7 13 -3 0.7303 -0.5542
7 13 0 -5.6122 -4.5535
7 13 3 -5.8106 5.0790
7 14 -4 -6.1226 0.7406
7 14 -1 -9.6775 -9.7635
7 14 2 -4.7663 8.7490
7 15 -2 -3.1754 -5.3887
7 15 1 -0.4284 -2.6007
7 16 0 1.2782 7.7875
8 1 -8 -3.2174 1.2694
8 1 -5 -5.9617 3.7147
8 1 -2 -1.6732 15.7856
8 1 1 6.3002 -10.6365
8 1 4 -3.8362 1.0114
8 1 7 -1.4051 1.7787
8 2 -9 1.7154 2.5139
8 2 -6 5.1514 0.9361
8 2 -3 -5.5556 9.5908
8 2 0 82.4924 15.9264
8 2 3 -13.0099 0.3595
8 2 6 3.9614 2.1088
8 3 -7 3.5653 -4.3088
8 3 -4 12.5538 -7.8971
8 3 -1 -35.3045 -4.5022
8 3 2 16.7046 -3.2445
8 3 5 11.0067 -0.9634
8 3 8 -3.7766 -6.3547
8 4 -8 -0.9158 -6.4972
8 4 -5 6.3586 -5.0559
8 4 -2 -2.2453 -13.6806
8 4 1 -7.2219 16.2776
8 4 4 2.2076 0.7757
8 5 -6 -4.9148 -2.8428
8 5 -3 -1.1170 -3.0729
8 5 0 -4.8248 -9.9586
8 5 3 -0.2565 -4.5623
8 5 6 13.8444 3.7326
8 6 -7 -5.6712 -0.5878
8 6 -4 -3.3967 -6.5465
8 6 -1 -2.3211 18.9268
8 6 2 -5.6166 6.7029
8 6 5 -3.0927 -6.9656
8 7 -5 -1.2927 -1.9862
8 7 -2 -6.3965 9.9260
8 7 1 13.7015 -6.1756
8 7 4 -5.1351 3.6589
8 8 -6 -7.4387 -6.6580
8 8 -3 5.1867 -2.0712
8 8 0 0.9977 5.2355
8 8 3 -10.4934 -5.2129
8 8 6 -3.2596 4.2938
8 9 -7 9.2094 -0.2526
8 9 -4 1.5608 1.1890
8 9 -1 -4.4674 -3.1777
8 9 2 7.9729 -4.1069
8 9 5 0.0292 5.8829
8 10 -5 0.8965 -4.5910
8 10 -2 -2.2565 -3.6030
8 10 1 -7.7398 1.4854
8 10 4 5.0105 10.7550
8 11 -6 12.5358 -2.9139
8 11 -3 9.4043 0.0891
8 11 0 2.2946 -7.4147
8 11 3 4.2126 6.1089
8 11 6 3.8399 9.8054
8 12 -4 -2.1037 -3.5049
8 12 -1 -0.4227 -2.0779
8 12 2 -0.8409 -3.0056
8 12 5 2.1521 2.2766
8 13 -2 -8.1493 -5.0063
8 13 1 5.2527 -1.1624
8 13 4 6.7021 -15.0267
8 14 -3 5.1573 -3.4545
8 14 0 6.2367 -4.3694
8 14 3 -5.6013 0.3739
8 15 -1 -4.1671 4.1964
8 15 2 3.3695 5.7669
9 1 -7 5.1232 -6.8960
9 1 -4 -1.9456 1.3522
9 1 -1 62.8745 13.9529
9 1 2 17.9299 8.9806
9 1 5 -6.5017 -1.0621
9 1 8 -0.6209 -5.7711
9 2 -8 0.9476 -5.6828
9 2 -5 2.4702 1.1965
9 2 -2 -1.5146 20.9941
9 2 1 11.2389 4.8539
9 2 4 5.0358 -8.3465
9 2 7 -3.6347 2.3504
9 3 -6 -0.2888 2.1583
9 3 -3 -9.7141 -10.0688
9 3 0 -4.4564 -6.7857
9 3 3 11.5636 15.8305
9 3 6 1.4373 -6.0212
9 4 -7 -9.1755 -4.1291
9 4 -4 -3.0155 -9.5852
9 4 -1 -14.4430 -3.9161
9 4 2 -4.9526 -8.9585
9 4 5 1.7312 -2.0626
9 5 -8 -5.4365 6.5761
9 5 -5 2.9805 -3.6221
9 5 -2 14.3308 5.4001
9 5 1 0.5898 5.3200
9 5 4 5.4042 11.7314
9 6 -6 2.0709 1.6173
9 6 -3 -14.5709 -0.8542
9 6 0 -12.7567 11.9604
9 6 3 -1.0493 -6.7558
9 6 6 0.5320 -7.9461
9 7 -7 7.2940 4.5634
9 7 -4 -1.9380 -4.6178
9 7 -1 16.8185 7.3617
9 7 2 9.7505 4.0747
9 7 5 -4.6834 -0.2265
9 8 -5 -4.8458 -8.8878
9 8 -2 -1.0332 1.1330
9 8 1 17.3862 3.7545
9 8 4 1.3998 -0.8094
9 9 -6 1.9747 0.6081
9 9 -3 1.7427 3.8138
9 9 0 -7.6518 3.2492
9 9 3 5.6676 4.9564
9 9 6 3.6360 -2.8086
9 10 -4 -2.1266 3.4085
9 10 -1 -5.5749 -16.3918
9 10 2 -6.2836 -7.6279
9 10 5 1.0719 -0.4322
9 11 -5 3.7370 11.8043
9 11 -2 5.8636 1.2646
9 11 1 -4.5460 3.7013
9 11 4 -9.7574 6.3144
9 12 -3 -2.2398 -4.0828
9 12 0 -0.6898 9.0661
9 12 3 -2.6603 4.5287
9 13 -1 -3.8674 5.1042
9 13 2 5.9111 3.1082
9 14 1 9.2702 1.0842
10 1 -6 -3.9980 1.2849
10 1 -3 -1.1710 7.0492
10 1 0 1.8193 4.4157
10 1 3 -3.5505 -10.8413
10 1 6 8.7760 -4.5169
10 2 -7 1.2473 -1.1461
10 2 -4 6.7451 5.5884
10 2 -1 -1.9564 17.1354
10 2 2 -6.3420 2.0799
10 2 5 -1.7269 -4.0217
10 2 8 2.9943 -4.4091
10 3 -8 -0.2033 4.4427
10 3 -5 -1.5474 -5.6036
10 3 -2 4.0060 11.7096
10 3 4 -9.0565 6.8776
10 3 7 1.4985 8.0873
10 4 -6 -1.5321 -1.9039
10 4 -3 2.8405 -4.2348
10 4 0 9.7089 4.0489
10 4 3 -7.9239 -6.5277
10 4 6 2.6117 11.4448
10 5 -7 3.8480 -0.5892
10 5 -4 11.1582 -12.8992
10 5 -1 -7.9979 -0.1675
10 5 2 10.1551 -1.7182
10 5 5 7.9592 -3.5262
10 6 -5 -1.8290 -2.7277
10 6 -2 -3.6209 -8.6773
10 6 1 -3.0624 -0.2963
10 6 4 4.6579 6.2323
10 7 -6 1.2235 9.6190
10 7 -3 8.1790 10.9218
10 7 0 -1.0126 -8.1002
10 7 3 -4.8766 -0.2335
10 8 -4 5.9056 -10.3534
10 8 -1 -2.9417 -5.7152
10 8 2 -4.6750 -3.2223
10 8 5 -3.3367 0.3874
10 9 -5 -3.0060 0.7581
10 9 -2 -9.0249 0.6171
10 9 1 -0.3129 -0.3627
10 9 4 -1.2507 -4.6739
10 10 -3 3.3170 -12.4297
10 10 0 11.4206 3.4929
10 10 3 2.8187 3.7929
10 11 -4 -3.9303 7.5214
10 11 -1 -16.1264 7.2917
10 11 2 4.5814 3.3323
10 12 -2 0.2275 1.2192
10 12 1 1.7861 1.5203
10 12 4 -1.5733 -4.2803
10 13 0 3.4726 -11.8485
11 1 -8 -15.0645 6.1269
11 1 -5 6.0761 -6.9527
11 1 -2 3.8585 6.1926
11 1 4 3.7634 7.6566
11 1 7 -6.5539 0.8728
11 2 -6 -0.4326 5.6821
11 2 -3 -11.4438 -5.4145
11 2 0 -1.5945 14.7519
11 2 3 0.1314 -4.7431
11 2 6 6.2732 -2.8359
11 3 -7 -1.9996 -4.2015
11 3 -4 2.3887 6.4309
11 3 -1 30.6082 14.7308
11 3 2 1.7383 10.2012
11 3 5 -6.7200 -1.8092
11 4 -5 2.1179 2.6571
11 4 -2 -7.5143 6.4416
11 4 1 9.1163 2.7645
11 4 4 1.0221 3.5123
11 4 7 -4.0939 -3.0311
11 5 -6 -4.3521 7.3717
11 5 -3 -0.1775 1.1650
11 5 0 -13.0442 -0.7932
11 5 3 0.0976 2.6417
11 6 -7 -5.0765 -5.0609
11 6 -4 6.6337 -4.9821
11 6 -1 -2.6423 -10.9935
11 6 2 -4.7717 -1.9017
11 6 5 6.5583 -1.5575
11 7 -5 -0.9979 1.0162
11 7 -2 3.4645 -0.9193
11 7 1 -1.8484 9.4966
11 7 4 4.4480 14.4626
11 8 -6 3.6758 -3.2697
11 8 -3 -2.7644 2.1857
11 8 0 1.0934 8.8342
11 8 3 0.2920 0.1484
11 9 -4 -6.0035 0.7754
11 9 -1 0.2730 7.0478
11 9 2 4.6241 -4.2825
11 9 5 -4.3026 3.3576
11 10 -2 10.4479 -3.4117
11 10 1 9.3536 5.7206
11 10 4 -4.6620 -4.6182
11 11 -3 -2.1252 -5.6163
11 11 0 -11.7615 1.0845
11 11 3 3.6980 15.0552
11 12 -1 -1.0340 0.5460
11 12 2 -3.2301 7.3285
12 1 -7 6.9921 8.3039
12 1 -4 2.8534 -4.0547
12 1 -1 -20.7601 -3.9673
12 1 2 0.2240 6.1464
12 1 5 4.1159 -6.0999
12 2 -5 5.3368 2.7360
12 2 -2 -3.2985 -7.5697
12 2 1 -5.2845 5.4839
12 2 4 8.6763 3.8532
12 2 7 -0.2628 10.5433
12 3 -6 -1.5637 5.6344
12 3 -3 6.0411 4.7036
12 3 0 -1.3366 1.4097
12 3 3 -5.9328 -2.8087
12 3 6 6.1439 4.7932
12 4 -7 0.9899 -2.2271
12 4 -4 8.3550 -5.4028
12 4 -1 6.5967 -0.1236
12 4 2 -1.9539 0.6035
12 4 5 -2.4552 -5.3887
12 5 -5 -7.8763 -9.5442
12 5 -2 -9.6769 4.4979
12 5 1 10.6629 -8.9145
12 5 4 -8.8675 4.0471
12 6 -6 -1.6095 -2.9783
12 6 -3 3.6475 -5.3768
12 6 0 5.6984 -0.5985
12 6 3 0.4775 -7.2739
12 7 -4 5.2999 -2.5992
12 7 -1 -14.8973 -0.3085
12 7 2 -1.4215 1.4512
12 8 -5 5.6092 -1.9852
12 8 -2 4.5004 -0.6370
12 8 1 1.7073 1.9000
12 8 4 2.3078 7.1954
12 9 -3 5.4586 2.3348
12 9 0 1.2664 -10.1486
12 9 3 0.3103 -1.8162
12 10 -4 0.0092 -4.3678
12 10 -1 2.5360 2.9290
12 10 2 3.3419 -5.4564
12 11 -2 -9.6045 -11.8340
12 11 1 -0.2070 -11.2568
12 12 0 -1.3755 8.1392
13 1 -6 -0.4542 -3.1456
13 1 -3 -3.9844 -9.3295
13 1 0 -7.6446 -6.9291
13 1 3 5.6980 0.5852
13 1 6 2.0246 0.8765
13 2 -7 -9.7994 -3.5763
13 2 -4 -3.3514 -5.1224
13 2 -1 -0.3801 -3.3878
13 2 2 -2.5590 -3.6504
13 2 5 4.3837 -1.2100
13 3 -5 2.9546 -5.5986
13 3 -2 -0.4017 -2.1683
13 3 1 -5.9058 -1.4869
13 3 4 5.2635 10.5834
13 3 7 -1.0226 3.9966
13 4 -6 -2.9227 -3.5212
13 4 -3 -6.6346 6.2582
13 4 0 -4.1174 12.2861
13 4 3 -1.4205 -0.1460
13 4 6 1.4761 -3.6620
13 5 -4 3.4641 5.0839
13 5 -1 9.0667 6.7216
13 5 2 2.1403 3.9559
13 5 5 -3.0477 4.1330
13 6 -5 0.3733 -4.0882
13 6 -2 1.0630 -6.2249
13 6 1 9.7302 11.8625
13 6 4 -1.5726 0.7427
13 7 -3 -2.7395 -1.2912
13 7 0 -3.7528 -4.2644
13 7 3 3.8747 -2.8354
13 8 -4 8.9217 5.8377
13 8 -1 -1.1551 4.1637
13 8 2 -6.9051 4.4187
13 9 -2 5.5798 -8.2830
13 9 1 -0.4713 -0.1202
13 10 0 -6.3141 8.7137
14 1 -5 -0.7894 -0.5097
14 1 -2 3.5014 4.6237
14 1 1 6.2184 -8.4504
14 1 4 -4.6168 7.5438
14 1 7 4.1075 1.1119
14 2 -6 4.9214 0.7155
14 2 -3 3.6183 -3.9500
14 2 0 -1.5633 -6.4100
14 2 3 1.2342 -1.0497
14 2 6 2.9404 -3.0319
14 3 -4 8.4279 -6.0087
14 3 -1 -8.1665 -3.0693
14 3 2 5.2091 0.8935
14 3 5 -6.2389 -7.4328
14 4 -5 3.2644 -1.4893
14 4 -2 -5.0885 -5.1697
14 4 1 -4.5789 -2.9962
14 4 4 2.3944 7.2302
14 5 -3 5.4612 -2.9001
14 5 0 -5.3857 -3.5736
14 5 3 -2.0209 -9.8823
14 6 -4 5.8533 0.2062
14 6 -1 4.0944 3.1595
14 6 2 -7.7268 -9.8452
14 7 -2 -7.8277 -10.0387
14 7 1 7.9039 -6.2154
14 8 -3 -3.5112 -2.6789
14 8 0 1.4428 6.3865
14 8 3 -1.0027 0.5530
14 9 -1 -3.7795 3.1419
14 9 2 -0.7712 2.4877
15 1 -4 10.1224 -0.7253
15 1 -1 11.0029 -2.6146
15 1 2 0.0088 4.3441
15 1 5 -5.5719 -2.1567
15 2 -5 -3.6943 4.9899
15 2 -2 -1.3639 -2.1550
15 2 1 -7.5674 0.0752
15 2 4 -2.0322 2.9521
15 3 -6 -7.3756 1.7219
15 3 -3 -2.5720 2.2182
15 3 0 -1.0112 -3.8263
15 3 3 3.2873 -5.0666
15 3 6 1.7111 -1.8856
15 4 -4 4.4867 7.0871
15 4 -1 -3.0472 2.7699
15 4 2 -6.0403 4.7314
15 4 5 -0.8401 -2.2367
15 5 -5 1.5690 -6.2827
15 5 -2 4.8751 -9.9169
15 5 1 -1.5775 1.2581
15 5 4 0.5643 7.7829
15 6 -3 -1.1279 0.3660
15 6 0 0.5211 2.3699
15 6 3 -5.6361 -0.9707
15 7 -1 7.8559 5.6592
15 7 2 -1.5467 -0.7215
15 8 -2 1.0235 -0.5675
15 8 1 2.8211 12.1609
16 1 -6 -5.3351 2.2919
16 1 -3 13.7305 -0.5441
16 1 0 3.2541 5.7920
16 1 3 -2.8623 0.8711
16 1 6 -1.3526 1.9396
16 2 -4 4.2934 2.0830
16 2 -1 3.1965 -1.9836
16 2 2 -4.1804 -9.1092
16 2 5 -6.8129 -2.2417
16 3 -5 5.0969 -5.5936
16 3 -2 -4.0728 -2.7274
16 3 1 8.1084 -3.5059
16 3 4 -4.7506 10.3084
16 4 -3 -5.6412 -2.1437
16 4 0 -0.6389 -6.2486
16 4 3 -0.2293 -0.8299
16 5 -4 6.8523 -4.2453
16 5 -1 -3.8246 5.5313
16 5 2 -1.4614 -2.1582
16 6 -2 -3.4406 1.9858
16 6 1 -0.6250 0.7647
16 7 0 1.4261 -6.8612
17 1 -5 -2.7801 -3.9623
17 1 -2 -2.0283 -0.4156
17 1 1 -7.7932 -1.7047
17 2 -3 -6.5238 -3.7828
17 2 0 7.4803 -2.2042
17 2 3 -3.7027 1.0172
17 3 -4 6.9021 1.3229
17 3 -1 1.8621 -2.4326
17 3 2 -3.8073 0.5680
17 4 -2 -2.3816 -3.3280
17 4 1 -0.2616 6.5928
17 5 0 -5.1949 -8.1831
17 6 -1 -7.1870 4.5154
18 1 -4 7.9582 -4.7117
18 1 -1 -9.2452 7.3533
18 1 2 5.5798 3.6455
18 2 -2 -9.4339 -1.0006
18 2 1 -0.5885 4.6200
18 2 4 -0.2739 0.8319
18 3 -3 7.0246 -8.3811
18 3 0 -6.1394 -4.9177
18 3 3 -0.9990 -3.5701
18 4 -1 0.6128 1.6470
19 1 -3 -3.2128 7.2726
19 1 0 -3.8762 -11.2596
19 1 3 -7.7053 2.1101
19 2 -1 -5.9467 6.4079
0 0 0 0.0 0.0
;
_shelx_fab_checksum              3298
_olex2_submission_special_instructions 'No special instructions were received'
_oxdiff_exptl_absorpt_empirical_details
;
Empirical correction (ABSPACK) includes:
- Absorption correction using spherical harmonics
- Frame scaling
;
_oxdiff_exptl_absorpt_empirical_full_max 4.602
_oxdiff_exptl_absorpt_empirical_full_min 0.472
loop_
_space_group_symop_operation_xyz
'x, y, z'
'-y, x-y, z'
'-x+y, -x, z'
'x+2/3, y+1/3, z+1/3'
'-y+2/3, x-y+1/3, z+1/3'
'-x+y+2/3, -x+1/3, z+1/3'
'x+1/3, y+2/3, z+2/3'
'-y+1/3, x-y+2/3, z+2/3'
'-x+y+1/3, -x+2/3, z+2/3'
loop_
_atom_site_label
_atom_site_type_symbol
_atom_site_fract_x
_atom_site_fract_y
_atom_site_fract_z
_atom_site_U_iso_or_equiv
_atom_site_adp_type
_atom_site_occupancy
_atom_site_site_symmetry_order
_atom_site_calc_flag
_atom_site_refinement_flags_posn
_atom_site_refinement_flags_adp
_atom_site_refinement_flags_occupancy
_atom_site_disorder_assembly
_atom_site_disorder_group
Zn2 Zn 0.68194(16) 0.64767(16) 1.2195(2) 0.0506(11) Uani 1 1 d . . . . .
Zn1 Zn 0.34884(16) 0.36604(15) 1.0483(2) 0.0494(11) Uani 1 1 d . . . . .
N5 N 0.6596(10) 0.5924(9) 1.0601(17) 0.037(4) Uani 1 1 d . U . . .
N2 N 0.3268(10) 0.4002(11) 0.8963(18) 0.048(5) Uani 1 1 d . U . . .
O5 O 0.4271(11) 0.3651(10) 1.0328(16) 0.064(5) Uani 1 1 d . U . . .
N4 N 0.6632(11) 0.6101(10) 0.9462(19) 0.047(4) Uani 1 1 d . U . . .
O1 O 0.0701(9) 0.4321(9) 0.6907(16) 0.050(4) Uani 1 1 d . U . . .
O4 O 0.4014(10) 0.3061(10) 0.8541(18) 0.064(5) Uani 1 1 d . U . . .
O2 O 0.0939(10) 0.3959(11) 0.8677(16) 0.059(5) Uani 1 1 d . U . . .
O6 O 0.5765(10) 0.4249(9) 0.7755(17) 0.066(6) Uani 1 1 d . U . . .
O3 O 0.2390(10) 0.4835(10) 0.6103(19) 0.066(5) Uani 1 1 d . U . . .
N3 N 0.2190(11) 0.4925(12) 0.827(2) 0.059(6) Uani 1 1 d . U . . .
H3 H 0.2332 0.4965 0.9081 0.071 Uiso 1 1 calc R . . . .
C4 C 0.2489(13) 0.4775(14) 0.732(2) 0.052(6) Uani 1 1 d . U . . .
N6 N 0.5525(13) 0.3928(12) 0.981(2) 0.062(6) Uani 1 1 d . U . . .
H6 H 0.5632 0.4013 1.0640 0.074 Uiso 1 1 calc R . . . .
C3 C 0.2860(13) 0.4460(13) 0.779(2) 0.046(5) Uani 1 1 d . U . . .
N1 N 0.3295(11) 0.3846(12) 0.771(2) 0.058(5) Uani 1 1 d . U . . .
C11 C 0.5893(17) 0.4412(15) 0.893(3) 0.064(7) Uani 1 1 d . U . . .
C2 C 0.3058(13) 0.4428(14) 0.898(2) 0.048(5) Uani 1 1 d . U . . .
H2 H 0.3053 0.4664 0.9722 0.058 Uiso 1 1 calc R . . . .
C10 C 0.6214(14) 0.5060(13) 0.941(2) 0.054(6) Uani 1 1 d . U . . .
C6 C 0.1076(14) 0.4388(15) 0.780(2) 0.054(6) Uani 1 1 d . U . . .
C9 C 0.6367(13) 0.5338(13) 1.059(2) 0.043(5) Uani 1 1 d . U . . .
H9 H 0.6302 0.5098 1.1366 0.052 Uiso 1 1 calc R . . . .
C13 C 0.4376(16) 0.3351(16) 0.942(3) 0.064(6) Uani 1 1 d . U . . .
C8 C 0.6443(14) 0.5582(13) 0.854(3) 0.059(6) Uani 1 1 d . U . . .
H8 H 0.6466 0.5590 0.7609 0.071 Uiso 1 1 calc R . . . .
C14 C 0.4930(15) 0.2837(13) 1.049(3) 0.067(9) Uani 1 1 d D . . . .
H14A H 0.4976 0.2500 1.0051 0.101 Uiso 1 1 calc GR . . . .
H14B H 0.4503 0.2648 1.0892 0.101 Uiso 1 1 calc GR . . . .
H14C H 0.5259 0.3036 1.1173 0.101 Uiso 1 1 calc GR . . . .
C12 C 0.5007(14) 0.3324(13) 0.954(2) 0.052(7) Uani 1 1 d D . . . .
H12 H 0.5089 0.3188 0.8672 0.062 Uiso 1 1 calc R . . . .
C5 C 0.1673(16) 0.5017(15) 0.804(3) 0.070(8) Uani 1 1 d D U . . .
H5 H 0.1592 0.5141 0.8919 0.084 Uiso 1 1 calc R . . . .
C1 C 0.3046(15) 0.4142(15) 0.691(3) 0.066(7) Uani 1 1 d . U . . .
H1 H 0.3012 0.4128 0.5983 0.079 Uiso 1 1 calc R . . . .
C7 C 0.186(2) 0.5591(18) 0.728(4) 0.104(11) Uani 1 1 d D U . . .
H7A H 0.2194 0.5964 0.7754 0.156 Uiso 1 1 calc GR . . . .
H7B H 0.1485 0.5645 0.7153 0.156 Uiso 1 1 calc GR . . . .
H7C H 0.2026 0.5554 0.6432 0.156 Uiso 1 1 calc GR . . . .
loop_
_atom_site_aniso_label
_atom_site_aniso_U_11
_atom_site_aniso_U_22
_atom_site_aniso_U_33
_atom_site_aniso_U_23
_atom_site_aniso_U_13
_atom_site_aniso_U_12
Zn2 0.075(2) 0.070(2) 0.0086(16) -0.0020(14) -0.0008(14) 0.038(2)
Zn1 0.074(2) 0.070(2) 0.0078(16) 0.0001(14) -0.0011(15) 0.039(2)
N5 0.070(10) 0.035(9) 0.010(8) 0.002(7) -0.004(7) 0.029(8)
N2 0.063(10) 0.067(11) 0.013(9) -0.001(8) -0.006(8) 0.033(9)
O5 0.094(12) 0.086(12) 0.014(9) -0.004(8) -0.017(8) 0.047(10)
N4 0.078(10) 0.047(9) 0.013(8) 0.005(7) -0.008(7) 0.029(8)
O1 0.061(11) 0.079(11) 0.020(9) -0.006(8) -0.008(7) 0.042(9)
O4 0.086(12) 0.085(12) 0.024(10) -0.007(8) -0.009(8) 0.044(10)
O2 0.078(11) 0.094(13) 0.013(9) -0.008(8) -0.006(8) 0.049(10)
O6 0.101(14) 0.071(12) 0.015(9) 0.009(8) -0.004(9) 0.034(11)
O3 0.086(13) 0.088(14) 0.033(11) 0.002(10) -0.006(10) 0.049(11)
N3 0.061(13) 0.086(14) 0.032(11) 0.000(10) -0.006(10) 0.039(11)
C4 0.056(13) 0.078(14) 0.026(11) -0.006(11) -0.005(10) 0.036(11)
N6 0.101(15) 0.069(14) 0.018(11) 0.004(9) -0.001(10) 0.044(13)
C3 0.060(11) 0.065(12) 0.021(10) 0.000(9) 0.005(9) 0.036(10)
N1 0.070(11) 0.073(11) 0.019(9) 0.002(8) -0.009(8) 0.028(9)
C11 0.106(15) 0.064(14) 0.024(11) 0.007(10) -0.003(11) 0.044(13)
C2 0.063(11) 0.068(12) 0.021(10) -0.007(9) 0.005(9) 0.039(10)
C10 0.079(12) 0.052(11) 0.018(9) -0.002(8) -0.008(9) 0.023(10)
C6 0.070(12) 0.085(12) 0.015(10) -0.006(9) -0.011(9) 0.046(10)
C9 0.071(10) 0.045(9) 0.015(8) 0.005(8) -0.010(8) 0.030(9)
C13 0.087(13) 0.084(12) 0.012(11) 0.000(9) -0.010(10) 0.037(11)
C8 0.084(12) 0.055(11) 0.018(10) -0.001(8) -0.009(9) 0.020(10)
C14 0.06(2) 0.07(2) 0.06(2) -0.005(16) -0.001(15) 0.022(17)
C12 0.07(2) 0.07(2) 0.022(15) -0.008(14) -0.013(13) 0.035(17)
C5 0.08(2) 0.11(2) 0.049(18) -0.015(14) -0.024(15) 0.067(19)
C1 0.069(12) 0.083(13) 0.031(11) 0.002(10) -0.010(10) 0.026(10)
C7 0.11(2) 0.13(3) 0.07(2) 0.013(17) -0.013(19) 0.06(2)
loop_
_atom_type_symbol
_atom_type_description
_atom_type_scat_dispersion_real
_atom_type_scat_dispersion_imag
_atom_type_scat_source
C C 0.0032 0.0015 'International Tables Vol C Tables 4.2.6.8 and 6.1.1.4'
H H 0.0000 0.0000 'International Tables Vol C Tables 4.2.6.8 and 6.1.1.4'
N N 0.0060 0.0030 'International Tables Vol C Tables 4.2.6.8 and 6.1.1.4'
O O 0.0108 0.0057 'International Tables Vol C Tables 4.2.6.8 and 6.1.1.4'
Zn Zn 0.3262 1.3876 'International Tables Vol C Tables 4.2.6.8 and 6.1.1.4'
loop_
_geom_angle_atom_site_label_1
_geom_angle_atom_site_label_2
_geom_angle_atom_site_label_3
_geom_angle
_geom_angle_site_symmetry_1
_geom_angle_site_symmetry_3
_geom_angle_publ_flag
N5 Zn2 N4 115.6(9) . 6_565 ?
O1 Zn2 N5 103.8(7) 9 . ?
O1 Zn2 N4 110.2(8) 9 6_565 ?
O2 Zn2 N5 113.3(8) 4 . ?
O2 Zn2 N4 105.4(9) 4 6_565 ?
O2 Zn2 O1 108.4(7) 4 9 ?
N2 Zn1 O4 102.6(9) . 5 ?
N2 Zn1 N1 115.4(9) . 5 ?
O5 Zn1 N2 114.7(8) . . ?
O5 Zn1 O4 107.6(9) . 5 ?
O5 Zn1 N1 106.8(9) . 5 ?
O4 Zn1 N1 109.4(9) 5 5 ?
N4 N5 Zn2 126.4(16) . . ?
N4 N5 C9 107(2) . . ?
C9 N5 Zn2 126.0(15) . . ?
N1 N2 Zn1 125.4(18) . . ?
C2 N2 Zn1 126.3(16) . . ?
C2 N2 N1 108(2) . . ?
C13 O5 Zn1 122.9(19) . . ?
N5 N4 Zn2 125.8(17) . 8_654 ?
N5 N4 C8 113(2) . . ?
C8 N4 Zn2 121.5(16) . 8_654 ?
C6 O1 Zn2 138.5(19) . 5_554 ?
C13 O4 Zn1 141(2) . 9_554 ?
C6 O2 Zn2 127.8(18) . 7_444 ?
C4 N3 C5 123(2) . . ?
O3 C4 N3 121(3) . . ?
O3 C4 C3 124(2) . . ?
N3 C4 C3 115(2) . . ?
C11 N6 C12 128(2) . . ?
C2 C3 C4 130(2) . . ?
C2 C3 C1 110(3) . . ?
C1 C3 C4 120(2) . . ?
N2 N1 Zn1 124.4(18) . 9_554 ?
N2 N1 C1 109(2) . . ?
C1 N1 Zn1 126(2) . 9_554 ?
O6 C11 N6 114(3) . . ?
O6 C11 C10 126(3) . . ?
N6 C11 C10 117(2) . . ?
C3 C2 N2 108(2) . . ?
C9 C10 C11 136(2) . . ?
C9 C10 C8 104(2) . . ?
C8 C10 C11 120(2) . . ?
O1 C6 O2 122(3) . . ?
O1 C6 C5 121(3) . . ?
O2 C6 C5 116(2) . . ?
N5 C9 C10 116(2) . . ?
O5 C13 C12 116(2) . . ?
O4 C13 O5 126(3) . . ?
O4 C13 C12 118(3) . . ?
C10 C8 N4 100(2) . . ?
N6 C12 C13 111(2) . . ?
N6 C12 C14 113(2) . . ?
C14 C12 C13 111(2) . . ?
N3 C5 C6 110(2) . . ?
N3 C5 C7 112(3) . . ?
C7 C5 C6 124(3) . . ?
C3 C1 N1 104(2) . . ?
loop_
_geom_bond_atom_site_label_1
_geom_bond_atom_site_label_2
_geom_bond_distance
_geom_bond_site_symmetry_2
_geom_bond_publ_flag
Zn2 N5 1.999(18) . ?
Zn2 N4 2.06(2) 6_565 ?
Zn2 O1 1.998(17) 9 ?
Zn2 O2 1.94(2) 4 ?
Zn1 N2 1.95(2) . ?
Zn1 O5 1.90(2) . ?
Zn1 O4 1.986(19) 5 ?
Zn1 N1 1.99(3) 5 ?
N5 N4 1.23(2) . ?
N5 C9 1.23(3) . ?
N2 N1 1.35(3) . ?
N2 C2 1.35(4) . ?
O5 C13 1.28(4) . ?
N4 Zn2 2.06(2) 8_654 ?
N4 C8 1.45(4) . ?
O1 Zn2 1.998(17) 5_554 ?
O1 C6 1.24(3) . ?
O4 Zn1 1.985(19) 9_554 ?
O4 C13 1.20(3) . ?
O2 Zn2 1.94(2) 7_444 ?
O2 C6 1.28(3) . ?
O6 C11 1.25(3) . ?
O3 C4 1.28(3) . ?
N3 C4 1.37(3) . ?
N3 C5 1.39(4) . ?
C4 C3 1.51(4) . ?
N6 C11 1.39(4) . ?
N6 C12 1.39(4) . ?
C3 C2 1.33(4) . ?
C3 C1 1.39(4) . ?
N1 Zn1 1.99(3) 9_554 ?
N1 C1 1.40(4) . ?
C11 C10 1.44(4) . ?
C10 C9 1.34(3) . ?
C10 C8 1.41(4) . ?
C6 C5 1.49(4) . ?
C13 C12 1.55(4) . ?
C14 C12 1.46(2) . ?
C5 C7 1.44(3) . ?
loop_
_smtbx_masks_void_nr
_smtbx_masks_void_average_x
_smtbx_masks_void_average_y
_smtbx_masks_void_average_z
_smtbx_masks_void_volume
_smtbx_masks_void_count_electrons
_smtbx_masks_void_content
1 0.000 0.000 -0.417 600.1 121.9 ?
2 0.333 0.667 -0.381 600.1 121.9 ?
3 0.667 0.333 -0.659 600.1 121.9 ?
